MODEL 1
REMARK VINA RESULT:     -10.3      0.000      0.000
REMARK  4 active torsions:
REMARK  status: ('A' for Active; 'I' for Inactive)
REMARK    1  A    between atoms: N_4  and  C_5 
REMARK    2  A    between atoms: C_14  and  C_15 
REMARK       I    between atoms: C_15  and  N_16 
REMARK    3  A    between atoms: N_16  and  N_17 
REMARK       I    between atoms: N_17  and  C_18 
REMARK       I    between atoms: C_18  and  N_19 
REMARK    4  A    between atoms: N_19  and  C_20 
ROOT
HETATM    1  C   UNL     1      24.766  46.050  50.793  1.00  0.00     0.277 C 
HETATM    2  N   UNL     1      24.036  47.157  50.407  1.00  0.00    -0.261 N 
HETATM    3  O   UNL     1      24.751  45.014  50.127  1.00  0.00    -0.265 OA
HETATM    4  H   UNL     1      23.950  47.979  51.005  1.00  0.00     0.190 HD
ENDROOT
BRANCH   1   5
HETATM    5  C   UNL     1      25.535  46.209  52.019  1.00  0.00     0.077 A 
HETATM    6  S   UNL     1      26.750  45.039  52.479  1.00  0.00    -0.064 SA
HETATM    7  C   UNL     1      27.129  45.922  53.838  1.00  0.00     0.113 A 
HETATM    8  N   UNL     1      27.991  45.898  54.906  1.00  0.00    -0.226 N 
HETATM    9  C   UNL     1      26.383  47.026  53.953  1.00  0.00     0.027 A 
HETATM   10  N   UNL     1      27.745  46.998  55.714  1.00  0.00    -0.171 NA
HETATM   11  C   UNL     1      26.753  47.682  55.111  1.00  0.00     0.064 A 
HETATM   12  C   UNL     1      26.222  48.930  55.703  1.00  0.00     0.073 C 
HETATM   13  C   UNL     1      25.457  47.255  52.940  1.00  0.00     0.041 A 
BRANCH   8  14
HETATM   14  C   UNL     1      29.026  44.978  55.248  1.00  0.00     0.059 A 
HETATM   15  C   UNL     1      29.912  45.308  56.289  1.00  0.00     0.031 A 
HETATM   16  C   UNL     1      30.948  44.441  56.643  1.00  0.00     0.002 A 
HETATM   17  C   UNL     1      31.110  43.235  55.967  1.00  0.00     0.000 A 
HETATM   18  C   UNL     1      30.236  42.896  54.938  1.00  0.00     0.002 A 
HETATM   19  C   UNL     1      29.198  43.761  54.577  1.00  0.00     0.031 A 
ENDBRANCH   8  14
ENDBRANCH   1   5
BRANCH   2  20
HETATM   20  N   UNL     1      23.110  47.063  49.353  1.00  0.00    -0.249 N 
HETATM   21  C   UNL     1      22.318  48.185  49.152  1.00  0.00     0.339 C 
HETATM   22  N   UNL     1      21.361  47.979  48.186  1.00  0.00    -0.308 N 
HETATM   23  O   UNL     1      22.528  49.221  49.779  1.00  0.00    -0.245 OA
HETATM   24  H   UNL     1      21.371  47.073  47.741  1.00  0.00     0.170 HD
HETATM   25  H   UNL     1      22.730  46.132  49.203  1.00  0.00     0.192 HD
BRANCH  22  26
HETATM   26  C   UNL     1      20.421  48.912  47.700  1.00  0.00     0.038 A 
HETATM   27  C   UNL     1      20.265  50.202  48.213  1.00  0.00     0.053 A 
HETATM   28  C   UNL     1      19.318  51.067  47.659  1.00  0.00     0.036 A 
HETATM   29 CL   UNL     1      19.141  52.660  48.291  1.00  0.00    -0.084 Cl
HETATM   30  C   UNL     1      18.515  50.658  46.597  1.00  0.00     0.024 A 
HETATM   31  C   UNL     1      18.660  49.372  46.084  1.00  0.00     0.004 A 
HETATM   32  C   UNL     1      19.609  48.505  46.633  1.00  0.00     0.029 A 
ENDBRANCH  22  26
ENDBRANCH   2  20
TORSDOF 4
ENDMDL
MODEL 2
REMARK VINA RESULT:     -10.3      2.525      3.719
REMARK  4 active torsions:
REMARK  status: ('A' for Active; 'I' for Inactive)
REMARK    1  A    between atoms: N_4  and  C_5 
REMARK    2  A    between atoms: C_14  and  C_15 
REMARK       I    between atoms: C_15  and  N_16 
REMARK    3  A    between atoms: N_16  and  N_17 
REMARK       I    between atoms: N_17  and  C_18 
REMARK       I    between atoms: C_18  and  N_19 
REMARK    4  A    between atoms: N_19  and  C_20 
ROOT
HETATM    1  C   UNL     1      24.277  43.820  50.445  1.00  0.00     0.277 C 
HETATM    2  N   UNL     1      24.417  44.735  49.420  1.00  0.00    -0.261 N 
HETATM    3  O   UNL     1      23.166  43.415  50.788  1.00  0.00    -0.265 OA
HETATM    4  H   UNL     1      25.318  45.162  49.201  1.00  0.00     0.190 HD
ENDROOT
BRANCH   1   5
HETATM    5  C   UNL     1      25.521  43.387  51.067  1.00  0.00     0.077 A 
HETATM    6  S   UNL     1      26.287  44.345  52.312  1.00  0.00    -0.064 SA
HETATM    7  C   UNL     1      27.497  43.215  52.478  1.00  0.00     0.113 A 
HETATM    8  N   UNL     1      28.626  42.980  53.223  1.00  0.00    -0.226 N 
HETATM    9  C   UNL     1      27.349  42.181  51.643  1.00  0.00     0.027 A 
HETATM   10  N   UNL     1      29.203  41.788  52.811  1.00  0.00    -0.171 NA
HETATM   11  C   UNL     1      28.402  41.309  51.839  1.00  0.00     0.064 A 
HETATM   12  C   UNL     1      28.714  40.034  51.156  1.00  0.00     0.073 C 
HETATM   13  C   UNL     1      26.232  42.212  50.814  1.00  0.00     0.041 A 
BRANCH   8  14
HETATM   14  C   UNL     1      29.217  43.729  54.283  1.00  0.00     0.059 A 
HETATM   15  C   UNL     1      30.383  43.237  54.896  1.00  0.00     0.031 A 
HETATM   16  C   UNL     1      30.983  43.934  55.948  1.00  0.00     0.002 A 
HETATM   17  C   UNL     1      30.429  45.129  56.398  1.00  0.00     0.000 A 
HETATM   18  C   UNL     1      29.277  45.628  55.796  1.00  0.00     0.002 A 
HETATM   19  C   UNL     1      28.671  44.934  54.743  1.00  0.00     0.031 A 
ENDBRANCH   8  14
ENDBRANCH   1   5
BRANCH   2  20
HETATM   20  N   UNL     1      23.287  45.368  48.876  1.00  0.00    -0.249 N 
HETATM   21  C   UNL     1      23.177  46.726  49.143  1.00  0.00     0.339 C 
HETATM   22  N   UNL     1      21.993  47.252  48.680  1.00  0.00    -0.308 N 
HETATM   23  O   UNL     1      24.088  47.330  49.703  1.00  0.00    -0.245 OA
HETATM   24  H   UNL     1      21.383  46.608  48.198  1.00  0.00     0.170 HD
HETATM   25  H   UNL     1      22.456  44.785  48.826  1.00  0.00     0.192 HD
BRANCH  22  26
HETATM   26  C   UNL     1      21.573  48.597  48.741  1.00  0.00     0.038 A 
HETATM   27  C   UNL     1      20.400  49.022  49.369  1.00  0.00     0.053 A 
HETATM   28  C   UNL     1      20.070  50.379  49.395  1.00  0.00     0.036 A 
HETATM   29 CL   UNL     1      18.626  50.893  50.182  1.00  0.00    -0.084 Cl
HETATM   30  C   UNL     1      20.897  51.324  48.794  1.00  0.00     0.024 A 
HETATM   31  C   UNL     1      22.065  50.910  48.161  1.00  0.00     0.004 A 
HETATM   32  C   UNL     1      22.401  49.553  48.136  1.00  0.00     0.029 A 
ENDBRANCH  22  26
ENDBRANCH   2  20
TORSDOF 4
ENDMDL
MODEL 3
REMARK VINA RESULT:      -9.9      2.675      4.014
REMARK  4 active torsions:
REMARK  status: ('A' for Active; 'I' for Inactive)
REMARK    1  A    between atoms: N_4  and  C_5 
REMARK    2  A    between atoms: C_14  and  C_15 
REMARK       I    between atoms: C_15  and  N_16 
REMARK    3  A    between atoms: N_16  and  N_17 
REMARK       I    between atoms: N_17  and  C_18 
REMARK       I    between atoms: C_18  and  N_19 
REMARK    4  A    between atoms: N_19  and  C_20 
ROOT
HETATM    1  C   UNL     1      24.084  48.207  49.636  1.00  0.00     0.277 C 
HETATM    2  N   UNL     1      22.709  48.326  49.601  1.00  0.00    -0.261 N 
HETATM    3  O   UNL     1      24.812  49.156  49.340  1.00  0.00    -0.265 OA
HETATM    4  H   UNL     1      22.096  47.520  49.733  1.00  0.00     0.190 HD
ENDROOT
BRANCH   1   5
HETATM    5  C   UNL     1      24.586  46.902  50.042  1.00  0.00     0.077 A 
HETATM    6  S   UNL     1      25.968  46.758  51.102  1.00  0.00    -0.064 SA
HETATM    7  C   UNL     1      25.844  45.098  51.088  1.00  0.00     0.113 A 
HETATM    8  N   UNL     1      26.447  43.990  51.629  1.00  0.00    -0.226 N 
HETATM    9  C   UNL     1      24.834  44.669  50.324  1.00  0.00     0.027 A 
HETATM   10  N   UNL     1      25.812  42.851  51.158  1.00  0.00    -0.171 NA
HETATM   11  C   UNL     1      24.819  43.288  50.358  1.00  0.00     0.064 A 
HETATM   12  C   UNL     1      23.922  42.334  49.670  1.00  0.00     0.073 C 
HETATM   13  C   UNL     1      24.067  45.651  49.704  1.00  0.00     0.041 A 
BRANCH   8  14
HETATM   14  C   UNL     1      27.534  43.874  52.545  1.00  0.00     0.059 A 
HETATM   15  C   UNL     1      28.633  43.068  52.197  1.00  0.00     0.031 A 
HETATM   16  C   UNL     1      29.710  42.916  53.074  1.00  0.00     0.002 A 
HETATM   17  C   UNL     1      29.705  43.567  54.304  1.00  0.00     0.000 A 
HETATM   18  C   UNL     1      28.625  44.371  54.657  1.00  0.00     0.002 A 
HETATM   19  C   UNL     1      27.543  44.526  53.784  1.00  0.00     0.031 A 
ENDBRANCH   8  14
ENDBRANCH   1   5
BRANCH   2  20
HETATM   20  N   UNL     1      22.110  49.468  49.043  1.00  0.00    -0.249 N 
HETATM   21  C   UNL     1      20.741  49.584  49.245  1.00  0.00     0.339 C 
HETATM   22  N   UNL     1      20.207  50.660  48.575  1.00  0.00    -0.308 N 
HETATM   23  O   UNL     1      20.147  48.798  49.978  1.00  0.00    -0.245 OA
HETATM   24  H   UNL     1      20.862  51.227  48.057  1.00  0.00     0.170 HD
HETATM   25  H   UNL     1      22.530  49.787  48.175  1.00  0.00     0.192 HD
BRANCH  22  26
HETATM   26  C   UNL     1      18.866  51.098  48.592  1.00  0.00     0.038 A 
HETATM   27  C   UNL     1      17.852  50.539  47.812  1.00  0.00     0.053 A 
HETATM   28  C   UNL     1      16.546  51.026  47.905  1.00  0.00     0.036 A 
HETATM   29 CL   UNL     1      15.300  50.321  46.945  1.00  0.00    -0.084 Cl
HETATM   30  C   UNL     1      16.236  52.074  48.767  1.00  0.00     0.024 A 
HETATM   31  C   UNL     1      17.242  52.642  49.545  1.00  0.00     0.004 A 
HETATM   32  C   UNL     1      18.549  52.155  49.458  1.00  0.00     0.029 A 
ENDBRANCH  22  26
ENDBRANCH   2  20
TORSDOF 4
ENDMDL
MODEL 4
REMARK VINA RESULT:      -9.8      2.631      3.714
REMARK  4 active torsions:
REMARK  status: ('A' for Active; 'I' for Inactive)
REMARK    1  A    between atoms: N_4  and  C_5 
REMARK    2  A    between atoms: C_14  and  C_15 
REMARK       I    between atoms: C_15  and  N_16 
REMARK    3  A    between atoms: N_16  and  N_17 
REMARK       I    between atoms: N_17  and  C_18 
REMARK       I    between atoms: C_18  and  N_19 
REMARK    4  A    between atoms: N_19  and  C_20 
ROOT
HETATM    1  C   UNL     1      24.283  48.402  49.706  1.00  0.00     0.277 C 
HETATM    2  N   UNL     1      22.951  48.707  49.905  1.00  0.00    -0.261 N 
HETATM    3  O   UNL     1      25.055  49.222  49.208  1.00  0.00    -0.265 OA
HETATM    4  H   UNL     1      22.278  48.002  50.210  1.00  0.00     0.190 HD
ENDROOT
BRANCH   1   5
HETATM    5  C   UNL     1      24.685  47.067  50.124  1.00  0.00     0.077 A 
HETATM    6  S   UNL     1      26.105  46.823  51.115  1.00  0.00    -0.064 SA
HETATM    7  C   UNL     1      25.830  45.183  51.158  1.00  0.00     0.113 A 
HETATM    8  N   UNL     1      26.359  44.038  51.701  1.00  0.00    -0.226 N 
HETATM    9  C   UNL     1      24.745  44.829  50.461  1.00  0.00     0.027 A 
HETATM   10  N   UNL     1      25.597  42.950  51.299  1.00  0.00    -0.171 NA
HETATM   11  C   UNL     1      24.606  43.456  50.538  1.00  0.00     0.064 A 
HETATM   12  C   UNL     1      23.589  42.572  49.928  1.00  0.00     0.073 C 
HETATM   13  C   UNL     1      24.037  45.861  49.853  1.00  0.00     0.041 A 
BRANCH   8  14
HETATM   14  C   UNL     1      27.479  43.845  52.561  1.00  0.00     0.059 A 
HETATM   15  C   UNL     1      27.479  44.460  53.826  1.00  0.00     0.031 A 
HETATM   16  C   UNL     1      28.566  44.308  54.691  1.00  0.00     0.002 A 
HETATM   17  C   UNL     1      29.661  43.540  54.307  1.00  0.00     0.000 A 
HETATM   18  C   UNL     1      29.670  42.923  53.059  1.00  0.00     0.002 A 
HETATM   19  C   UNL     1      28.586  43.072  52.187  1.00  0.00     0.031 A 
ENDBRANCH   8  14
ENDBRANCH   1   5
BRANCH   2  20
HETATM   20  N   UNL     1      22.405  49.885  49.367  1.00  0.00    -0.249 N 
HETATM   21  C   UNL     1      21.020  49.911  49.269  1.00  0.00     0.339 C 
HETATM   22  N   UNL     1      20.567  51.042  48.630  1.00  0.00    -0.308 N 
HETATM   23  O   UNL     1      20.341  49.008  49.749  1.00  0.00    -0.245 OA
HETATM   24  H   UNL     1      21.275  51.702  48.344  1.00  0.00     0.170 HD
HETATM   25  H   UNL     1      22.979  50.336  48.660  1.00  0.00     0.192 HD
BRANCH  22  26
HETATM   26  C   UNL     1      19.226  51.413  48.397  1.00  0.00     0.038 A 
HETATM   27  C   UNL     1      18.409  52.029  49.349  1.00  0.00     0.053 A 
HETATM   28  C   UNL     1      17.096  52.378  49.025  1.00  0.00     0.036 A 
HETATM   29 CL   UNL     1      16.101  53.147  50.203  1.00  0.00    -0.084 Cl
HETATM   30  C   UNL     1      16.580  52.112  47.760  1.00  0.00     0.024 A 
HETATM   31  C   UNL     1      17.384  51.493  46.807  1.00  0.00     0.004 A 
HETATM   32  C   UNL     1      18.701  51.147  47.125  1.00  0.00     0.029 A 
ENDBRANCH  22  26
ENDBRANCH   2  20
TORSDOF 4
ENDMDL
MODEL 5
REMARK VINA RESULT:      -9.7      4.382     10.820
REMARK  4 active torsions:
REMARK  status: ('A' for Active; 'I' for Inactive)
REMARK    1  A    between atoms: N_4  and  C_5 
REMARK    2  A    between atoms: C_14  and  C_15 
REMARK       I    between atoms: C_15  and  N_16 
REMARK    3  A    between atoms: N_16  and  N_17 
REMARK       I    between atoms: N_17  and  C_18 
REMARK       I    between atoms: C_18  and  N_19 
REMARK    4  A    between atoms: N_19  and  C_20 
ROOT
HETATM    1  C   UNL     1      25.966  44.216  49.887  1.00  0.00     0.277 C 
HETATM    2  N   UNL     1      25.816  43.611  51.120  1.00  0.00    -0.261 N 
HETATM    3  O   UNL     1      27.054  44.222  49.311  1.00  0.00    -0.265 OA
HETATM    4  H   UNL     1      24.953  43.696  51.658  1.00  0.00     0.190 HD
ENDROOT
BRANCH   1   5
HETATM    5  C   UNL     1      24.762  44.827  49.344  1.00  0.00     0.077 A 
HETATM    6  S   UNL     1      24.347  46.485  49.714  1.00  0.00    -0.064 SA
HETATM    7  C   UNL     1      22.993  46.393  48.750  1.00  0.00     0.113 A 
HETATM    8  N   UNL     1      21.952  47.175  48.316  1.00  0.00    -0.226 N 
HETATM    9  C   UNL     1      22.848  45.188  48.189  1.00  0.00     0.027 A 
HETATM   10  N   UNL     1      21.128  46.420  47.495  1.00  0.00    -0.171 NA
HETATM   11  C   UNL     1      21.696  45.200  47.426  1.00  0.00     0.064 A 
HETATM   12  C   UNL     1      21.079  44.118  46.627  1.00  0.00     0.073 C 
HETATM   13  C   UNL     1      23.831  44.248  48.480  1.00  0.00     0.041 A 
BRANCH   8  14
HETATM   14  C   UNL     1      21.647  48.545  48.566  1.00  0.00     0.059 A 
HETATM   15  C   UNL     1      22.515  49.536  48.072  1.00  0.00     0.031 A 
HETATM   16  C   UNL     1      22.260  50.888  48.310  1.00  0.00     0.002 A 
HETATM   17  C   UNL     1      21.137  51.269  49.039  1.00  0.00     0.000 A 
HETATM   18  C   UNL     1      20.269  50.297  49.530  1.00  0.00     0.002 A 
HETATM   19  C   UNL     1      20.520  48.941  49.297  1.00  0.00     0.031 A 
ENDBRANCH   8  14
ENDBRANCH   1   5
BRANCH   2  20
HETATM   20  N   UNL     1      26.942  43.158  51.829  1.00  0.00    -0.249 N 
HETATM   21  C   UNL     1      27.352  43.970  52.878  1.00  0.00     0.339 C 
HETATM   22  N   UNL     1      28.523  43.527  53.450  1.00  0.00    -0.308 N 
HETATM   23  O   UNL     1      26.679  44.938  53.223  1.00  0.00    -0.245 OA
HETATM   24  H   UNL     1      28.910  42.679  53.062  1.00  0.00     0.170 HD
HETATM   25  H   UNL     1      27.626  42.659  51.267  1.00  0.00     0.192 HD
BRANCH  22  26
HETATM   26  C   UNL     1      29.197  44.082  54.558  1.00  0.00     0.038 A 
HETATM   27  C   UNL     1      30.208  43.427  55.265  1.00  0.00     0.053 A 
HETATM   28  C   UNL     1      30.834  44.060  56.341  1.00  0.00     0.036 A 
HETATM   29 CL   UNL     1      32.088  43.247  57.200  1.00  0.00    -0.084 Cl
HETATM   30  C   UNL     1      30.458  45.343  56.730  1.00  0.00     0.024 A 
HETATM   31  C   UNL     1      29.447  46.001  56.035  1.00  0.00     0.004 A 
HETATM   32  C   UNL     1      28.821  45.373  54.954  1.00  0.00     0.029 A 
ENDBRANCH  22  26
ENDBRANCH   2  20
TORSDOF 4
ENDMDL
MODEL 6
REMARK VINA RESULT:      -9.6      2.647      4.012
REMARK  4 active torsions:
REMARK  status: ('A' for Active; 'I' for Inactive)
REMARK    1  A    between atoms: N_4  and  C_5 
REMARK    2  A    between atoms: C_14  and  C_15 
REMARK       I    between atoms: C_15  and  N_16 
REMARK    3  A    between atoms: N_16  and  N_17 
REMARK       I    between atoms: N_17  and  C_18 
REMARK       I    between atoms: C_18  and  N_19 
REMARK    4  A    between atoms: N_19  and  C_20 
ROOT
HETATM    1  C   UNL     1      22.446  44.461  49.241  1.00  0.00     0.277 C 
HETATM    2  N   UNL     1      22.309  45.835  49.252  1.00  0.00    -0.261 N 
HETATM    3  O   UNL     1      21.613  43.743  48.686  1.00  0.00    -0.265 OA
HETATM    4  H   UNL     1      22.928  46.432  49.801  1.00  0.00     0.190 HD
ENDROOT
BRANCH   1   5
HETATM    5  C   UNL     1      23.627  43.948  49.920  1.00  0.00     0.077 A 
HETATM    6  S   UNL     1      24.492  44.924  51.084  1.00  0.00    -0.064 SA
HETATM    7  C   UNL     1      25.563  43.683  51.374  1.00  0.00     0.113 A 
HETATM    8  N   UNL     1      26.652  43.391  52.157  1.00  0.00    -0.226 N 
HETATM    9  C   UNL     1      25.300  42.600  50.635  1.00  0.00     0.027 A 
HETATM   10  N   UNL     1      27.090  42.107  51.865  1.00  0.00    -0.171 NA
HETATM   11  C   UNL     1      26.244  41.634  50.928  1.00  0.00     0.064 A 
HETATM   12  C   UNL     1      26.411  40.274  50.370  1.00  0.00     0.073 C 
HETATM   13  C   UNL     1      24.199  42.682  49.788  1.00  0.00     0.041 A 
BRANCH   8  14
HETATM   14  C   UNL     1      27.319  44.162  53.153  1.00  0.00     0.059 A 
HETATM   15  C   UNL     1      28.456  43.624  53.782  1.00  0.00     0.031 A 
HETATM   16  C   UNL     1      29.127  44.343  54.774  1.00  0.00     0.002 A 
HETATM   17  C   UNL     1      28.676  45.606  55.147  1.00  0.00     0.000 A 
HETATM   18  C   UNL     1      27.554  46.150  54.528  1.00  0.00     0.002 A 
HETATM   19  C   UNL     1      26.876  45.435  53.535  1.00  0.00     0.031 A 
ENDBRANCH   8  14
ENDBRANCH   1   5
BRANCH   2  20
HETATM   20  N   UNL     1      21.119  46.432  48.800  1.00  0.00    -0.249 N 
HETATM   21  C   UNL     1      21.091  47.820  48.850  1.00  0.00     0.339 C 
HETATM   22  N   UNL     1      19.860  48.326  48.504  1.00  0.00    -0.308 N 
HETATM   23  O   UNL     1      22.099  48.456  49.146  1.00  0.00    -0.245 OA
HETATM   24  H   UNL     1      19.161  47.647  48.242  1.00  0.00     0.170 HD
HETATM   25  H   UNL     1      20.277  45.894  48.984  1.00  0.00     0.192 HD
BRANCH  22  26
HETATM   26  C   UNL     1      19.492  49.684  48.406  1.00  0.00     0.038 A 
HETATM   27  C   UNL     1      18.838  50.238  47.302  1.00  0.00     0.053 A 
HETATM   28  C   UNL     1      18.496  51.593  47.297  1.00  0.00     0.036 A 
HETATM   29 CL   UNL     1      17.680  52.264  45.936  1.00  0.00    -0.084 Cl
HETATM   30  C   UNL     1      18.803  52.409  48.383  1.00  0.00     0.024 A 
HETATM   31  C   UNL     1      19.459  51.867  49.484  1.00  0.00     0.004 A 
HETATM   32  C   UNL     1      19.800  50.511  49.495  1.00  0.00     0.029 A 
ENDBRANCH  22  26
ENDBRANCH   2  20
TORSDOF 4
ENDMDL
MODEL 7
REMARK VINA RESULT:      -9.6      6.309      8.134
REMARK  4 active torsions:
REMARK  status: ('A' for Active; 'I' for Inactive)
REMARK    1  A    between atoms: N_4  and  C_5 
REMARK    2  A    between atoms: C_14  and  C_15 
REMARK       I    between atoms: C_15  and  N_16 
REMARK    3  A    between atoms: N_16  and  N_17 
REMARK       I    between atoms: N_17  and  C_18 
REMARK       I    between atoms: C_18  and  N_19 
REMARK    4  A    between atoms: N_19  and  C_20 
ROOT
HETATM    1  C   UNL     1      26.309  42.532  50.686  1.00  0.00     0.277 C 
HETATM    2  N   UNL     1      26.884  42.827  49.466  1.00  0.00    -0.261 N 
HETATM    3  O   UNL     1      25.517  41.597  50.806  1.00  0.00    -0.265 OA
HETATM    4  H   UNL     1      27.452  43.664  49.327  1.00  0.00     0.190 HD
ENDROOT
BRANCH   1   5
HETATM    5  C   UNL     1      26.710  43.396  51.788  1.00  0.00     0.077 A 
HETATM    6  S   UNL     1      27.973  42.915  52.897  1.00  0.00    -0.064 SA
HETATM    7  C   UNL     1      27.835  44.352  53.725  1.00  0.00     0.113 A 
HETATM    8  N   UNL     1      28.398  45.017  54.785  1.00  0.00    -0.226 N 
HETATM    9  C   UNL     1      26.890  45.147  53.212  1.00  0.00     0.027 A 
HETATM   10  N   UNL     1      27.759  46.237  54.948  1.00  0.00    -0.171 NA
HETATM   11  C   UNL     1      26.835  46.301  53.969  1.00  0.00     0.064 A 
HETATM   12  C   UNL     1      25.950  47.479  53.835  1.00  0.00     0.073 C 
HETATM   13  C   UNL     1      26.214  44.664  52.096  1.00  0.00     0.041 A 
BRANCH   8  14
HETATM   14  C   UNL     1      29.471  44.653  55.650  1.00  0.00     0.059 A 
HETATM   15  C   UNL     1      29.712  45.428  56.799  1.00  0.00     0.031 A 
HETATM   16  C   UNL     1      30.764  45.114  57.663  1.00  0.00     0.002 A 
HETATM   17  C   UNL     1      31.584  44.022  57.394  1.00  0.00     0.000 A 
HETATM   18  C   UNL     1      31.353  43.244  56.262  1.00  0.00     0.002 A 
HETATM   19  C   UNL     1      30.302  43.556  55.392  1.00  0.00     0.031 A 
ENDBRANCH   8  14
ENDBRANCH   1   5
BRANCH   2  20
HETATM   20  N   UNL     1      26.432  42.191  48.297  1.00  0.00    -0.249 N 
HETATM   21  C   UNL     1      27.368  41.397  47.648  1.00  0.00     0.339 C 
HETATM   22  N   UNL     1      26.892  40.902  46.456  1.00  0.00    -0.308 N 
HETATM   23  O   UNL     1      28.464  41.178  48.157  1.00  0.00    -0.245 OA
HETATM   24  H   UNL     1      25.942  41.151  46.223  1.00  0.00     0.170 HD
HETATM   25  H   UNL     1      25.748  42.720  47.762  1.00  0.00     0.192 HD
BRANCH  22  26
HETATM   26  C   UNL     1      27.556  40.031  45.567  1.00  0.00     0.038 A 
HETATM   27  C   UNL     1      28.373  40.460  44.518  1.00  0.00     0.053 A 
HETATM   28  C   UNL     1      29.005  39.525  43.694  1.00  0.00     0.036 A 
HETATM   29 CL   UNL     1      30.021  40.065  42.411  1.00  0.00    -0.084 Cl
HETATM   30  C   UNL     1      28.827  38.160  43.899  1.00  0.00     0.024 A 
HETATM   31  C   UNL     1      28.009  37.723  44.938  1.00  0.00     0.004 A 
HETATM   32  C   UNL     1      27.378  38.655  45.767  1.00  0.00     0.029 A 
ENDBRANCH  22  26
ENDBRANCH   2  20
TORSDOF 4
ENDMDL
MODEL 8
REMARK VINA RESULT:      -9.5      2.956      4.027
REMARK  4 active torsions:
REMARK  status: ('A' for Active; 'I' for Inactive)
REMARK    1  A    between atoms: N_4  and  C_5 
REMARK    2  A    between atoms: C_14  and  C_15 
REMARK       I    between atoms: C_15  and  N_16 
REMARK    3  A    between atoms: N_16  and  N_17 
REMARK       I    between atoms: N_17  and  C_18 
REMARK       I    between atoms: C_18  and  N_19 
REMARK    4  A    between atoms: N_19  and  C_20 
ROOT
HETATM    1  C   UNL     1      23.353  43.146  49.844  1.00  0.00     0.277 C 
HETATM    2  N   UNL     1      23.110  44.506  49.825  1.00  0.00    -0.261 N 
HETATM    3  O   UNL     1      22.506  42.344  49.450  1.00  0.00    -0.265 OA
HETATM    4  H   UNL     1      23.755  45.172  50.251  1.00  0.00     0.190 HD
ENDROOT
BRANCH   1   5
HETATM    5  C   UNL     1      24.659  42.755  50.354  1.00  0.00     0.077 A 
HETATM    6  S   UNL     1      25.456  43.686  51.600  1.00  0.00    -0.064 SA
HETATM    7  C   UNL     1      26.737  42.624  51.617  1.00  0.00     0.113 A 
HETATM    8  N   UNL     1      27.927  42.415  52.270  1.00  0.00    -0.226 N 
HETATM    9  C   UNL     1      26.589  41.632  50.733  1.00  0.00     0.027 A 
HETATM   10  N   UNL     1      28.539  41.285  51.748  1.00  0.00    -0.171 NA
HETATM   11  C   UNL     1      27.701  40.815  50.805  1.00  0.00     0.064 A 
HETATM   12  C   UNL     1      28.035  39.602  50.027  1.00  0.00     0.073 C 
HETATM   13  C   UNL     1      25.416  41.642  49.984  1.00  0.00     0.041 A 
BRANCH   8  14
HETATM   14  C   UNL     1      28.547  43.138  53.331  1.00  0.00     0.059 A 
HETATM   15  C   UNL     1      29.798  42.706  53.808  1.00  0.00     0.031 A 
HETATM   16  C   UNL     1      30.430  43.377  54.857  1.00  0.00     0.002 A 
HETATM   17  C   UNL     1      29.826  44.488  55.439  1.00  0.00     0.000 A 
HETATM   18  C   UNL     1      28.590  44.927  54.973  1.00  0.00     0.002 A 
HETATM   19  C   UNL     1      27.951  44.258  53.923  1.00  0.00     0.031 A 
ENDBRANCH   8  14
ENDBRANCH   1   5
BRANCH   2  20
HETATM   20  N   UNL     1      21.823  44.992  49.538  1.00  0.00    -0.249 N 
HETATM   21  C   UNL     1      21.778  46.220  48.892  1.00  0.00     0.339 C 
HETATM   22  N   UNL     1      20.492  46.685  48.749  1.00  0.00    -0.308 N 
HETATM   23  O   UNL     1      22.809  46.756  48.493  1.00  0.00    -0.245 OA
HETATM   24  H   UNL     1      19.763  46.080  49.099  1.00  0.00     0.170 HD
HETATM   25  H   UNL     1      21.113  44.745  50.222  1.00  0.00     0.192 HD
BRANCH  22  26
HETATM   26  C   UNL     1      20.077  47.870  48.106  1.00  0.00     0.038 A 
HETATM   27  C   UNL     1      20.302  49.153  48.612  1.00  0.00     0.053 A 
HETATM   28  C   UNL     1      19.870  50.273  47.899  1.00  0.00     0.036 A 
HETATM   29 CL   UNL     1      20.161  51.851  48.527  1.00  0.00    -0.084 Cl
HETATM   30  C   UNL     1      19.208  50.132  46.682  1.00  0.00     0.024 A 
HETATM   31  C   UNL     1      18.975  48.857  46.173  1.00  0.00     0.004 A 
HETATM   32  C   UNL     1      19.409  47.733  46.881  1.00  0.00     0.029 A 
ENDBRANCH  22  26
ENDBRANCH   2  20
TORSDOF 4
ENDMDL
MODEL 9
REMARK VINA RESULT:      -9.1      9.086     13.154
REMARK  4 active torsions:
REMARK  status: ('A' for Active; 'I' for Inactive)
REMARK    1  A    between atoms: N_4  and  C_5 
REMARK    2  A    between atoms: C_14  and  C_15 
REMARK       I    between atoms: C_15  and  N_16 
REMARK    3  A    between atoms: N_16  and  N_17 
REMARK       I    between atoms: N_17  and  C_18 
REMARK       I    between atoms: C_18  and  N_19 
REMARK    4  A    between atoms: N_19  and  C_20 
ROOT
HETATM    1  C   UNL     1      14.647  53.494  50.694  1.00  0.00     0.277 C 
HETATM    2  N   UNL     1      15.305  54.356  51.549  1.00  0.00    -0.261 N 
HETATM    3  O   UNL     1      13.456  53.224  50.855  1.00  0.00    -0.265 OA
HETATM    4  H   UNL     1      16.314  54.500  51.494  1.00  0.00     0.190 HD
ENDROOT
BRANCH   1   5
HETATM    5  C   UNL     1      15.458  52.948  49.615  1.00  0.00     0.077 A 
HETATM    6  S   UNL     1      17.076  52.358  49.913  1.00  0.00    -0.064 SA
HETATM    7  C   UNL     1      17.243  51.920  48.317  1.00  0.00     0.113 A 
HETATM    8  N   UNL     1      18.152  51.329  47.474  1.00  0.00    -0.226 N 
HETATM    9  C   UNL     1      16.157  52.207  47.592  1.00  0.00     0.027 A 
HETATM   10  N   UNL     1      17.622  51.284  46.193  1.00  0.00    -0.171 NA
HETATM   11  C   UNL     1      16.392  51.827  46.285  1.00  0.00     0.064 A 
HETATM   12  C   UNL     1      15.524  51.948  45.093  1.00  0.00     0.073 C 
HETATM   13  C   UNL     1      15.094  52.788  48.277  1.00  0.00     0.041 A 
BRANCH   8  14
HETATM   14  C   UNL     1      19.447  50.790  47.730  1.00  0.00     0.059 A 
HETATM   15  C   UNL     1      20.397  51.586  48.393  1.00  0.00     0.031 A 
HETATM   16  C   UNL     1      21.682  51.100  48.647  1.00  0.00     0.002 A 
HETATM   17  C   UNL     1      22.032  49.813  48.247  1.00  0.00     0.000 A 
HETATM   18  C   UNL     1      21.098  49.014  47.594  1.00  0.00     0.002 A 
HETATM   19  C   UNL     1      19.811  49.496  47.335  1.00  0.00     0.031 A 
ENDBRANCH   8  14
ENDBRANCH   1   5
BRANCH   2  20
HETATM   20  N   UNL     1      14.684  54.792  52.732  1.00  0.00    -0.249 N 
HETATM   21  C   UNL     1      14.803  56.149  53.003  1.00  0.00     0.339 C 
HETATM   22  N   UNL     1      14.274  56.481  54.229  1.00  0.00    -0.308 N 
HETATM   23  O   UNL     1      15.305  56.911  52.181  1.00  0.00    -0.245 OA
HETATM   24  H   UNL     1      13.856  55.723  54.749  1.00  0.00     0.170 HD
HETATM   25  H   UNL     1      14.688  54.114  53.489  1.00  0.00     0.192 HD
BRANCH  22  26
HETATM   26  C   UNL     1      14.185  57.766  54.802  1.00  0.00     0.038 A 
HETATM   27  C   UNL     1      15.284  58.487  55.278  1.00  0.00     0.053 A 
HETATM   28  C   UNL     1      15.105  59.763  55.816  1.00  0.00     0.036 A 
HETATM   29 CL   UNL     1      16.468  60.648  56.391  1.00  0.00    -0.084 Cl
HETATM   30  C   UNL     1      13.837  60.333  55.892  1.00  0.00     0.024 A 
HETATM   31  C   UNL     1      12.736  59.621  55.425  1.00  0.00     0.004 A 
HETATM   32  C   UNL     1      12.911  58.344  54.882  1.00  0.00     0.029 A 
ENDBRANCH  22  26
ENDBRANCH   2  20
TORSDOF 4
ENDMDL
MODEL 10
REMARK VINA RESULT:      -9.0      8.063     11.861
REMARK  4 active torsions:
REMARK  status: ('A' for Active; 'I' for Inactive)
REMARK    1  A    between atoms: N_4  and  C_5 
REMARK    2  A    between atoms: C_14  and  C_15 
REMARK       I    between atoms: C_15  and  N_16 
REMARK    3  A    between atoms: N_16  and  N_17 
REMARK       I    between atoms: N_17  and  C_18 
REMARK       I    between atoms: C_18  and  N_19 
REMARK    4  A    between atoms: N_19  and  C_20 
ROOT
HETATM    1  C   UNL     1      26.862  40.265  50.347  1.00  0.00     0.277 C 
HETATM    2  N   UNL     1      27.901  40.224  51.256  1.00  0.00    -0.261 N 
HETATM    3  O   UNL     1      25.840  40.911  50.577  1.00  0.00    -0.265 OA
HETATM    4  H   UNL     1      28.702  39.605  51.129  1.00  0.00     0.190 HD
ENDROOT
BRANCH   1   5
HETATM    5  C   UNL     1      27.074  39.499  49.126  1.00  0.00     0.077 A 
HETATM    6  S   UNL     1      27.843  40.221  47.732  1.00  0.00    -0.064 SA
HETATM    7  C   UNL     1      27.736  38.788  46.893  1.00  0.00     0.113 A 
HETATM    8  N   UNL     1      28.075  38.249  45.677  1.00  0.00    -0.226 N 
HETATM    9  C   UNL     1      27.147  37.822  47.607  1.00  0.00     0.027 A 
HETATM   10  N   UNL     1      27.653  36.928  45.632  1.00  0.00    -0.171 NA
HETATM   11  C   UNL     1      27.086  36.682  46.829  1.00  0.00     0.064 A 
HETATM   12  C   UNL     1      26.514  35.353  47.140  1.00  0.00     0.073 C 
HETATM   13  C   UNL     1      26.753  38.160  48.897  1.00  0.00     0.041 A 
BRANCH   8  14
HETATM   14  C   UNL     1      28.760  38.818  44.563  1.00  0.00     0.059 A 
HETATM   15  C   UNL     1      28.530  40.167  44.241  1.00  0.00     0.031 A 
HETATM   16  C   UNL     1      29.169  40.757  43.148  1.00  0.00     0.002 A 
HETATM   17  C   UNL     1      30.046  40.009  42.366  1.00  0.00     0.000 A 
HETATM   18  C   UNL     1      30.285  38.674  42.679  1.00  0.00     0.002 A 
HETATM   19  C   UNL     1      29.646  38.077  43.771  1.00  0.00     0.031 A 
ENDBRANCH   8  14
ENDBRANCH   1   5
BRANCH   2  20
HETATM   20  N   UNL     1      27.736  40.761  52.545  1.00  0.00    -0.249 N 
HETATM   21  C   UNL     1      28.420  41.944  52.791  1.00  0.00     0.339 C 
HETATM   22  N   UNL     1      28.306  42.346  54.101  1.00  0.00    -0.308 N 
HETATM   23  O   UNL     1      29.011  42.526  51.885  1.00  0.00    -0.245 OA
HETATM   24  H   UNL     1      27.735  41.761  54.694  1.00  0.00     0.170 HD
HETATM   25  H   UNL     1      27.621  40.071  53.281  1.00  0.00     0.192 HD
BRANCH  22  26
HETATM   26  C   UNL     1      28.834  43.516  54.686  1.00  0.00     0.038 A 
HETATM   27  C   UNL     1      28.194  44.758  54.662  1.00  0.00     0.053 A 
HETATM   28  C   UNL     1      28.784  45.863  55.281  1.00  0.00     0.036 A 
HETATM   29 CL   UNL     1      27.981  47.387  55.255  1.00  0.00    -0.084 Cl
HETATM   30  C   UNL     1      30.013  45.746  55.924  1.00  0.00     0.024 A 
HETATM   31  C   UNL     1      30.661  44.514  55.948  1.00  0.00     0.004 A 
HETATM   32  C   UNL     1      30.072  43.405  55.332  1.00  0.00     0.029 A 
ENDBRANCH  22  26
ENDBRANCH   2  20
TORSDOF 4
ENDMDL
