MODEL 1
REMARK VINA RESULT:      -9.4      0.000      0.000
REMARK  10 active torsions:
REMARK  status: ('A' for Active; 'I' for Inactive)
REMARK    1  A    between atoms: O_2  and  C_3 
REMARK    2  A    between atoms: C_6  and  C_7 
REMARK    3  A    between atoms: C_7  and  C_8 
REMARK    4  A    between atoms: C_8  and  N_9 
REMARK    5  A    between atoms: N_12  and  C_13 
REMARK    6  A    between atoms: C_16  and  O_17 
REMARK    7  A    between atoms: C_23  and  C_24 
REMARK    8  A    between atoms: C_24  and  C_25 
REMARK       I    between atoms: C_25  and  N_26 
REMARK    9  A    between atoms: N_26  and  C_27 
REMARK   10  A    between atoms: C_30  and  O_31 
ROOT
HETATM    1  N   UNL     1      26.500  45.743  53.065  1.00  0.00    -0.319 N 
HETATM    2  C   UNL     1      25.880  46.835  52.466  1.00  0.00     0.332 A 
HETATM    3  O   UNL     1      25.419  47.769  53.108  1.00  0.00    -0.246 OA
HETATM    4  N   UNL     1      25.848  46.629  51.100  1.00  0.00    -0.232 N 
HETATM    5  C   UNL     1      26.402  45.401  50.817  1.00  0.00     0.256 A 
HETATM    6  O   UNL     1      26.494  44.825  49.736  1.00  0.00    -0.270 OA
HETATM    7  C   UNL     1      26.945  44.765  52.098  1.00  0.00     0.190 A 
ENDROOT
BRANCH   7   8
HETATM    8  C   UNL     1      26.370  43.364  52.262  1.00  0.00     0.138 C 
BRANCH   8   9
HETATM    9  C   UNL     1      27.241  42.354  51.534  1.00  0.00     0.224 C 
HETATM   10  N   UNL     1      26.606  41.746  50.471  1.00  0.00    -0.327 N 
HETATM   11  H   UNL     1      25.674  42.086  50.229  1.00  0.00     0.169 HD
HETATM   12  O   UNL     1      28.398  42.172  51.899  1.00  0.00    -0.273 OA
BRANCH  10  13
HETATM   13  C   UNL     1      27.120  40.772  49.592  1.00  0.00     0.034 A 
HETATM   14  C   UNL     1      27.857  41.057  48.447  1.00  0.00     0.032 A 
HETATM   15  C   UNL     1      28.326  40.015  47.635  1.00  0.00     0.039 A 
HETATM   16  C   UNL     1      28.063  38.681  47.954  1.00  0.00     0.068 A 
HETATM   17  C   UNL     1      27.328  38.393  49.102  1.00  0.00     0.039 A 
HETATM   18  C   UNL     1      26.862  39.433  49.915  1.00  0.00     0.032 A 
BRANCH  16  19
HETATM   19  O   UNL     1      28.575  37.767  47.077  1.00  0.00    -0.356 OA
HETATM   20  C   UNL     1      27.680  36.776  46.586  1.00  0.00     0.210 C 
ENDBRANCH  16  19
ENDBRANCH  10  13
ENDBRANCH   8   9
ENDBRANCH   7   8
BRANCH   1  21
HETATM   21  C   UNL     1      26.633  45.582  54.510  1.00  0.00     0.133 C 
BRANCH  21  22
HETATM   22  C   UNL     1      27.520  46.640  55.170  1.00  0.00     0.058 C 
BRANCH  22  23
HETATM   23  C   UNL     1      28.651  46.002  55.937  1.00  0.00    -0.057 A 
HETATM   24  C   UNL     1      29.494  45.074  55.316  1.00  0.00     0.010 A 
HETATM   25  C   UNL     1      30.517  44.457  56.042  1.00  0.00     0.037 A 
HETATM   26  C   UNL     1      30.716  44.756  57.391  1.00  0.00     0.068 A 
HETATM   27  C   UNL     1      29.875  45.676  58.015  1.00  0.00     0.037 A 
HETATM   28  C   UNL     1      28.848  46.294  57.292  1.00  0.00     0.010 A 
BRANCH  26  29
HETATM   29  O   UNL     1      31.750  44.081  57.979  1.00  0.00    -0.356 OA
HETATM   30  C   UNL     1      32.262  42.954  57.281  1.00  0.00     0.210 C 
ENDBRANCH  26  29
ENDBRANCH  22  23
ENDBRANCH  21  22
ENDBRANCH   1  21
BRANCH   4  31
HETATM   31  C   UNL     1      25.267  47.517  50.142  1.00  0.00     0.047 A 
HETATM   32  C   UNL     1      26.017  48.531  49.531  1.00  0.00     0.033 A 
HETATM   33  C   UNL     1      25.444  49.400  48.591  1.00  0.00     0.039 A 
HETATM   34  C   UNL     1      24.103  49.290  48.237  1.00  0.00     0.068 A 
HETATM   35  C   UNL     1      23.341  48.290  48.828  1.00  0.00     0.039 A 
HETATM   36  C   UNL     1      23.918  47.416  49.763  1.00  0.00     0.033 A 
BRANCH  34  37
HETATM   37  O   UNL     1      23.668  50.200  47.318  1.00  0.00    -0.356 OA
HETATM   38  C   UNL     1      22.322  50.644  47.440  1.00  0.00     0.210 C 
ENDBRANCH  34  37
ENDBRANCH   4  31
TORSDOF 10
ENDMDL
MODEL 2
REMARK VINA RESULT:      -9.1      3.510      7.683
REMARK  10 active torsions:
REMARK  status: ('A' for Active; 'I' for Inactive)
REMARK    1  A    between atoms: O_2  and  C_3 
REMARK    2  A    between atoms: C_6  and  C_7 
REMARK    3  A    between atoms: C_7  and  C_8 
REMARK    4  A    between atoms: C_8  and  N_9 
REMARK    5  A    between atoms: N_12  and  C_13 
REMARK    6  A    between atoms: C_16  and  O_17 
REMARK    7  A    between atoms: C_23  and  C_24 
REMARK    8  A    between atoms: C_24  and  C_25 
REMARK       I    between atoms: C_25  and  N_26 
REMARK    9  A    between atoms: N_26  and  C_27 
REMARK   10  A    between atoms: C_30  and  O_31 
ROOT
HETATM    1  N   UNL     1      22.177  47.777  48.630  1.00  0.00    -0.319 N 
HETATM    2  C   UNL     1      20.940  48.389  48.454  1.00  0.00     0.332 A 
HETATM    3  O   UNL     1      20.051  47.899  47.771  1.00  0.00    -0.246 OA
HETATM    4  N   UNL     1      20.949  49.600  49.120  1.00  0.00    -0.232 N 
HETATM    5  C   UNL     1      22.189  49.793  49.684  1.00  0.00     0.256 A 
HETATM    6  O   UNL     1      22.617  50.771  50.293  1.00  0.00    -0.270 OA
HETATM    7  C   UNL     1      23.063  48.557  49.464  1.00  0.00     0.190 A 
ENDROOT
BRANCH   7   8
HETATM    8  C   UNL     1      24.384  48.968  48.824  1.00  0.00     0.138 C 
BRANCH   8   9
HETATM    9  C   UNL     1      25.529  48.189  49.449  1.00  0.00     0.224 C 
HETATM   10  N   UNL     1      25.144  46.973  49.974  1.00  0.00    -0.327 N 
HETATM   11  H   UNL     1      24.177  46.684  49.819  1.00  0.00     0.169 HD
HETATM   12  O   UNL     1      26.665  48.652  49.426  1.00  0.00    -0.273 OA
BRANCH  10  13
HETATM   13  C   UNL     1      25.947  46.011  50.619  1.00  0.00     0.034 A 
HETATM   14  C   UNL     1      26.893  45.218  49.976  1.00  0.00     0.032 A 
HETATM   15  C   UNL     1      27.643  44.287  50.707  1.00  0.00     0.039 A 
HETATM   16  C   UNL     1      27.457  44.135  52.083  1.00  0.00     0.068 A 
HETATM   17  C   UNL     1      26.514  44.930  52.729  1.00  0.00     0.039 A 
HETATM   18  C   UNL     1      25.765  45.862  52.000  1.00  0.00     0.032 A 
BRANCH  16  19
HETATM   19  O   UNL     1      28.251  43.191  52.671  1.00  0.00    -0.356 OA
HETATM   20  C   UNL     1      28.058  42.965  54.062  1.00  0.00     0.210 C 
ENDBRANCH  16  19
ENDBRANCH  10  13
ENDBRANCH   8   9
ENDBRANCH   7   8
BRANCH   1  21
HETATM   21  C   UNL     1      22.554  46.517  47.994  1.00  0.00     0.133 C 
BRANCH  21  22
HETATM   22  C   UNL     1      21.846  45.294  48.581  1.00  0.00     0.058 C 
BRANCH  22  23
HETATM   23  C   UNL     1      22.837  44.232  48.986  1.00  0.00    -0.057 A 
HETATM   24  C   UNL     1      22.947  43.837  50.324  1.00  0.00     0.010 A 
HETATM   25  C   UNL     1      23.894  42.880  50.699  1.00  0.00     0.037 A 
HETATM   26  C   UNL     1      24.741  42.304  49.751  1.00  0.00     0.068 A 
HETATM   27  C   UNL     1      24.639  42.698  48.418  1.00  0.00     0.037 A 
HETATM   28  C   UNL     1      23.693  43.658  48.038  1.00  0.00     0.010 A 
BRANCH  26  29
HETATM   29  O   UNL     1      25.619  41.383  50.253  1.00  0.00    -0.356 OA
HETATM   30  C   UNL     1      26.658  40.948  49.386  1.00  0.00     0.210 C 
ENDBRANCH  26  29
ENDBRANCH  22  23
ENDBRANCH  21  22
ENDBRANCH   1  21
BRANCH   4  31
HETATM   31  C   UNL     1      19.868  50.533  49.153  1.00  0.00     0.047 A 
HETATM   32  C   UNL     1      18.717  50.298  49.917  1.00  0.00     0.033 A 
HETATM   33  C   UNL     1      17.658  51.217  49.949  1.00  0.00     0.039 A 
HETATM   34  C   UNL     1      17.710  52.396  49.213  1.00  0.00     0.068 A 
HETATM   35  C   UNL     1      18.842  52.652  48.449  1.00  0.00     0.039 A 
HETATM   36  C   UNL     1      19.905  51.734  48.425  1.00  0.00     0.033 A 
BRANCH  34  37
HETATM   37  O   UNL     1      16.613  53.200  49.324  1.00  0.00    -0.356 OA
HETATM   38  C   UNL     1      15.422  52.598  49.818  1.00  0.00     0.210 C 
ENDBRANCH  34  37
ENDBRANCH   4  31
TORSDOF 10
ENDMDL
MODEL 3
REMARK VINA RESULT:      -9.0      1.593      2.453
REMARK  10 active torsions:
REMARK  status: ('A' for Active; 'I' for Inactive)
REMARK    1  A    between atoms: O_2  and  C_3 
REMARK    2  A    between atoms: C_6  and  C_7 
REMARK    3  A    between atoms: C_7  and  C_8 
REMARK    4  A    between atoms: C_8  and  N_9 
REMARK    5  A    between atoms: N_12  and  C_13 
REMARK    6  A    between atoms: C_16  and  O_17 
REMARK    7  A    between atoms: C_23  and  C_24 
REMARK    8  A    between atoms: C_24  and  C_25 
REMARK       I    between atoms: C_25  and  N_26 
REMARK    9  A    between atoms: N_26  and  C_27 
REMARK   10  A    between atoms: C_30  and  O_31 
ROOT
HETATM    1  N   UNL     1      25.655  45.296  51.392  1.00  0.00    -0.319 N 
HETATM    2  C   UNL     1      25.143  46.568  51.158  1.00  0.00     0.332 A 
HETATM    3  O   UNL     1      25.265  47.487  51.956  1.00  0.00    -0.246 OA
HETATM    4  N   UNL     1      24.472  46.557  49.950  1.00  0.00    -0.232 N 
HETATM    5  C   UNL     1      24.509  45.286  49.426  1.00  0.00     0.256 A 
HETATM    6  O   UNL     1      23.972  44.852  48.410  1.00  0.00    -0.270 OA
HETATM    7  C   UNL     1      25.368  44.380  50.311  1.00  0.00     0.190 A 
ENDROOT
BRANCH   7   8
HETATM    8  C   UNL     1      24.578  43.134  50.692  1.00  0.00     0.138 C 
BRANCH   8   9
HETATM    9  C   UNL     1      24.999  41.963  49.820  1.00  0.00     0.224 C 
HETATM   10  N   UNL     1      26.301  41.561  50.032  1.00  0.00    -0.327 N 
HETATM   11  H   UNL     1      26.811  42.015  50.792  1.00  0.00     0.169 HD
HETATM   12  O   UNL     1      24.193  41.460  49.043  1.00  0.00    -0.273 OA
BRANCH  10  13
HETATM   13  C   UNL     1      27.003  40.516  49.399  1.00  0.00     0.034 A 
HETATM   14  C   UNL     1      27.048  39.205  49.861  1.00  0.00     0.032 A 
HETATM   15  C   UNL     1      27.776  38.235  49.158  1.00  0.00     0.039 A 
HETATM   16  C   UNL     1      28.468  38.563  47.991  1.00  0.00     0.068 A 
HETATM   17  C   UNL     1      28.422  39.874  47.523  1.00  0.00     0.039 A 
HETATM   18  C   UNL     1      27.693  40.843  48.224  1.00  0.00     0.032 A 
BRANCH  16  19
HETATM   19  O   UNL     1      29.138  37.524  47.408  1.00  0.00    -0.356 OA
HETATM   20  C   UNL     1      28.774  37.192  46.073  1.00  0.00     0.210 C 
ENDBRANCH  16  19
ENDBRANCH  10  13
ENDBRANCH   8   9
ENDBRANCH   7   8
BRANCH   1  21
HETATM   21  C   UNL     1      26.353  44.918  52.618  1.00  0.00     0.133 C 
BRANCH  21  22
HETATM   22  C   UNL     1      27.600  44.063  52.380  1.00  0.00     0.058 C 
BRANCH  22  23
HETATM   23  C   UNL     1      28.533  44.117  53.563  1.00  0.00    -0.057 A 
HETATM   24  C   UNL     1      28.418  45.141  54.511  1.00  0.00     0.010 A 
HETATM   25  C   UNL     1      29.309  45.209  55.584  1.00  0.00     0.037 A 
HETATM   26  C   UNL     1      30.324  44.262  55.731  1.00  0.00     0.068 A 
HETATM   27  C   UNL     1      30.447  43.243  54.787  1.00  0.00     0.037 A 
HETATM   28  C   UNL     1      29.556  43.173  53.708  1.00  0.00     0.010 A 
BRANCH  26  29
HETATM   29  O   UNL     1      31.125  44.446  56.825  1.00  0.00    -0.356 OA
HETATM   30  C   UNL     1      31.919  43.340  57.233  1.00  0.00     0.210 C 
ENDBRANCH  26  29
ENDBRANCH  22  23
ENDBRANCH  21  22
ENDBRANCH   1  21
BRANCH   4  31
HETATM   31  C   UNL     1      23.786  47.672  49.375  1.00  0.00     0.047 A 
HETATM   32  C   UNL     1      22.401  47.652  49.162  1.00  0.00     0.033 A 
HETATM   33  C   UNL     1      21.731  48.748  48.599  1.00  0.00     0.039 A 
HETATM   34  C   UNL     1      22.423  49.894  48.222  1.00  0.00     0.068 A 
HETATM   35  C   UNL     1      23.797  49.938  48.426  1.00  0.00     0.039 A 
HETATM   36  C   UNL     1      24.464  48.842  48.997  1.00  0.00     0.033 A 
BRANCH  34  37
HETATM   37  O   UNL     1      21.655  50.884  47.680  1.00  0.00    -0.356 OA
HETATM   38  C   UNL     1      20.590  51.384  48.480  1.00  0.00     0.210 C 
ENDBRANCH  34  37
ENDBRANCH   4  31
TORSDOF 10
ENDMDL
MODEL 4
REMARK VINA RESULT:      -8.9      1.620      7.666
REMARK  10 active torsions:
REMARK  status: ('A' for Active; 'I' for Inactive)
REMARK    1  A    between atoms: O_2  and  C_3 
REMARK    2  A    between atoms: C_6  and  C_7 
REMARK    3  A    between atoms: C_7  and  C_8 
REMARK    4  A    between atoms: C_8  and  N_9 
REMARK    5  A    between atoms: N_12  and  C_13 
REMARK    6  A    between atoms: C_16  and  O_17 
REMARK    7  A    between atoms: C_23  and  C_24 
REMARK    8  A    between atoms: C_24  and  C_25 
REMARK       I    between atoms: C_25  and  N_26 
REMARK    9  A    between atoms: N_26  and  C_27 
REMARK   10  A    between atoms: C_30  and  O_31 
ROOT
HETATM    1  N   UNL     1      27.603  41.966  51.656  1.00  0.00    -0.319 N 
HETATM    2  C   UNL     1      27.758  41.001  50.666  1.00  0.00     0.332 A 
HETATM    3  O   UNL     1      28.406  39.977  50.836  1.00  0.00    -0.246 OA
HETATM    4  N   UNL     1      27.121  41.439  49.521  1.00  0.00    -0.232 N 
HETATM    5  C   UNL     1      26.595  42.689  49.749  1.00  0.00     0.256 A 
HETATM    6  O   UNL     1      26.020  43.441  48.965  1.00  0.00    -0.270 OA
HETATM    7  C   UNL     1      26.810  43.089  51.210  1.00  0.00     0.190 A 
ENDROOT
BRANCH   7   8
HETATM    8  C   UNL     1      27.495  44.449  51.276  1.00  0.00     0.138 C 
BRANCH   8   9
HETATM    9  C   UNL     1      26.461  45.558  51.176  1.00  0.00     0.224 C 
HETATM   10  N   UNL     1      26.574  46.311  50.025  1.00  0.00    -0.327 N 
HETATM   11  H   UNL     1      27.262  46.005  49.335  1.00  0.00     0.169 HD
HETATM   12  O   UNL     1      25.621  45.691  52.060  1.00  0.00    -0.273 OA
BRANCH  10  13
HETATM   13  C   UNL     1      25.784  47.405  49.621  1.00  0.00     0.034 A 
HETATM   14  C   UNL     1      24.392  47.416  49.629  1.00  0.00     0.032 A 
HETATM   15  C   UNL     1      23.696  48.556  49.206  1.00  0.00     0.039 A 
HETATM   16  C   UNL     1      24.377  49.694  48.770  1.00  0.00     0.068 A 
HETATM   17  C   UNL     1      25.770  49.687  48.764  1.00  0.00     0.039 A 
HETATM   18  C   UNL     1      26.467  48.550  49.188  1.00  0.00     0.032 A 
BRANCH  16  19
HETATM   19  O   UNL     1      23.576  50.732  48.383  1.00  0.00    -0.356 OA
HETATM   20  C   UNL     1      22.266  50.774  48.935  1.00  0.00     0.210 C 
ENDBRANCH  16  19
ENDBRANCH  10  13
ENDBRANCH   8   9
ENDBRANCH   7   8
BRANCH   1  21
HETATM   21  C   UNL     1      28.220  41.875  52.977  1.00  0.00     0.133 C 
BRANCH  21  22
HETATM   22  C   UNL     1      29.622  42.484  53.046  1.00  0.00     0.058 C 
BRANCH  22  23
HETATM   23  C   UNL     1      29.771  43.374  54.255  1.00  0.00    -0.057 A 
HETATM   24  C   UNL     1      28.876  44.428  54.474  1.00  0.00     0.010 A 
HETATM   25  C   UNL     1      29.042  45.273  55.574  1.00  0.00     0.037 A 
HETATM   26  C   UNL     1      30.094  45.081  56.471  1.00  0.00     0.068 A 
HETATM   27  C   UNL     1      30.992  44.036  56.253  1.00  0.00     0.037 A 
HETATM   28  C   UNL     1      30.830  43.189  55.150  1.00  0.00     0.010 A 
BRANCH  26  29
HETATM   29  O   UNL     1      30.139  45.979  57.501  1.00  0.00    -0.356 OA
HETATM   30  C   UNL     1      28.907  46.282  58.143  1.00  0.00     0.210 C 
ENDBRANCH  26  29
ENDBRANCH  22  23
ENDBRANCH  21  22
ENDBRANCH   1  21
BRANCH   4  31
HETATM   31  C   UNL     1      27.080  40.736  48.277  1.00  0.00     0.047 A 
HETATM   32  C   UNL     1      28.012  40.986  47.260  1.00  0.00     0.033 A 
HETATM   33  C   UNL     1      27.969  40.294  46.041  1.00  0.00     0.039 A 
HETATM   34  C   UNL     1      26.991  39.336  45.795  1.00  0.00     0.068 A 
HETATM   35  C   UNL     1      26.057  39.070  46.789  1.00  0.00     0.039 A 
HETATM   36  C   UNL     1      26.107  39.758  48.012  1.00  0.00     0.033 A 
BRANCH  34  37
HETATM   37  O   UNL     1      27.056  38.741  44.568  1.00  0.00    -0.356 OA
HETATM   38  C   UNL     1      27.799  37.531  44.479  1.00  0.00     0.210 C 
ENDBRANCH  34  37
ENDBRANCH   4  31
TORSDOF 10
ENDMDL
MODEL 5
REMARK VINA RESULT:      -8.9      4.393     11.370
REMARK  10 active torsions:
REMARK  status: ('A' for Active; 'I' for Inactive)
REMARK    1  A    between atoms: O_2  and  C_3 
REMARK    2  A    between atoms: C_6  and  C_7 
REMARK    3  A    between atoms: C_7  and  C_8 
REMARK    4  A    between atoms: C_8  and  N_9 
REMARK    5  A    between atoms: N_12  and  C_13 
REMARK    6  A    between atoms: C_16  and  O_17 
REMARK    7  A    between atoms: C_23  and  C_24 
REMARK    8  A    between atoms: C_24  and  C_25 
REMARK       I    between atoms: C_25  and  N_26 
REMARK    9  A    between atoms: N_26  and  C_27 
REMARK   10  A    between atoms: C_30  and  O_31 
ROOT
HETATM    1  N   UNL     1      23.123  48.338  48.649  1.00  0.00    -0.319 N 
HETATM    2  C   UNL     1      24.259  48.024  49.389  1.00  0.00     0.332 A 
HETATM    3  O   UNL     1      25.130  48.844  49.643  1.00  0.00    -0.246 OA
HETATM    4  N   UNL     1      24.221  46.679  49.702  1.00  0.00    -0.232 N 
HETATM    5  C   UNL     1      23.099  46.117  49.139  1.00  0.00     0.256 A 
HETATM    6  O   UNL     1      22.746  44.939  49.128  1.00  0.00    -0.270 OA
HETATM    7  C   UNL     1      22.251  47.200  48.468  1.00  0.00     0.190 A 
ENDROOT
BRANCH   7   8
HETATM    8  C   UNL     1      21.965  46.809  47.024  1.00  0.00     0.138 C 
BRANCH   8   9
HETATM    9  C   UNL     1      20.467  46.818  46.769  1.00  0.00     0.224 C 
HETATM   10  N   UNL     1      19.852  47.993  47.150  1.00  0.00    -0.327 N 
HETATM   11  H   UNL     1      20.456  48.750  47.474  1.00  0.00     0.169 HD
HETATM   12  O   UNL     1      19.931  45.846  46.245  1.00  0.00    -0.273 OA
BRANCH  10  13
HETATM   13  C   UNL     1      18.488  48.332  47.055  1.00  0.00     0.034 A 
HETATM   14  C   UNL     1      17.486  47.790  47.855  1.00  0.00     0.032 A 
HETATM   15  C   UNL     1      16.155  48.193  47.683  1.00  0.00     0.039 A 
HETATM   16  C   UNL     1      15.809  49.136  46.714  1.00  0.00     0.068 A 
HETATM   17  C   UNL     1      16.810  49.682  45.914  1.00  0.00     0.039 A 
HETATM   18  C   UNL     1      18.140  49.282  46.086  1.00  0.00     0.032 A 
BRANCH  16  19
HETATM   19  O   UNL     1      14.476  49.435  46.651  1.00  0.00    -0.356 OA
HETATM   20  C   UNL     1      13.696  48.700  45.717  1.00  0.00     0.210 C 
ENDBRANCH  16  19
ENDBRANCH  10  13
ENDBRANCH   8   9
ENDBRANCH   7   8
BRANCH   1  21
HETATM   21  C   UNL     1      22.872  49.658  48.074  1.00  0.00     0.133 C 
BRANCH  21  22
HETATM   22  C   UNL     1      22.478  50.716  49.107  1.00  0.00     0.058 C 
BRANCH  22  23
HETATM   23  C   UNL     1      20.979  50.837  49.220  1.00  0.00    -0.057 A 
HETATM   24  C   UNL     1      20.282  51.764  48.436  1.00  0.00     0.010 A 
HETATM   25  C   UNL     1      18.898  51.899  48.572  1.00  0.00     0.037 A 
HETATM   26  C   UNL     1      18.190  51.116  49.484  1.00  0.00     0.068 A 
HETATM   27  C   UNL     1      18.881  50.195  50.271  1.00  0.00     0.037 A 
HETATM   28  C   UNL     1      20.268  50.058  50.139  1.00  0.00     0.010 A 
BRANCH  26  29
HETATM   29  O   UNL     1      16.843  51.350  49.515  1.00  0.00    -0.356 OA
HETATM   30  C   UNL     1      16.338  52.317  48.603  1.00  0.00     0.210 C 
ENDBRANCH  26  29
ENDBRANCH  22  23
ENDBRANCH  21  22
ENDBRANCH   1  21
BRANCH   4  31
HETATM   31  C   UNL     1      25.225  45.971  50.432  1.00  0.00     0.047 A 
HETATM   32  C   UNL     1      26.263  45.289  49.783  1.00  0.00     0.033 A 
HETATM   33  C   UNL     1      27.248  44.597  50.502  1.00  0.00     0.039 A 
HETATM   34  C   UNL     1      27.224  44.557  51.893  1.00  0.00     0.068 A 
HETATM   35  C   UNL     1      26.206  45.229  52.559  1.00  0.00     0.039 A 
HETATM   36  C   UNL     1      25.226  45.928  51.836  1.00  0.00     0.033 A 
BRANCH  34  37
HETATM   37  O   UNL     1      28.235  43.845  52.471  1.00  0.00    -0.356 OA
HETATM   38  C   UNL     1      27.892  43.036  53.590  1.00  0.00     0.210 C 
ENDBRANCH  34  37
ENDBRANCH   4  31
TORSDOF 10
ENDMDL
MODEL 6
REMARK VINA RESULT:      -8.8      2.263      3.434
REMARK  10 active torsions:
REMARK  status: ('A' for Active; 'I' for Inactive)
REMARK    1  A    between atoms: O_2  and  C_3 
REMARK    2  A    between atoms: C_6  and  C_7 
REMARK    3  A    between atoms: C_7  and  C_8 
REMARK    4  A    between atoms: C_8  and  N_9 
REMARK    5  A    between atoms: N_12  and  C_13 
REMARK    6  A    between atoms: C_16  and  O_17 
REMARK    7  A    between atoms: C_23  and  C_24 
REMARK    8  A    between atoms: C_24  and  C_25 
REMARK       I    between atoms: C_25  and  N_26 
REMARK    9  A    between atoms: N_26  and  C_27 
REMARK   10  A    between atoms: C_30  and  O_31 
ROOT
HETATM    1  N   UNL     1      24.978  46.043  49.997  1.00  0.00    -0.319 N 
HETATM    2  C   UNL     1      24.365  47.286  49.867  1.00  0.00     0.332 A 
HETATM    3  O   UNL     1      24.782  48.290  50.429  1.00  0.00    -0.246 OA
HETATM    4  N   UNL     1      23.241  47.142  49.077  1.00  0.00    -0.232 N 
HETATM    5  C   UNL     1      23.100  45.818  48.731  1.00  0.00     0.256 A 
HETATM    6  O   UNL     1      22.196  45.276  48.100  1.00  0.00    -0.270 OA
HETATM    7  C   UNL     1      24.291  45.011  49.253  1.00  0.00     0.190 A 
ENDROOT
BRANCH   7   8
HETATM    8  C   UNL     1      23.791  43.828  50.072  1.00  0.00     0.138 C 
BRANCH   8   9
HETATM    9  C   UNL     1      24.530  42.564  49.665  1.00  0.00     0.224 C 
HETATM   10  N   UNL     1      25.874  42.590  49.976  1.00  0.00    -0.327 N 
HETATM   11  H   UNL     1      26.213  43.392  50.510  1.00  0.00     0.169 HD
HETATM   12  O   UNL     1      23.916  41.640  49.140  1.00  0.00    -0.273 OA
BRANCH  10  13
HETATM   13  C   UNL     1      26.841  41.592  49.739  1.00  0.00     0.034 A 
HETATM   14  C   UNL     1      27.352  40.746  50.719  1.00  0.00     0.032 A 
HETATM   15  C   UNL     1      28.314  39.783  50.383  1.00  0.00     0.039 A 
HETATM   16  C   UNL     1      28.776  39.655  49.072  1.00  0.00     0.068 A 
HETATM   17  C   UNL     1      28.263  40.499  48.090  1.00  0.00     0.039 A 
HETATM   18  C   UNL     1      27.301  41.459  48.423  1.00  0.00     0.032 A 
BRANCH  16  19
HETATM   19  O   UNL     1      29.715  38.680  48.884  1.00  0.00    -0.356 OA
HETATM   20  C   UNL     1      29.972  37.815  49.984  1.00  0.00     0.210 C 
ENDBRANCH  16  19
ENDBRANCH  10  13
ENDBRANCH   8   9
ENDBRANCH   7   8
BRANCH   1  21
HETATM   21  C   UNL     1      26.149  45.803  50.835  1.00  0.00     0.133 C 
BRANCH  21  22
HETATM   22  C   UNL     1      25.818  45.613  52.318  1.00  0.00     0.058 C 
BRANCH  22  23
HETATM   23  C   UNL     1      26.990  45.032  53.068  1.00  0.00    -0.057 A 
HETATM   24  C   UNL     1      27.312  45.494  54.349  1.00  0.00     0.010 A 
HETATM   25  C   UNL     1      28.422  44.979  55.024  1.00  0.00     0.037 A 
HETATM   26  C   UNL     1      29.224  43.999  54.437  1.00  0.00     0.068 A 
HETATM   27  C   UNL     1      28.911  43.540  53.158  1.00  0.00     0.037 A 
HETATM   28  C   UNL     1      27.801  44.055  52.478  1.00  0.00     0.010 A 
BRANCH  26  29
HETATM   29  O   UNL     1      30.276  43.584  55.206  1.00  0.00    -0.356 OA
HETATM   30  C   UNL     1      30.723  44.477  56.218  1.00  0.00     0.210 C 
ENDBRANCH  26  29
ENDBRANCH  22  23
ENDBRANCH  21  22
ENDBRANCH   1  21
BRANCH   4  31
HETATM   31  C   UNL     1      22.331  48.190  48.735  1.00  0.00     0.047 A 
HETATM   32  C   UNL     1      22.751  49.328  48.031  1.00  0.00     0.033 A 
HETATM   33  C   UNL     1      21.856  50.353  47.695  1.00  0.00     0.039 A 
HETATM   34  C   UNL     1      20.515  50.281  48.059  1.00  0.00     0.068 A 
HETATM   35  C   UNL     1      20.075  49.162  48.755  1.00  0.00     0.039 A 
HETATM   36  C   UNL     1      20.972  48.132  49.083  1.00  0.00     0.033 A 
BRANCH  34  37
HETATM   37  O   UNL     1      19.751  51.347  47.679  1.00  0.00    -0.356 OA
HETATM   38  C   UNL     1      19.272  52.196  48.715  1.00  0.00     0.210 C 
ENDBRANCH  34  37
ENDBRANCH   4  31
TORSDOF 10
ENDMDL
MODEL 7
REMARK VINA RESULT:      -8.6      2.558      8.051
REMARK  10 active torsions:
REMARK  status: ('A' for Active; 'I' for Inactive)
REMARK    1  A    between atoms: O_2  and  C_3 
REMARK    2  A    between atoms: C_6  and  C_7 
REMARK    3  A    between atoms: C_7  and  C_8 
REMARK    4  A    between atoms: C_8  and  N_9 
REMARK    5  A    between atoms: N_12  and  C_13 
REMARK    6  A    between atoms: C_16  and  O_17 
REMARK    7  A    between atoms: C_23  and  C_24 
REMARK    8  A    between atoms: C_24  and  C_25 
REMARK       I    between atoms: C_25  and  N_26 
REMARK    9  A    between atoms: N_26  and  C_27 
REMARK   10  A    between atoms: C_30  and  O_31 
ROOT
HETATM    1  N   UNL     1      25.640  43.487  51.208  1.00  0.00    -0.319 N 
HETATM    2  C   UNL     1      25.549  42.305  50.481  1.00  0.00     0.332 A 
HETATM    3  O   UNL     1      26.113  41.274  50.821  1.00  0.00    -0.246 OA
HETATM    4  N   UNL     1      24.791  42.541  49.350  1.00  0.00    -0.232 N 
HETATM    5  C   UNL     1      24.429  43.868  49.320  1.00  0.00     0.256 A 
HETATM    6  O   UNL     1      23.817  44.483  48.449  1.00  0.00    -0.270 OA
HETATM    7  C   UNL     1      24.901  44.568  50.595  1.00  0.00     0.190 A 
ENDROOT
BRANCH   7   8
HETATM    8  C   UNL     1      25.716  45.804  50.232  1.00  0.00     0.138 C 
BRANCH   8   9
HETATM    9  C   UNL     1      24.868  47.053  50.394  1.00  0.00     0.224 C 
HETATM   10  N   UNL     1      24.155  47.384  49.259  1.00  0.00    -0.327 N 
HETATM   11  H   UNL     1      24.198  46.730  48.476  1.00  0.00     0.169 HD
HETATM   12  O   UNL     1      24.849  47.643  51.469  1.00  0.00    -0.273 OA
BRANCH  10  13
HETATM   13  C   UNL     1      23.280  48.471  49.067  1.00  0.00     0.034 A 
HETATM   14  C   UNL     1      21.892  48.369  49.053  1.00  0.00     0.032 A 
HETATM   15  C   UNL     1      21.106  49.512  48.854  1.00  0.00     0.039 A 
HETATM   16  C   UNL     1      21.693  50.765  48.666  1.00  0.00     0.068 A 
HETATM   17  C   UNL     1      23.081  50.870  48.684  1.00  0.00     0.039 A 
HETATM   18  C   UNL     1      23.868  49.730  48.885  1.00  0.00     0.032 A 
BRANCH  16  19
HETATM   19  O   UNL     1      20.811  51.793  48.481  1.00  0.00    -0.356 OA
HETATM   20  C   UNL     1      19.443  51.443  48.309  1.00  0.00     0.210 C 
ENDBRANCH  16  19
ENDBRANCH  10  13
ENDBRANCH   8   9
ENDBRANCH   7   8
BRANCH   1  21
HETATM   21  C   UNL     1      26.439  43.630  52.423  1.00  0.00     0.133 C 
BRANCH  21  22
HETATM   22  C   UNL     1      27.948  43.577  52.178  1.00  0.00     0.058 C 
BRANCH  22  23
HETATM   23  C   UNL     1      28.716  43.877  53.441  1.00  0.00    -0.057 A 
HETATM   24  C   UNL     1      28.377  44.980  54.232  1.00  0.00     0.010 A 
HETATM   25  C   UNL     1      29.116  45.275  55.381  1.00  0.00     0.037 A 
HETATM   26  C   UNL     1      30.199  44.479  55.758  1.00  0.00     0.068 A 
HETATM   27  C   UNL     1      30.544  43.382  54.969  1.00  0.00     0.037 A 
HETATM   28  C   UNL     1      29.807  43.084  53.817  1.00  0.00     0.010 A 
BRANCH  26  29
HETATM   29  O   UNL     1      30.834  44.880  56.901  1.00  0.00    -0.356 OA
HETATM   30  C   UNL     1      31.589  43.896  57.595  1.00  0.00     0.210 C 
ENDBRANCH  26  29
ENDBRANCH  22  23
ENDBRANCH  21  22
ENDBRANCH   1  21
BRANCH   4  31
HETATM   31  C   UNL     1      24.493  41.576  48.338  1.00  0.00     0.047 A 
HETATM   32  C   UNL     1      23.191  41.098  48.139  1.00  0.00     0.033 A 
HETATM   33  C   UNL     1      22.901  40.153  47.144  1.00  0.00     0.039 A 
HETATM   34  C   UNL     1      23.904  39.649  46.322  1.00  0.00     0.068 A 
HETATM   35  C   UNL     1      25.203  40.110  46.499  1.00  0.00     0.039 A 
HETATM   36  C   UNL     1      25.488  41.063  47.490  1.00  0.00     0.033 A 
BRANCH  34  37
HETATM   37  O   UNL     1      23.492  38.730  45.399  1.00  0.00    -0.356 OA
HETATM   38  C   UNL     1      24.394  37.671  45.101  1.00  0.00     0.210 C 
ENDBRANCH  34  37
ENDBRANCH   4  31
TORSDOF 10
ENDMDL
MODEL 8
REMARK VINA RESULT:      -8.6      2.133      7.996
REMARK  10 active torsions:
REMARK  status: ('A' for Active; 'I' for Inactive)
REMARK    1  A    between atoms: O_2  and  C_3 
REMARK    2  A    between atoms: C_6  and  C_7 
REMARK    3  A    between atoms: C_7  and  C_8 
REMARK    4  A    between atoms: C_8  and  N_9 
REMARK    5  A    between atoms: N_12  and  C_13 
REMARK    6  A    between atoms: C_16  and  O_17 
REMARK    7  A    between atoms: C_23  and  C_24 
REMARK    8  A    between atoms: C_24  and  C_25 
REMARK       I    between atoms: C_25  and  N_26 
REMARK    9  A    between atoms: N_26  and  C_27 
REMARK   10  A    between atoms: C_30  and  O_31 
ROOT
HETATM    1  N   UNL     1      24.746  46.595  50.474  1.00  0.00    -0.319 N 
HETATM    2  C   UNL     1      25.734  46.923  51.397  1.00  0.00     0.332 A 
HETATM    3  O   UNL     1      26.431  47.924  51.293  1.00  0.00    -0.246 OA
HETATM    4  N   UNL     1      25.794  45.925  52.350  1.00  0.00    -0.232 N 
HETATM    5  C   UNL     1      24.888  44.941  52.030  1.00  0.00     0.256 A 
HETATM    6  O   UNL     1      24.688  43.863  52.585  1.00  0.00    -0.270 OA
HETATM    7  C   UNL     1      24.073  45.359  50.804  1.00  0.00     0.190 A 
ENDROOT
BRANCH   7   8
HETATM    8  C   UNL     1      24.139  44.267  49.745  1.00  0.00     0.138 C 
BRANCH   8   9
HETATM    9  C   UNL     1      25.495  43.583  49.786  1.00  0.00     0.224 C 
HETATM   10  N   UNL     1      25.456  42.319  50.337  1.00  0.00    -0.327 N 
HETATM   11  H   UNL     1      24.537  41.943  50.576  1.00  0.00     0.169 HD
HETATM   12  O   UNL     1      26.480  44.153  49.328  1.00  0.00    -0.273 OA
BRANCH  10  13
HETATM   13  C   UNL     1      26.523  41.418  50.526  1.00  0.00     0.034 A 
HETATM   14  C   UNL     1      26.815  40.356  49.675  1.00  0.00     0.032 A 
HETATM   15  C   UNL     1      27.901  39.514  49.949  1.00  0.00     0.039 A 
HETATM   16  C   UNL     1      28.705  39.720  51.072  1.00  0.00     0.068 A 
HETATM   17  C   UNL     1      28.418  40.785  51.923  1.00  0.00     0.039 A 
HETATM   18  C   UNL     1      27.334  41.628  51.649  1.00  0.00     0.032 A 
BRANCH  16  19
HETATM   19  O   UNL     1      29.727  38.825  51.222  1.00  0.00    -0.356 OA
HETATM   20  C   UNL     1      29.755  37.725  50.320  1.00  0.00     0.210 C 
ENDBRANCH  16  19
ENDBRANCH  10  13
ENDBRANCH   8   9
ENDBRANCH   7   8
BRANCH   1  21
HETATM   21  C   UNL     1      24.463  47.385  49.278  1.00  0.00     0.133 C 
BRANCH  21  22
HETATM   22  C   UNL     1      23.046  47.190  48.731  1.00  0.00     0.058 C 
BRANCH  22  23
HETATM   23  C   UNL     1      22.180  48.389  49.022  1.00  0.00    -0.057 A 
HETATM   24  C   UNL     1      20.792  48.251  49.137  1.00  0.00     0.010 A 
HETATM   25  C   UNL     1      19.991  49.372  49.368  1.00  0.00     0.037 A 
HETATM   26  C   UNL     1      20.556  50.642  49.490  1.00  0.00     0.068 A 
HETATM   27  C   UNL     1      21.938  50.786  49.371  1.00  0.00     0.037 A 
HETATM   28  C   UNL     1      22.744  49.665  49.137  1.00  0.00     0.010 A 
BRANCH  26  29
HETATM   29  O   UNL     1      19.659  51.649  49.715  1.00  0.00    -0.356 OA
HETATM   30  C   UNL     1      19.204  52.370  48.576  1.00  0.00     0.210 C 
ENDBRANCH  26  29
ENDBRANCH  22  23
ENDBRANCH  21  22
ENDBRANCH   1  21
BRANCH   4  31
HETATM   31  C   UNL     1      26.704  45.888  53.452  1.00  0.00     0.047 A 
HETATM   32  C   UNL     1      26.717  46.892  54.430  1.00  0.00     0.033 A 
HETATM   33  C   UNL     1      27.610  46.851  55.510  1.00  0.00     0.039 A 
HETATM   34  C   UNL     1      28.524  45.812  55.645  1.00  0.00     0.068 A 
HETATM   35  C   UNL     1      28.530  44.804  54.689  1.00  0.00     0.039 A 
HETATM   36  C   UNL     1      27.629  44.842  53.612  1.00  0.00     0.033 A 
BRANCH  34  37
HETATM   37  O   UNL     1      29.342  45.895  56.735  1.00  0.00    -0.356 OA
HETATM   38  C   UNL     1      30.543  45.134  56.697  1.00  0.00     0.210 C 
ENDBRANCH  34  37
ENDBRANCH   4  31
TORSDOF 10
ENDMDL
MODEL 9
REMARK VINA RESULT:      -8.5      3.597      8.976
REMARK  10 active torsions:
REMARK  status: ('A' for Active; 'I' for Inactive)
REMARK    1  A    between atoms: O_2  and  C_3 
REMARK    2  A    between atoms: C_6  and  C_7 
REMARK    3  A    between atoms: C_7  and  C_8 
REMARK    4  A    between atoms: C_8  and  N_9 
REMARK    5  A    between atoms: N_12  and  C_13 
REMARK    6  A    between atoms: C_16  and  O_17 
REMARK    7  A    between atoms: C_23  and  C_24 
REMARK    8  A    between atoms: C_24  and  C_25 
REMARK       I    between atoms: C_25  and  N_26 
REMARK    9  A    between atoms: N_26  and  C_27 
REMARK   10  A    between atoms: C_30  and  O_31 
ROOT
HETATM    1  N   UNL     1      24.837  46.456  50.155  1.00  0.00    -0.319 N 
HETATM    2  C   UNL     1      24.857  45.143  49.695  1.00  0.00     0.332 A 
HETATM    3  O   UNL     1      25.742  44.352  49.992  1.00  0.00    -0.246 OA
HETATM    4  N   UNL     1      23.778  44.955  48.853  1.00  0.00    -0.232 N 
HETATM    5  C   UNL     1      23.089  46.140  48.732  1.00  0.00     0.256 A 
HETATM    6  O   UNL     1      22.120  46.403  48.024  1.00  0.00    -0.270 OA
HETATM    7  C   UNL     1      23.701  47.197  49.654  1.00  0.00     0.190 A 
ENDROOT
BRANCH   7   8
HETATM    8  C   UNL     1      24.031  48.450  48.853  1.00  0.00     0.138 C 
BRANCH   8   9
HETATM    9  C   UNL     1      23.081  49.574  49.230  1.00  0.00     0.224 C 
HETATM   10  N   UNL     1      21.757  49.283  48.973  1.00  0.00    -0.327 N 
HETATM   11  H   UNL     1      21.543  48.339  48.648  1.00  0.00     0.169 HD
HETATM   12  O   UNL     1      23.521  50.602  49.734  1.00  0.00    -0.273 OA
BRANCH  10  13
HETATM   13  C   UNL     1      20.627  50.095  49.200  1.00  0.00     0.034 A 
HETATM   14  C   UNL     1      19.584  49.766  50.060  1.00  0.00     0.032 A 
HETATM   15  C   UNL     1      18.502  50.643  50.218  1.00  0.00     0.039 A 
HETATM   16  C   UNL     1      18.447  51.851  49.521  1.00  0.00     0.068 A 
HETATM   17  C   UNL     1      19.492  52.183  48.662  1.00  0.00     0.039 A 
HETATM   18  C   UNL     1      20.575  51.310  48.505  1.00  0.00     0.032 A 
BRANCH  16  19
HETATM   19  O   UNL     1      17.335  52.608  49.766  1.00  0.00    -0.356 OA
HETATM   20  C   UNL     1      16.127  52.198  49.136  1.00  0.00     0.210 C 
ENDBRANCH  16  19
ENDBRANCH  10  13
ENDBRANCH   8   9
ENDBRANCH   7   8
BRANCH   1  21
HETATM   21  C   UNL     1      25.878  47.032  51.002  1.00  0.00     0.133 C 
BRANCH  21  22
HETATM   22  C   UNL     1      25.492  47.118  52.481  1.00  0.00     0.058 C 
BRANCH  22  23
HETATM   23  C   UNL     1      26.553  46.502  53.358  1.00  0.00    -0.057 A 
HETATM   24  C   UNL     1      27.220  47.275  54.315  1.00  0.00     0.010 A 
HETATM   25  C   UNL     1      28.229  46.708  55.098  1.00  0.00     0.037 A 
HETATM   26  C   UNL     1      28.586  45.368  54.943  1.00  0.00     0.068 A 
HETATM   27  C   UNL     1      27.928  44.594  53.987  1.00  0.00     0.037 A 
HETATM   28  C   UNL     1      26.918  45.160  53.198  1.00  0.00     0.010 A 
BRANCH  26  29
HETATM   29  O   UNL     1      29.587  44.942  55.772  1.00  0.00    -0.356 OA
HETATM   30  C   UNL     1      30.355  43.830  55.333  1.00  0.00     0.210 C 
ENDBRANCH  26  29
ENDBRANCH  22  23
ENDBRANCH  21  22
ENDBRANCH   1  21
BRANCH   4  31
HETATM   31  C   UNL     1      23.470  43.743  48.161  1.00  0.00     0.047 A 
HETATM   32  C   UNL     1      23.115  42.574  48.848  1.00  0.00     0.033 A 
HETATM   33  C   UNL     1      22.811  41.387  48.166  1.00  0.00     0.039 A 
HETATM   34  C   UNL     1      22.862  41.326  46.777  1.00  0.00     0.068 A 
HETATM   35  C   UNL     1      23.209  42.473  46.074  1.00  0.00     0.039 A 
HETATM   36  C   UNL     1      23.504  43.663  46.759  1.00  0.00     0.033 A 
BRANCH  34  37
HETATM   37  O   UNL     1      22.552  40.111  46.237  1.00  0.00    -0.356 OA
HETATM   38  C   UNL     1      23.515  39.530  45.366  1.00  0.00     0.210 C 
ENDBRANCH  34  37
ENDBRANCH   4  31
TORSDOF 10
ENDMDL
MODEL 10
REMARK VINA RESULT:      -8.2      1.900      8.297
REMARK  10 active torsions:
REMARK  status: ('A' for Active; 'I' for Inactive)
REMARK    1  A    between atoms: O_2  and  C_3 
REMARK    2  A    between atoms: C_6  and  C_7 
REMARK    3  A    between atoms: C_7  and  C_8 
REMARK    4  A    between atoms: C_8  and  N_9 
REMARK    5  A    between atoms: N_12  and  C_13 
REMARK    6  A    between atoms: C_16  and  O_17 
REMARK    7  A    between atoms: C_23  and  C_24 
REMARK    8  A    between atoms: C_24  and  C_25 
REMARK       I    between atoms: C_25  and  N_26 
REMARK    9  A    between atoms: N_26  and  C_27 
REMARK   10  A    between atoms: C_30  and  O_31 
ROOT
HETATM    1  N   UNL     1      26.372  44.681  51.115  1.00  0.00    -0.319 N 
HETATM    2  C   UNL     1      26.945  43.436  50.879  1.00  0.00     0.332 A 
HETATM    3  O   UNL     1      27.935  43.039  51.479  1.00  0.00    -0.246 OA
HETATM    4  N   UNL     1      26.246  42.815  49.862  1.00  0.00    -0.232 N 
HETATM    5  C   UNL     1      25.258  43.661  49.413  1.00  0.00     0.256 A 
HETATM    6  O   UNL     1      24.474  43.508  48.479  1.00  0.00    -0.270 OA
HETATM    7  C   UNL     1      25.225  44.928  50.271  1.00  0.00     0.190 A 
ENDROOT
BRANCH   7   8
HETATM    8  C   UNL     1      25.313  46.158  49.376  1.00  0.00     0.138 C 
BRANCH   8   9
HETATM    9  C   UNL     1      24.383  47.244  49.891  1.00  0.00     0.224 C 
HETATM   10  N   UNL     1      23.449  47.651  48.961  1.00  0.00    -0.327 N 
HETATM   11  H   UNL     1      23.417  47.140  48.078  1.00  0.00     0.169 HD
HETATM   12  O   UNL     1      24.497  47.649  51.043  1.00  0.00    -0.273 OA
BRANCH  10  13
HETATM   13  C   UNL     1      22.445  48.630  49.107  1.00  0.00     0.034 A 
HETATM   14  C   UNL     1      22.692  49.989  49.280  1.00  0.00     0.032 A 
HETATM   15  C   UNL     1      21.624  50.885  49.417  1.00  0.00     0.039 A 
HETATM   16  C   UNL     1      20.302  50.438  49.385  1.00  0.00     0.068 A 
HETATM   17  C   UNL     1      20.052  49.079  49.209  1.00  0.00     0.039 A 
HETATM   18  C   UNL     1      21.118  48.183  49.070  1.00  0.00     0.032 A 
BRANCH  16  19
HETATM   19  O   UNL     1      19.358  51.416  49.533  1.00  0.00    -0.356 OA
HETATM   20  C   UNL     1      19.253  52.371  48.485  1.00  0.00     0.210 C 
ENDBRANCH  16  19
ENDBRANCH  10  13
ENDBRANCH   8   9
ENDBRANCH   7   8
BRANCH   1  21
HETATM   21  C   UNL     1      26.907  45.650  52.068  1.00  0.00     0.133 C 
BRANCH  21  22
HETATM   22  C   UNL     1      26.430  45.429  53.506  1.00  0.00     0.058 C 
BRANCH  22  23
HETATM   23  C   UNL     1      27.596  45.339  54.459  1.00  0.00    -0.057 A 
HETATM   24  C   UNL     1      27.773  46.306  55.456  1.00  0.00     0.010 A 
HETATM   25  C   UNL     1      28.875  46.240  56.311  1.00  0.00     0.037 A 
HETATM   26  C   UNL     1      29.814  45.213  56.190  1.00  0.00     0.068 A 
HETATM   27  C   UNL     1      29.645  44.251  55.195  1.00  0.00     0.037 A 
HETATM   28  C   UNL     1      28.542  44.316  54.334  1.00  0.00     0.010 A 
BRANCH  26  29
HETATM   29  O   UNL     1      30.842  45.268  57.090  1.00  0.00    -0.356 OA
HETATM   30  C   UNL     1      30.600  45.978  58.298  1.00  0.00     0.210 C 
ENDBRANCH  26  29
ENDBRANCH  22  23
ENDBRANCH  21  22
ENDBRANCH   1  21
BRANCH   4  31
HETATM   31  C   UNL     1      26.548  41.529  49.315  1.00  0.00     0.047 A 
HETATM   32  C   UNL     1      27.236  41.390  48.102  1.00  0.00     0.033 A 
HETATM   33  C   UNL     1      27.532  40.126  47.570  1.00  0.00     0.039 A 
HETATM   34  C   UNL     1      27.144  38.963  48.226  1.00  0.00     0.068 A 
HETATM   35  C   UNL     1      26.463  39.077  49.432  1.00  0.00     0.039 A 
HETATM   36  C   UNL     1      26.174  40.342  49.967  1.00  0.00     0.033 A 
BRANCH  34  37
HETATM   37  O   UNL     1      27.486  37.800  47.599  1.00  0.00    -0.356 OA
HETATM   38  C   UNL     1      28.250  37.914  46.404  1.00  0.00     0.210 C 
ENDBRANCH  34  37
ENDBRANCH   4  31
TORSDOF 10
ENDMDL
