MODEL 1
REMARK VINA RESULT:      -8.1      0.000      0.000
REMARK  3 active torsions:
REMARK  status: ('A' for Active; 'I' for Inactive)
REMARK    1  A    between atoms: C_2  and  C_3 
REMARK    2  A    between atoms: C_3  and  C_4 
REMARK    3  A    between atoms: C_24  and  N_25 
ROOT
HETATM    1  C   UNL     1      21.544  48.658  47.975  1.00  0.00     0.067 A 
HETATM    2  N   UNL     1      22.417  47.739  48.428  1.00  0.00    -0.177 NA
HETATM    3  N   UNL     1      21.655  46.676  48.742  1.00  0.00    -0.256 N 
HETATM    4  H   UNL     1      22.105  45.840  49.098  1.00  0.00     0.191 HD
HETATM    5  C   UNL     1      20.339  46.886  48.500  1.00  0.00     0.176 A 
HETATM    6  C   UNL     1      20.212  48.167  48.024  1.00  0.00     0.049 A 
HETATM    7  C   UNL     1      18.858  48.665  47.647  1.00  0.00     0.145 A 
HETATM    8  C   UNL     1      18.825  49.129  46.163  1.00  0.00     0.246 A 
HETATM    9  O   UNL     1      18.974  48.447  45.162  1.00  0.00    -0.271 OA
HETATM   10  N   UNL     1      18.571  50.497  46.166  1.00  0.00    -0.325 N 
HETATM   11  C   UNL     1      18.441  50.989  47.457  1.00  0.00     0.043 A 
HETATM   12  C   UNL     1      18.611  49.962  48.400  1.00  0.00     0.003 A 
HETATM   13  C   UNL     1      18.179  52.296  47.805  1.00  0.00     0.030 A 
HETATM   14  C   UNL     1      18.079  52.586  49.164  1.00  0.00     0.003 A 
HETATM   15  C   UNL     1      18.237  51.574  50.128  1.00  0.00     0.007 A 
HETATM   16  C   UNL     1      18.497  50.241  49.763  1.00  0.00    -0.051 A 
HETATM   17  C   UNL     1      18.672  49.200  50.827  1.00  0.00     0.049 C 
HETATM   18  C   UNL     1      17.789  47.593  47.855  1.00  0.00     0.095 A 
HETATM   19  C   UNL     1      16.445  47.931  47.517  1.00  0.00     0.101 C 
HETATM   20  N   UNL     1      15.354  48.201  47.227  1.00  0.00    -0.191 NA
HETATM   21  C   UNL     1      18.082  46.354  48.336  1.00  0.00     0.141 A 
HETATM   22  O   UNL     1      19.389  45.978  48.686  1.00  0.00    -0.279 OA
HETATM   23  H   UNL     1      18.483  51.038  45.318  1.00  0.00     0.169 HD
ENDROOT
BRANCH  21  24
HETATM   24  N   UNL     1      17.170  45.341  48.545  1.00  0.00    -0.282 NA
HETATM   25  H   UNL     1      16.629  45.068  47.727  1.00  0.00     0.126 HD
HETATM   26  H   UNL     1      17.592  44.545  49.016  1.00  0.00     0.126 HD
ENDBRANCH  21  24
BRANCH   1  27
HETATM   27  C   UNL     1      22.069  49.964  47.471  1.00  0.00     0.061 C 
BRANCH  27  28
HETATM   28  C   UNL     1      21.909  51.132  48.446  1.00  0.00     0.002 C 
HETATM   29  C   UNL     1      22.165  50.756  49.899  1.00  0.00     0.005 C 
ENDBRANCH  27  28
ENDBRANCH   1  27
TORSDOF 3
ENDMDL
MODEL 2
REMARK VINA RESULT:      -8.0     11.468     14.144
REMARK  3 active torsions:
REMARK  status: ('A' for Active; 'I' for Inactive)
REMARK    1  A    between atoms: C_2  and  C_3 
REMARK    2  A    between atoms: C_3  and  C_4 
REMARK    3  A    between atoms: C_24  and  N_25 
ROOT
HETATM    1  C   UNL     1      29.640  48.505  40.361  1.00  0.00     0.067 A 
HETATM    2  N   UNL     1      28.849  47.708  41.101  1.00  0.00    -0.177 NA
HETATM    3  N   UNL     1      27.996  48.550  41.711  1.00  0.00    -0.256 N 
HETATM    4  H   UNL     1      27.283  48.168  42.322  1.00  0.00     0.191 HD
HETATM    5  C   UNL     1      28.215  49.846  41.380  1.00  0.00     0.176 A 
HETATM    6  C   UNL     1      29.289  49.872  40.524  1.00  0.00     0.049 A 
HETATM    7  C   UNL     1      29.740  51.181  39.974  1.00  0.00     0.145 A 
HETATM    8  C   UNL     1      29.717  51.173  38.420  1.00  0.00     0.246 A 
HETATM    9  O   UNL     1      28.747  51.075  37.685  1.00  0.00    -0.271 OA
HETATM   10  N   UNL     1      31.032  51.321  37.988  1.00  0.00    -0.325 N 
HETATM   11  C   UNL     1      31.911  51.417  39.058  1.00  0.00     0.043 A 
HETATM   12  C   UNL     1      31.221  51.330  40.278  1.00  0.00     0.003 A 
HETATM   13  C   UNL     1      33.277  51.578  38.973  1.00  0.00     0.030 A 
HETATM   14  C   UNL     1      33.985  51.659  40.170  1.00  0.00     0.003 A 
HETATM   15  C   UNL     1      33.317  51.583  41.405  1.00  0.00     0.007 A 
HETATM   16  C   UNL     1      31.921  51.426  41.482  1.00  0.00    -0.051 A 
HETATM   17  C   UNL     1      31.256  51.336  42.822  1.00  0.00     0.049 C 
HETATM   18  C   UNL     1      28.867  52.331  40.477  1.00  0.00     0.095 A 
HETATM   19  C   UNL     1      29.179  53.644  40.014  1.00  0.00     0.101 C 
HETATM   20  N   UNL     1      29.424  54.709  39.625  1.00  0.00    -0.191 NA
HETATM   21  C   UNL     1      27.824  52.137  41.329  1.00  0.00     0.141 A 
HETATM   22  O   UNL     1      27.483  50.864  41.814  1.00  0.00    -0.279 OA
HETATM   23  H   UNL     1      31.285  51.365  37.012  1.00  0.00     0.169 HD
ENDROOT
BRANCH  21  24
HETATM   24  N   UNL     1      26.997  53.125  41.818  1.00  0.00    -0.282 NA
HETATM   25  H   UNL     1      27.455  54.005  42.043  1.00  0.00     0.126 HD
HETATM   26  H   UNL     1      26.175  53.253  41.232  1.00  0.00     0.126 HD
ENDBRANCH  21  24
BRANCH   1  27
HETATM   27  C   UNL     1      30.682  47.879  39.489  1.00  0.00     0.061 C 
BRANCH  27  28
HETATM   28  C   UNL     1      31.766  47.109  40.246  1.00  0.00     0.002 C 
HETATM   29  C   UNL     1      32.538  47.962  41.243  1.00  0.00     0.005 C 
ENDBRANCH  27  28
ENDBRANCH   1  27
TORSDOF 3
ENDMDL
MODEL 3
REMARK VINA RESULT:      -7.9     11.816     14.649
REMARK  3 active torsions:
REMARK  status: ('A' for Active; 'I' for Inactive)
REMARK    1  A    between atoms: C_2  and  C_3 
REMARK    2  A    between atoms: C_3  and  C_4 
REMARK    3  A    between atoms: C_24  and  N_25 
ROOT
HETATM    1  C   UNL     1      27.999  50.804  40.756  1.00  0.00     0.067 A 
HETATM    2  N   UNL     1      27.054  51.584  41.311  1.00  0.00    -0.177 NA
HETATM    3  N   UNL     1      27.650  52.779  41.466  1.00  0.00    -0.256 N 
HETATM    4  H   UNL     1      27.117  53.545  41.862  1.00  0.00     0.191 HD
HETATM    5  C   UNL     1      28.932  52.785  41.027  1.00  0.00     0.176 A 
HETATM    6  C   UNL     1      29.214  51.518  40.578  1.00  0.00     0.049 A 
HETATM    7  C   UNL     1      30.563  51.239  40.009  1.00  0.00     0.145 A 
HETATM    8  C   UNL     1      30.456  50.700  38.554  1.00  0.00     0.246 A 
HETATM    9  O   UNL     1      30.040  51.285  37.567  1.00  0.00    -0.271 OA
HETATM   10  N   UNL     1      30.950  49.399  38.561  1.00  0.00    -0.325 N 
HETATM   11  C   UNL     1      31.357  49.015  39.831  1.00  0.00     0.043 A 
HETATM   12  C   UNL     1      31.149  50.052  40.754  1.00  0.00     0.003 A 
HETATM   13  C   UNL     1      31.899  47.796  40.176  1.00  0.00     0.030 A 
HETATM   14  C   UNL     1      32.251  47.609  41.510  1.00  0.00     0.003 A 
HETATM   15  C   UNL     1      32.061  48.634  42.453  1.00  0.00     0.007 A 
HETATM   16  C   UNL     1      31.513  49.879  42.091  1.00  0.00    -0.051 A 
HETATM   17  C   UNL     1      31.316  50.936  43.135  1.00  0.00     0.049 C 
HETATM   18  C   UNL     1      31.441  52.490  40.010  1.00  0.00     0.095 A 
HETATM   19  C   UNL     1      32.758  52.369  39.476  1.00  0.00     0.101 C 
HETATM   20  N   UNL     1      33.824  52.274  39.027  1.00  0.00    -0.191 NA
HETATM   21  C   UNL     1      31.007  53.687  40.492  1.00  0.00     0.141 A 
HETATM   22  O   UNL     1      29.720  53.852  41.031  1.00  0.00    -0.279 OA
HETATM   23  H   UNL     1      31.006  48.832  37.728  1.00  0.00     0.169 HD
ENDROOT
BRANCH  21  24
HETATM   24  N   UNL     1      31.742  54.852  40.521  1.00  0.00    -0.282 NA
HETATM   25  H   UNL     1      31.688  55.380  41.389  1.00  0.00     0.126 HD
HETATM   26  H   UNL     1      32.701  54.700  40.217  1.00  0.00     0.126 HD
ENDBRANCH  21  24
BRANCH   1  27
HETATM   27  C   UNL     1      27.648  49.399  40.384  1.00  0.00     0.061 C 
BRANCH  27  28
HETATM   28  C   UNL     1      28.130  48.339  41.376  1.00  0.00     0.002 C 
HETATM   29  C   UNL     1      28.347  46.968  40.750  1.00  0.00     0.005 C 
ENDBRANCH  27  28
ENDBRANCH   1  27
TORSDOF 3
ENDMDL
MODEL 4
REMARK VINA RESULT:      -7.7     11.131     13.860
REMARK  3 active torsions:
REMARK  status: ('A' for Active; 'I' for Inactive)
REMARK    1  A    between atoms: C_2  and  C_3 
REMARK    2  A    between atoms: C_3  and  C_4 
REMARK    3  A    between atoms: C_24  and  N_25 
ROOT
HETATM    1  C   UNL     1      28.612  48.108  38.667  1.00  0.00     0.067 A 
HETATM    2  N   UNL     1      28.877  47.078  37.843  1.00  0.00    -0.177 NA
HETATM    3  N   UNL     1      30.074  46.619  38.250  1.00  0.00    -0.256 N 
HETATM    4  H   UNL     1      30.479  45.820  37.776  1.00  0.00     0.191 HD
HETATM    5  C   UNL     1      30.571  47.315  39.301  1.00  0.00     0.176 A 
HETATM    6  C   UNL     1      29.670  48.309  39.594  1.00  0.00     0.049 A 
HETATM    7  C   UNL     1      29.952  49.223  40.737  1.00  0.00     0.145 A 
HETATM    8  C   UNL     1      28.802  49.185  41.782  1.00  0.00     0.246 A 
HETATM    9  O   UNL     1      28.452  48.245  42.477  1.00  0.00    -0.271 OA
HETATM   10  N   UNL     1      28.226  50.451  41.806  1.00  0.00    -0.325 N 
HETATM   11  C   UNL     1      28.846  51.310  40.909  1.00  0.00     0.043 A 
HETATM   12  C   UNL     1      29.878  50.651  40.223  1.00  0.00     0.003 A 
HETATM   13  C   UNL     1      28.522  52.632  40.696  1.00  0.00     0.030 A 
HETATM   14  C   UNL     1      29.273  53.328  39.751  1.00  0.00     0.003 A 
HETATM   15  C   UNL     1      30.317  52.694  39.055  1.00  0.00     0.007 A 
HETATM   16  C   UNL     1      30.645  51.345  39.285  1.00  0.00    -0.051 A 
HETATM   17  C   UNL     1      31.758  50.708  38.508  1.00  0.00     0.049 C 
HETATM   18  C   UNL     1      31.265  48.862  41.432  1.00  0.00     0.095 A 
HETATM   19  C   UNL     1      31.650  49.650  42.557  1.00  0.00     0.101 C 
HETATM   20  N   UNL     1      31.956  50.281  43.482  1.00  0.00    -0.191 NA
HETATM   21  C   UNL     1      32.051  47.832  41.017  1.00  0.00     0.141 A 
HETATM   22  O   UNL     1      31.714  47.033  39.913  1.00  0.00    -0.279 OA
HETATM   23  H   UNL     1      27.463  50.693  42.422  1.00  0.00     0.169 HD
ENDROOT
BRANCH  21  24
HETATM   24  N   UNL     1      33.242  47.452  41.598  1.00  0.00    -0.282 NA
HETATM   25  H   UNL     1      33.186  47.204  42.584  1.00  0.00     0.126 HD
HETATM   26  H   UNL     1      33.722  46.745  41.045  1.00  0.00     0.126 HD
ENDBRANCH  21  24
BRANCH   1  27
HETATM   27  C   UNL     1      27.305  48.822  38.533  1.00  0.00     0.061 C 
BRANCH  27  28
HETATM   28  C   UNL     1      26.077  47.960  38.832  1.00  0.00     0.002 C 
HETATM   29  C   UNL     1      25.658  47.979  40.295  1.00  0.00     0.005 C 
ENDBRANCH  27  28
ENDBRANCH   1  27
TORSDOF 3
ENDMDL
MODEL 5
REMARK VINA RESULT:      -7.6     11.862     14.140
REMARK  3 active torsions:
REMARK  status: ('A' for Active; 'I' for Inactive)
REMARK    1  A    between atoms: C_2  and  C_3 
REMARK    2  A    between atoms: C_3  and  C_4 
REMARK    3  A    between atoms: C_24  and  N_25 
ROOT
HETATM    1  C   UNL     1      28.914  52.032  41.626  1.00  0.00     0.067 A 
HETATM    2  N   UNL     1      27.719  52.650  41.646  1.00  0.00    -0.177 NA
HETATM    3  N   UNL     1      26.937  51.900  40.850  1.00  0.00    -0.256 N 
HETATM    4  H   UNL     1      25.968  52.169  40.720  1.00  0.00     0.191 HD
HETATM    5  C   UNL     1      27.590  50.831  40.333  1.00  0.00     0.176 A 
HETATM    6  C   UNL     1      28.884  50.885  40.788  1.00  0.00     0.049 A 
HETATM    7  C   UNL     1      29.833  49.806  40.392  1.00  0.00     0.145 A 
HETATM    8  C   UNL     1      30.432  49.101  41.642  1.00  0.00     0.246 A 
HETATM    9  O   UNL     1      29.845  48.431  42.476  1.00  0.00    -0.271 OA
HETATM   10  N   UNL     1      31.800  49.355  41.641  1.00  0.00    -0.325 N 
HETATM   11  C   UNL     1      32.172  50.140  40.559  1.00  0.00     0.043 A 
HETATM   12  C   UNL     1      31.055  50.463  39.771  1.00  0.00     0.003 A 
HETATM   13  C   UNL     1      33.450  50.562  40.263  1.00  0.00     0.030 A 
HETATM   14  C   UNL     1      33.616  51.343  39.122  1.00  0.00     0.003 A 
HETATM   15  C   UNL     1      32.515  51.673  38.311  1.00  0.00     0.007 A 
HETATM   16  C   UNL     1      31.214  51.231  38.617  1.00  0.00    -0.051 A 
HETATM   17  C   UNL     1      30.070  51.621  37.731  1.00  0.00     0.049 C 
HETATM   18  C   UNL     1      29.154  48.759  39.510  1.00  0.00     0.095 A 
HETATM   19  C   UNL     1      29.945  47.657  39.071  1.00  0.00     0.101 C 
HETATM   20  N   UNL     1      30.586  46.752  38.726  1.00  0.00    -0.191 NA
HETATM   21  C   UNL     1      27.845  48.847  39.148  1.00  0.00     0.141 A 
HETATM   22  O   UNL     1      27.029  49.916  39.553  1.00  0.00    -0.279 OA
HETATM   23  H   UNL     1      32.424  48.989  42.345  1.00  0.00     0.169 HD
ENDROOT
BRANCH  21  24
HETATM   24  N   UNL     1      27.170  47.940  38.360  1.00  0.00    -0.282 NA
HETATM   25  H   UNL     1      27.187  48.134  37.361  1.00  0.00     0.126 HD
HETATM   26  H   UNL     1      27.437  46.982  38.575  1.00  0.00     0.126 HD
ENDBRANCH  21  24
BRANCH   1  27
HETATM   27  C   UNL     1      30.021  52.576  42.472  1.00  0.00     0.061 C 
BRANCH  27  28
HETATM   28  C   UNL     1      31.136  53.271  41.688  1.00  0.00     0.002 C 
HETATM   29  C   UNL     1      30.628  54.193  40.589  1.00  0.00     0.005 C 
ENDBRANCH  27  28
ENDBRANCH   1  27
TORSDOF 3
ENDMDL
MODEL 6
REMARK VINA RESULT:      -7.2      2.174      3.600
REMARK  3 active torsions:
REMARK  status: ('A' for Active; 'I' for Inactive)
REMARK    1  A    between atoms: C_2  and  C_3 
REMARK    2  A    between atoms: C_3  and  C_4 
REMARK    3  A    between atoms: C_24  and  N_25 
ROOT
HETATM    1  C   UNL     1      18.006  48.722  45.318  1.00  0.00     0.067 A 
HETATM    2  N   UNL     1      18.526  47.905  44.385  1.00  0.00    -0.177 NA
HETATM    3  N   UNL     1      19.183  46.965  45.087  1.00  0.00    -0.256 N 
HETATM    4  H   UNL     1      19.654  46.219  44.587  1.00  0.00     0.191 HD
HETATM    5  C   UNL     1      19.094  47.155  46.426  1.00  0.00     0.176 A 
HETATM    6  C   UNL     1      18.359  48.297  46.627  1.00  0.00     0.049 A 
HETATM    7  C   UNL     1      18.078  48.738  48.023  1.00  0.00     0.145 A 
HETATM    8  C   UNL     1      16.549  48.852  48.277  1.00  0.00     0.246 A 
HETATM    9  O   UNL     1      15.720  47.955  48.276  1.00  0.00    -0.271 OA
HETATM   10  N   UNL     1      16.274  50.191  48.533  1.00  0.00    -0.325 N 
HETATM   11  C   UNL     1      17.422  50.968  48.472  1.00  0.00     0.043 A 
HETATM   12  C   UNL     1      18.540  50.178  48.161  1.00  0.00     0.003 A 
HETATM   13  C   UNL     1      17.494  52.328  48.684  1.00  0.00     0.030 A 
HETATM   14  C   UNL     1      18.749  52.923  48.582  1.00  0.00     0.003 A 
HETATM   15  C   UNL     1      19.887  52.153  48.280  1.00  0.00     0.007 A 
HETATM   16  C   UNL     1      19.804  50.764  48.072  1.00  0.00    -0.051 A 
HETATM   17  C   UNL     1      21.043  49.988  47.738  1.00  0.00     0.049 C 
HETATM   18  C   UNL     1      18.680  47.774  49.045  1.00  0.00     0.095 A 
HETATM   19  C   UNL     1      18.472  48.067  50.426  1.00  0.00     0.101 C 
HETATM   20  N   UNL     1      18.289  48.298  51.549  1.00  0.00    -0.191 NA
HETATM   21  C   UNL     1      19.385  46.669  48.681  1.00  0.00     0.141 A 
HETATM   22  O   UNL     1      19.619  46.343  47.335  1.00  0.00    -0.279 OA
HETATM   23  H   UNL     1      15.346  50.527  48.748  1.00  0.00     0.169 HD
ENDROOT
BRANCH  21  24
HETATM   24  N   UNL     1      19.951  45.759  49.548  1.00  0.00    -0.282 NA
HETATM   25  H   UNL     1      19.516  44.839  49.558  1.00  0.00     0.126 HD
HETATM   26  H   UNL     1      20.961  45.711  49.438  1.00  0.00     0.126 HD
ENDBRANCH  21  24
BRANCH   1  27
HETATM   27  C   UNL     1      17.144  49.863  44.878  1.00  0.00     0.061 C 
BRANCH  27  28
HETATM   28  C   UNL     1      17.890  51.184  44.682  1.00  0.00     0.002 C 
HETATM   29  C   UNL     1      17.063  52.412  45.036  1.00  0.00     0.005 C 
ENDBRANCH  27  28
ENDBRANCH   1  27
TORSDOF 3
ENDMDL
MODEL 7
REMARK VINA RESULT:      -6.9     12.680     15.489
REMARK  3 active torsions:
REMARK  status: ('A' for Active; 'I' for Inactive)
REMARK    1  A    between atoms: C_2  and  C_3 
REMARK    2  A    between atoms: C_3  and  C_4 
REMARK    3  A    between atoms: C_24  and  N_25 
ROOT
HETATM    1  C   UNL     1      34.185  51.573  40.641  1.00  0.00     0.067 A 
HETATM    2  N   UNL     1      34.940  52.530  40.072  1.00  0.00    -0.177 NA
HETATM    3  N   UNL     1      34.071  53.509  39.763  1.00  0.00    -0.256 N 
HETATM    4  H   UNL     1      34.420  54.356  39.328  1.00  0.00     0.191 HD
HETATM    5  C   UNL     1      32.799  53.209  40.120  1.00  0.00     0.176 A 
HETATM    6  C   UNL     1      32.816  51.951  40.672  1.00  0.00     0.049 A 
HETATM    7  C   UNL     1      31.541  51.370  41.181  1.00  0.00     0.145 A 
HETATM    8  C   UNL     1      31.659  50.994  42.685  1.00  0.00     0.246 A 
HETATM    9  O   UNL     1      31.825  51.744  43.634  1.00  0.00    -0.271 OA
HETATM   10  N   UNL     1      31.522  49.613  42.775  1.00  0.00    -0.325 N 
HETATM   11  C   UNL     1      31.338  49.036  41.527  1.00  0.00     0.043 A 
HETATM   12  C   UNL     1      31.349  50.016  40.521  1.00  0.00     0.003 A 
HETATM   13  C   UNL     1      31.161  47.694  41.270  1.00  0.00     0.030 A 
HETATM   14  C   UNL     1      30.985  47.316  39.941  1.00  0.00     0.003 A 
HETATM   15  C   UNL     1      30.984  48.278  38.916  1.00  0.00     0.007 A 
HETATM   16  C   UNL     1      31.157  49.648  39.188  1.00  0.00    -0.051 A 
HETATM   17  C   UNL     1      31.163  50.635  38.059  1.00  0.00     0.049 C 
HETATM   18  C   UNL     1      30.373  52.339  41.003  1.00  0.00     0.095 A 
HETATM   19  C   UNL     1      29.092  51.915  41.464  1.00  0.00     0.101 C 
HETATM   20  N   UNL     1      28.052  51.576  41.854  1.00  0.00    -0.191 NA
HETATM   21  C   UNL     1      30.523  53.567  40.435  1.00  0.00     0.141 A 
HETATM   22  O   UNL     1      31.764  54.024  39.962  1.00  0.00    -0.279 OA
HETATM   23  H   UNL     1      31.544  49.118  43.655  1.00  0.00     0.169 HD
ENDROOT
BRANCH  21  24
HETATM   24  N   UNL     1      29.516  54.489  40.246  1.00  0.00    -0.282 NA
HETATM   25  H   UNL     1      29.797  55.464  40.331  1.00  0.00     0.126 HD
HETATM   26  H   UNL     1      28.994  54.307  39.393  1.00  0.00     0.126 HD
ENDBRANCH  21  24
BRANCH   1  27
HETATM   27  C   UNL     1      34.855  50.345  41.170  1.00  0.00     0.061 C 
BRANCH  27  28
HETATM   28  C   UNL     1      35.886  50.608  42.269  1.00  0.00     0.002 C 
HETATM   29  C   UNL     1      35.461  51.680  43.263  1.00  0.00     0.005 C 
ENDBRANCH  27  28
ENDBRANCH   1  27
TORSDOF 3
ENDMDL
MODEL 8
REMARK VINA RESULT:      -6.9     24.592     26.233
REMARK  3 active torsions:
REMARK  status: ('A' for Active; 'I' for Inactive)
REMARK    1  A    between atoms: C_2  and  C_3 
REMARK    2  A    between atoms: C_3  and  C_4 
REMARK    3  A    between atoms: C_24  and  N_25 
ROOT
HETATM    1  C   UNL     1      38.840  43.098  64.113  1.00  0.00     0.067 A 
HETATM    2  N   UNL     1      38.620  41.779  63.965  1.00  0.00    -0.177 NA
HETATM    3  N   UNL     1      37.504  41.540  64.677  1.00  0.00    -0.256 N 
HETATM    4  H   UNL     1      37.131  40.598  64.703  1.00  0.00     0.191 HD
HETATM    5  C   UNL     1      37.009  42.657  65.262  1.00  0.00     0.176 A 
HETATM    6  C   UNL     1      37.855  43.692  64.946  1.00  0.00     0.049 A 
HETATM    7  C   UNL     1      37.537  45.061  65.443  1.00  0.00     0.145 A 
HETATM    8  C   UNL     1      37.408  46.067  64.265  1.00  0.00     0.246 A 
HETATM    9  O   UNL     1      36.572  46.077  63.375  1.00  0.00    -0.271 OA
HETATM   10  N   UNL     1      38.429  47.001  64.409  1.00  0.00    -0.325 N 
HETATM   11  C   UNL     1      39.213  46.731  65.522  1.00  0.00     0.043 A 
HETATM   12  C   UNL     1      38.754  45.583  66.187  1.00  0.00     0.003 A 
HETATM   13  C   UNL     1      40.297  47.467  65.949  1.00  0.00     0.030 A 
HETATM   14  C   UNL     1      40.950  47.032  67.099  1.00  0.00     0.003 A 
HETATM   15  C   UNL     1      40.506  45.889  67.788  1.00  0.00     0.007 A 
HETATM   16  C   UNL     1      39.394  45.148  67.349  1.00  0.00    -0.051 A 
HETATM   17  C   UNL     1      38.966  43.929  68.109  1.00  0.00     0.049 C 
HETATM   18  C   UNL     1      36.240  45.075  66.251  1.00  0.00     0.095 A 
HETATM   19  C   UNL     1      35.806  46.330  66.775  1.00  0.00     0.101 C 
HETATM   20  N   UNL     1      35.446  47.353  67.188  1.00  0.00    -0.191 NA
HETATM   21  C   UNL     1      35.505  43.952  66.474  1.00  0.00     0.141 A 
HETATM   22  O   UNL     1      35.895  42.695  65.982  1.00  0.00    -0.279 OA
HETATM   23  H   UNL     1      38.553  47.777  63.775  1.00  0.00     0.169 HD
ENDROOT
BRANCH  21  24
HETATM   24  N   UNL     1      34.329  43.894  67.189  1.00  0.00    -0.282 NA
HETATM   25  H   UNL     1      34.426  43.625  68.166  1.00  0.00     0.126 HD
HETATM   26  H   UNL     1      33.774  44.739  67.072  1.00  0.00     0.126 HD
ENDBRANCH  21  24
BRANCH   1  27
HETATM   27  C   UNL     1      39.988  43.723  63.386  1.00  0.00     0.061 C 
BRANCH  27  28
HETATM   28  C   UNL     1      41.269  43.853  64.214  1.00  0.00     0.002 C 
HETATM   29  C   UNL     1      42.125  45.051  63.831  1.00  0.00     0.005 C 
ENDBRANCH  27  28
ENDBRANCH   1  27
TORSDOF 3
ENDMDL
MODEL 9
REMARK VINA RESULT:      -6.8     24.296     26.266
REMARK  3 active torsions:
REMARK  status: ('A' for Active; 'I' for Inactive)
REMARK    1  A    between atoms: C_2  and  C_3 
REMARK    2  A    between atoms: C_3  and  C_4 
REMARK    3  A    between atoms: C_24  and  N_25 
ROOT
HETATM    1  C   UNL     1      39.888  47.656  64.733  1.00  0.00     0.067 A 
HETATM    2  N   UNL     1      41.163  47.463  64.349  1.00  0.00    -0.177 NA
HETATM    3  N   UNL     1      41.357  46.138  64.476  1.00  0.00    -0.256 N 
HETATM    4  H   UNL     1      42.259  45.749  64.225  1.00  0.00     0.191 HD
HETATM    5  C   UNL     1      40.254  45.489  64.920  1.00  0.00     0.176 A 
HETATM    6  C   UNL     1      39.280  46.434  65.126  1.00  0.00     0.049 A 
HETATM    7  C   UNL     1      37.936  45.993  65.597  1.00  0.00     0.145 A 
HETATM    8  C   UNL     1      36.822  46.440  64.609  1.00  0.00     0.246 A 
HETATM    9  O   UNL     1      36.657  46.081  63.454  1.00  0.00    -0.271 OA
HETATM   10  N   UNL     1      36.005  47.337  65.289  1.00  0.00    -0.325 N 
HETATM   11  C   UNL     1      36.443  47.540  66.590  1.00  0.00     0.043 A 
HETATM   12  C   UNL     1      37.597  46.784  66.849  1.00  0.00     0.003 A 
HETATM   13  C   UNL     1      35.852  48.359  67.527  1.00  0.00     0.030 A 
HETATM   14  C   UNL     1      36.446  48.421  68.785  1.00  0.00     0.003 A 
HETATM   15  C   UNL     1      37.598  47.667  69.073  1.00  0.00     0.007 A 
HETATM   16  C   UNL     1      38.190  46.828  68.112  1.00  0.00    -0.051 A 
HETATM   17  C   UNL     1      39.427  46.055  68.462  1.00  0.00     0.049 C 
HETATM   18  C   UNL     1      37.871  44.475  65.763  1.00  0.00     0.095 A 
HETATM   19  C   UNL     1      36.633  43.914  66.195  1.00  0.00     0.101 C 
HETATM   20  N   UNL     1      35.620  43.457  66.532  1.00  0.00    -0.191 NA
HETATM   21  C   UNL     1      38.936  43.667  65.511  1.00  0.00     0.141 A 
HETATM   22  O   UNL     1      40.175  44.175  65.088  1.00  0.00    -0.279 OA
HETATM   23  H   UNL     1      35.191  47.761  64.869  1.00  0.00     0.169 HD
ENDROOT
BRANCH  21  24
HETATM   24  N   UNL     1      38.946  42.294  65.637  1.00  0.00    -0.282 NA
HETATM   25  H   UNL     1      38.840  41.776  64.767  1.00  0.00     0.126 HD
HETATM   26  H   UNL     1      39.737  41.972  66.189  1.00  0.00     0.126 HD
ENDBRANCH  21  24
BRANCH   1  27
HETATM   27  C   UNL     1      39.312  49.034  64.654  1.00  0.00     0.061 C 
BRANCH  27  28
HETATM   28  C   UNL     1      39.380  49.828  65.959  1.00  0.00     0.002 C 
HETATM   29  C   UNL     1      38.242  50.824  66.130  1.00  0.00     0.005 C 
ENDBRANCH  27  28
ENDBRANCH   1  27
TORSDOF 3
ENDMDL
MODEL 10
REMARK VINA RESULT:      -6.7      2.216      3.520
REMARK  3 active torsions:
REMARK  status: ('A' for Active; 'I' for Inactive)
REMARK    1  A    between atoms: C_2  and  C_3 
REMARK    2  A    between atoms: C_3  and  C_4 
REMARK    3  A    between atoms: C_24  and  N_25 
ROOT
HETATM    1  C   UNL     1      18.499  50.056  50.045  1.00  0.00     0.067 A 
HETATM    2  N   UNL     1      18.665  49.495  51.257  1.00  0.00    -0.177 NA
HETATM    3  N   UNL     1      18.968  48.211  50.997  1.00  0.00    -0.256 N 
HETATM    4  H   UNL     1      19.153  47.584  51.773  1.00  0.00     0.191 HD
HETATM    5  C   UNL     1      19.005  47.941  49.670  1.00  0.00     0.176 A 
HETATM    6  C   UNL     1      18.683  49.102  49.009  1.00  0.00     0.049 A 
HETATM    7  C   UNL     1      18.672  49.103  47.519  1.00  0.00     0.145 A 
HETATM    8  C   UNL     1      19.645  50.175  46.952  1.00  0.00     0.246 A 
HETATM    9  O   UNL     1      20.861  50.211  47.052  1.00  0.00    -0.271 OA
HETATM   10  N   UNL     1      18.873  51.111  46.272  1.00  0.00    -0.325 N 
HETATM   11  C   UNL     1      17.522  50.796  46.327  1.00  0.00     0.043 A 
HETATM   12  C   UNL     1      17.317  49.618  47.063  1.00  0.00     0.003 A 
HETATM   13  C   UNL     1      16.497  51.513  45.749  1.00  0.00     0.030 A 
HETATM   14  C   UNL     1      15.204  51.022  45.915  1.00  0.00     0.003 A 
HETATM   15  C   UNL     1      14.972  49.840  46.640  1.00  0.00     0.007 A 
HETATM   16  C   UNL     1      16.026  49.111  47.221  1.00  0.00    -0.051 A 
HETATM   17  C   UNL     1      15.727  47.864  47.998  1.00  0.00     0.049 C 
HETATM   18  C   UNL     1      19.058  47.736  46.955  1.00  0.00     0.095 A 
HETATM   19  C   UNL     1      19.103  47.600  45.535  1.00  0.00     0.101 C 
HETATM   20  N   UNL     1      19.154  47.494  44.381  1.00  0.00    -0.191 NA
HETATM   21  C   UNL     1      19.357  46.675  47.752  1.00  0.00     0.141 A 
HETATM   22  O   UNL     1      19.321  46.761  49.154  1.00  0.00    -0.279 OA
HETATM   23  H   UNL     1      19.273  51.906  45.794  1.00  0.00     0.169 HD
ENDROOT
BRANCH  21  24
HETATM   24  N   UNL     1      19.714  45.419  47.312  1.00  0.00    -0.282 NA
HETATM   25  H   UNL     1      19.315  44.643  47.836  1.00  0.00     0.126 HD
HETATM   26  H   UNL     1      19.581  45.319  46.308  1.00  0.00     0.126 HD
ENDBRANCH  21  24
BRANCH   1  27
HETATM   27  C   UNL     1      18.210  51.521  49.962  1.00  0.00     0.061 C 
BRANCH  27  28
HETATM   28  C   UNL     1      16.732  51.867  49.769  1.00  0.00     0.002 C 
HETATM   29  C   UNL     1      16.418  53.343  49.969  1.00  0.00     0.005 C 
ENDBRANCH  27  28
ENDBRANCH   1  27
TORSDOF 3
ENDMDL
