MODEL 1
REMARK VINA RESULT:      -9.7      0.000      0.000
REMARK  7 active torsions:
REMARK  status: ('A' for Active; 'I' for Inactive)
REMARK    1  A    between atoms: C_3  and  C_4 
REMARK    2  A    between atoms: C_9  and  N_10 
REMARK       I    between atoms: N_10  and  C_11 
REMARK       I    between atoms: C_11  and  N_15 
REMARK    3  A    between atoms: N_15  and  CA_16 
REMARK    4  A    between atoms: CA_16  and  C_17 
REMARK    5  A    between atoms: CA_16  and  CB_19 
REMARK    6  A    between atoms: C_17  and  O_18 
REMARK    7  A    between atoms: CB_19  and  CG_20 
ROOT
HETATM    1  N   UNK A   0      28.046  42.981  51.379  1.00  0.00    -0.309 N 
HETATM    2  C   UNK A   0      27.266  43.736  50.557  1.00  0.00     0.321 C 
HETATM    3  O   UNK A   0      26.937  43.288  49.461  1.00  0.00    -0.247 OA
HETATM    4  H   UNK A   0      28.143  42.044  51.006  1.00  0.00     0.170 HD
ATOM      5  N   TRP A   1      26.860  44.948  51.014  1.00  0.00    -0.336 N 
ATOM      6  H   TRP A   1      26.645  44.944  52.003  1.00  0.00     0.164 HD
ENDROOT
BRANCH   5   7
ATOM      7  CA  TRP A   1      25.946  45.800  50.237  1.00  0.00     0.114 C 
BRANCH   7   8
ATOM      8  C   TRP A   1      24.516  45.240  50.361  1.00  0.00     0.189 C 
BRANCH   8   9
ATOM      9  O   TRP A   1      24.189  45.039  51.739  1.00  0.00    -0.399 OA
ATOM     10  H   TRP A   1      24.929  44.542  52.129  1.00  0.00     0.209 HD
ENDBRANCH   8   9
ENDBRANCH   7   8
BRANCH   7  11
ATOM     11  CB  TRP A   1      26.032  47.256  50.745  1.00  0.00     0.068 C 
BRANCH  11  12
ATOM     12  CG  TRP A   1      25.829  48.306  49.685  1.00  0.00    -0.028 A 
ATOM     13  CD2 TRP A   1      24.597  48.861  49.196  1.00  0.00    -0.002 A 
ATOM     14  CE2 TRP A   1      24.921  49.788  48.203  1.00  0.00     0.042 A 
ATOM     15  CE3 TRP A   1      23.233  48.673  49.504  1.00  0.00     0.014 A 
ATOM     16  CZ2 TRP A   1      23.956  50.536  47.514  1.00  0.00     0.030 A 
ATOM     17  NE1 TRP A   1      26.288  49.786  48.075  1.00  0.00    -0.365 N 
ATOM     18  CH2 TRP A   1      22.616  50.339  47.854  1.00  0.00     0.002 A 
ATOM     19  CZ3 TRP A   1      22.257  49.420  48.835  1.00  0.00     0.001 A 
ATOM     20  HE1 TRP A   1      26.802  50.356  47.417  1.00  0.00     0.165 HD
ATOM     21  CD1 TRP A   1      26.845  48.904  48.959  1.00  0.00     0.096 A 
ENDBRANCH  11  12
ENDBRANCH   7  11
ENDBRANCH   5   7
BRANCH   1  22
HETATM   22  C   UNK A   0      28.732  43.254  52.577  1.00  0.00     0.036 A 
HETATM   23  C   UNK A   0      29.932  42.657  52.960  1.00  0.00     0.030 A 
HETATM   24  C   UNK A   0      30.553  43.018  54.163  1.00  0.00     0.018 A 
HETATM   25  C   UNK A   0      29.967  43.962  55.018  1.00  0.00     0.015 A 
HETATM   26  C   UNK A   0      28.728  44.532  54.674  1.00  0.00    -0.046 A 
HETATM   27  C   UNK A   0      28.024  45.531  55.552  1.00  0.00     0.049 C 
HETATM   28  C   UNK A   0      28.131  44.170  53.451  1.00  0.00     0.037 A 
BRANCH  25  29
HETATM   29  C   UNK A   0      30.685  44.353  56.268  1.00  0.00     0.156 C 
HETATM   30  C   UNK A   0      31.438  43.292  57.027  1.00  0.00     0.097 C 
HETATM   31  O   UNK A   0      30.684  45.522  56.646  1.00  0.00    -0.293 OA
ENDBRANCH  25  29
ENDBRANCH   1  22
TORSDOF 7
ENDMDL
MODEL 2
REMARK VINA RESULT:      -9.6     11.435     13.238
REMARK  7 active torsions:
REMARK  status: ('A' for Active; 'I' for Inactive)
REMARK    1  A    between atoms: C_3  and  C_4 
REMARK    2  A    between atoms: C_9  and  N_10 
REMARK       I    between atoms: N_10  and  C_11 
REMARK       I    between atoms: C_11  and  N_15 
REMARK    3  A    between atoms: N_15  and  CA_16 
REMARK    4  A    between atoms: CA_16  and  C_17 
REMARK    5  A    between atoms: CA_16  and  CB_19 
REMARK    6  A    between atoms: C_17  and  O_18 
REMARK    7  A    between atoms: CB_19  and  CG_20 
ROOT
HETATM    1  N   UNK A   0      29.223  52.707  41.547  1.00  0.00    -0.309 N 
HETATM    2  C   UNK A   0      28.105  52.057  41.123  1.00  0.00     0.321 C 
HETATM    3  O   UNK A   0      27.000  52.511  41.411  1.00  0.00    -0.247 OA
HETATM    4  H   UNK A   0      28.976  53.602  41.954  1.00  0.00     0.170 HD
ATOM      5  N   TRP A   1      28.274  50.946  40.362  1.00  0.00    -0.336 N 
ATOM      6  H   TRP A   1      29.052  51.023  39.720  1.00  0.00     0.164 HD
ENDROOT
BRANCH   5   7
ATOM      7  CA  TRP A   1      27.128  50.224  39.784  1.00  0.00     0.114 C 
BRANCH   7   8
ATOM      8  C   TRP A   1      26.928  50.691  38.330  1.00  0.00     0.189 C 
BRANCH   8   9
ATOM      9  O   TRP A   1      25.540  50.638  37.987  1.00  0.00    -0.399 OA
ATOM     10  H   TRP A   1      25.464  50.022  37.238  1.00  0.00     0.209 HD
ENDBRANCH   8   9
ENDBRANCH   7   8
BRANCH   7  11
ATOM     11  CB  TRP A   1      27.379  48.702  39.864  1.00  0.00     0.068 C 
BRANCH  11  12
ATOM     12  CG  TRP A   1      28.823  48.294  39.734  1.00  0.00    -0.028 A 
ATOM     13  CD2 TRP A   1      29.861  48.342  40.727  1.00  0.00    -0.002 A 
ATOM     14  CE2 TRP A   1      31.034  47.875  40.129  1.00  0.00     0.042 A 
ATOM     15  CE3 TRP A   1      29.920  48.728  42.083  1.00  0.00     0.014 A 
ATOM     16  CZ2 TRP A   1      32.250  47.770  40.816  1.00  0.00     0.030 A 
ATOM     17  NE1 TRP A   1      30.733  47.576  38.823  1.00  0.00    -0.365 N 
ATOM     18  CH2 TRP A   1      32.272  48.145  42.162  1.00  0.00     0.002 A 
ATOM     19  CZ3 TRP A   1      31.124  48.618  42.788  1.00  0.00     0.001 A 
ATOM     20  HE1 TRP A   1      31.399  47.227  38.148  1.00  0.00     0.165 HD
ATOM     21  CD1 TRP A   1      29.411  47.820  38.574  1.00  0.00     0.096 A 
ENDBRANCH  11  12
ENDBRANCH   7  11
ENDBRANCH   5   7
BRANCH   1  22
HETATM   22  C   UNK A   0      30.590  52.373  41.551  1.00  0.00     0.036 A 
HETATM   23  C   UNK A   0      31.355  52.135  40.411  1.00  0.00     0.030 A 
HETATM   24  C   UNK A   0      32.720  51.836  40.520  1.00  0.00     0.018 A 
HETATM   25  C   UNK A   0      33.335  51.739  41.776  1.00  0.00     0.015 A 
HETATM   26  C   UNK A   0      32.566  51.920  42.939  1.00  0.00    -0.046 A 
HETATM   27  C   UNK A   0      33.149  51.806  44.322  1.00  0.00     0.049 C 
HETATM   28  C   UNK A   0      31.201  52.240  42.806  1.00  0.00     0.037 A 
BRANCH  25  29
HETATM   29  C   UNK A   0      34.802  51.465  41.846  1.00  0.00     0.156 C 
HETATM   30  C   UNK A   0      35.272  50.038  41.737  1.00  0.00     0.097 C 
HETATM   31  O   UNK A   0      35.603  52.390  41.958  1.00  0.00    -0.293 OA
ENDBRANCH  25  29
ENDBRANCH   1  22
TORSDOF 7
ENDMDL
MODEL 3
REMARK VINA RESULT:      -9.5      2.407      8.992
REMARK  7 active torsions:
REMARK  status: ('A' for Active; 'I' for Inactive)
REMARK    1  A    between atoms: C_3  and  C_4 
REMARK    2  A    between atoms: C_9  and  N_10 
REMARK       I    between atoms: N_10  and  C_11 
REMARK       I    between atoms: C_11  and  N_15 
REMARK    3  A    between atoms: N_15  and  CA_16 
REMARK    4  A    between atoms: CA_16  and  C_17 
REMARK    5  A    between atoms: CA_16  and  CB_19 
REMARK    6  A    between atoms: C_17  and  O_18 
REMARK    7  A    between atoms: CB_19  and  CG_20 
ROOT
HETATM    1  N   UNK A   0      26.500  45.555  50.260  1.00  0.00    -0.309 N 
HETATM    2  C   UNK A   0      26.720  45.019  51.492  1.00  0.00     0.321 C 
HETATM    3  O   UNK A   0      27.265  43.921  51.581  1.00  0.00    -0.247 OA
HETATM    4  H   UNK A   0      26.963  45.001  49.548  1.00  0.00     0.170 HD
ATOM      5  N   TRP A   1      26.353  45.754  52.572  1.00  0.00    -0.336 N 
ATOM      6  H   TRP A   1      26.515  46.745  52.448  1.00  0.00     0.164 HD
ENDROOT
BRANCH   5   7
ATOM      7  CA  TRP A   1      26.627  45.300  53.945  1.00  0.00     0.114 C 
BRANCH   7   8
ATOM      8  C   TRP A   1      25.742  44.076  54.251  1.00  0.00     0.189 C 
BRANCH   8   9
ATOM      9  O   TRP A   1      24.518  44.499  54.857  1.00  0.00    -0.399 OA
ATOM     10  H   TRP A   1      24.289  45.353  54.451  1.00  0.00     0.209 HD
ENDBRANCH   8   9
ENDBRANCH   7   8
BRANCH   7  11
ATOM     11  CB  TRP A   1      28.128  44.967  54.093  1.00  0.00     0.068 C 
BRANCH  11  12
ATOM     12  CG  TRP A   1      28.727  45.341  55.423  1.00  0.00    -0.028 A 
ATOM     13  CD2 TRP A   1      29.832  44.732  56.112  1.00  0.00    -0.002 A 
ATOM     14  CE2 TRP A   1      30.003  45.417  57.317  1.00  0.00     0.042 A 
ATOM     15  CE3 TRP A   1      30.714  43.668  55.827  1.00  0.00     0.014 A 
ATOM     16  CZ2 TRP A   1      31.008  45.098  58.240  1.00  0.00     0.030 A 
ATOM     17  NE1 TRP A   1      29.033  46.388  57.374  1.00  0.00    -0.365 N 
ATOM     18  CH2 TRP A   1      31.875  44.051  57.921  1.00  0.00     0.002 A 
ATOM     19  CZ3 TRP A   1      31.731  43.344  56.732  1.00  0.00     0.001 A 
ATOM     20  HE1 TRP A   1      28.910  47.030  58.145  1.00  0.00     0.165 HD
ATOM     21  CD1 TRP A   1      28.263  46.354  56.244  1.00  0.00     0.096 A 
ENDBRANCH  11  12
ENDBRANCH   7  11
ENDBRANCH   5   7
BRANCH   1  22
HETATM   22  C   UNK A   0      25.762  46.664  49.808  1.00  0.00     0.036 A 
HETATM   23  C   UNK A   0      24.373  46.710  49.711  1.00  0.00     0.030 A 
HETATM   24  C   UNK A   0      23.728  47.876  49.275  1.00  0.00     0.018 A 
HETATM   25  C   UNK A   0      24.467  49.006  48.899  1.00  0.00     0.015 A 
HETATM   26  C   UNK A   0      25.872  48.958  48.936  1.00  0.00    -0.046 A 
HETATM   27  C   UNK A   0      26.733  50.121  48.524  1.00  0.00     0.049 C 
HETATM   28  C   UNK A   0      26.498  47.784  49.397  1.00  0.00     0.037 A 
BRANCH  25  29
HETATM   29  C   UNK A   0      23.739  50.243  48.485  1.00  0.00     0.156 C 
HETATM   30  C   UNK A   0      22.840  50.918  49.488  1.00  0.00     0.097 C 
HETATM   31  O   UNK A   0      23.900  50.714  47.362  1.00  0.00    -0.293 OA
ENDBRANCH  25  29
ENDBRANCH   1  22
TORSDOF 7
ENDMDL
MODEL 4
REMARK VINA RESULT:      -9.4      2.868      8.254
REMARK  7 active torsions:
REMARK  status: ('A' for Active; 'I' for Inactive)
REMARK    1  A    between atoms: C_3  and  C_4 
REMARK    2  A    between atoms: C_9  and  N_10 
REMARK       I    between atoms: N_10  and  C_11 
REMARK       I    between atoms: C_11  and  N_15 
REMARK    3  A    between atoms: N_15  and  CA_16 
REMARK    4  A    between atoms: CA_16  and  C_17 
REMARK    5  A    between atoms: CA_16  and  CB_19 
REMARK    6  A    between atoms: C_17  and  O_18 
REMARK    7  A    between atoms: CB_19  and  CG_20 
ROOT
HETATM    1  N   UNK A   0      25.575  44.264  53.789  1.00  0.00    -0.309 N 
HETATM    2  C   UNK A   0      26.521  43.384  54.217  1.00  0.00     0.321 C 
HETATM    3  O   UNK A   0      26.291  42.686  55.203  1.00  0.00    -0.247 OA
HETATM    4  H   UNK A   0      24.708  44.120  54.293  1.00  0.00     0.170 HD
ATOM      5  N   TRP A   1      27.670  43.298  53.500  1.00  0.00    -0.336 N 
ATOM      6  H   TRP A   1      27.520  43.388  52.504  1.00  0.00     0.164 HD
ENDROOT
BRANCH   5   7
ATOM      7  CA  TRP A   1      28.716  42.316  53.832  1.00  0.00     0.114 C 
BRANCH   7   8
ATOM      8  C   TRP A   1      28.718  41.210  52.759  1.00  0.00     0.189 C 
BRANCH   8   9
ATOM      9  O   TRP A   1      27.390  40.712  52.570  1.00  0.00    -0.399 OA
ATOM     10  H   TRP A   1      26.804  41.488  52.553  1.00  0.00     0.209 HD
ENDBRANCH   8   9
ENDBRANCH   7   8
BRANCH   7  11
ATOM     11  CB  TRP A   1      30.086  43.024  53.920  1.00  0.00     0.068 C 
BRANCH  11  12
ATOM     12  CG  TRP A   1      30.440  43.541  55.290  1.00  0.00    -0.028 A 
ATOM     13  CD2 TRP A   1      29.841  44.621  56.024  1.00  0.00    -0.002 A 
ATOM     14  CE2 TRP A   1      30.522  44.733  57.238  1.00  0.00     0.042 A 
ATOM     15  CE3 TRP A   1      28.776  45.516  55.780  1.00  0.00     0.014 A 
ATOM     16  CZ2 TRP A   1      30.191  45.681  58.215  1.00  0.00     0.030 A 
ATOM     17  NE1 TRP A   1      31.509  43.777  57.238  1.00  0.00    -0.365 N 
ATOM     18  CH2 TRP A   1      29.122  46.540  57.951  1.00  0.00     0.002 A 
ATOM     19  CZ3 TRP A   1      28.423  46.461  56.751  1.00  0.00     0.001 A 
ATOM     20  HE1 TRP A   1      32.168  43.636  57.991  1.00  0.00     0.165 HD
ATOM     21  CD1 TRP A   1      31.469  43.055  56.078  1.00  0.00     0.096 A 
ENDBRANCH  11  12
ENDBRANCH   7  11
ENDBRANCH   5   7
BRANCH   1  22
HETATM   22  C   UNK A   0      25.584  45.306  52.843  1.00  0.00     0.036 A 
HETATM   23  C   UNK A   0      26.194  46.545  53.028  1.00  0.00     0.030 A 
HETATM   24  C   UNK A   0      26.172  47.508  52.011  1.00  0.00     0.018 A 
HETATM   25  C   UNK A   0      25.510  47.258  50.801  1.00  0.00     0.015 A 
HETATM   26  C   UNK A   0      24.840  46.035  50.618  1.00  0.00    -0.046 A 
HETATM   27  C   UNK A   0      24.088  45.704  49.358  1.00  0.00     0.049 C 
HETATM   28  C   UNK A   0      24.893  45.073  51.645  1.00  0.00     0.037 A 
BRANCH  25  29
HETATM   29  C   UNK A   0      25.550  48.293  49.725  1.00  0.00     0.156 C 
HETATM   30  C   UNK A   0      26.853  48.535  49.008  1.00  0.00     0.097 C 
HETATM   31  O   UNK A   0      24.532  48.907  49.414  1.00  0.00    -0.293 OA
ENDBRANCH  25  29
ENDBRANCH   1  22
TORSDOF 7
ENDMDL
MODEL 5
REMARK VINA RESULT:      -9.2      2.537      9.190
REMARK  7 active torsions:
REMARK  status: ('A' for Active; 'I' for Inactive)
REMARK    1  A    between atoms: C_3  and  C_4 
REMARK    2  A    between atoms: C_9  and  N_10 
REMARK       I    between atoms: N_10  and  C_11 
REMARK       I    between atoms: C_11  and  N_15 
REMARK    3  A    between atoms: N_15  and  CA_16 
REMARK    4  A    between atoms: CA_16  and  C_17 
REMARK    5  A    between atoms: CA_16  and  CB_19 
REMARK    6  A    between atoms: C_17  and  O_18 
REMARK    7  A    between atoms: CB_19  and  CG_20 
ROOT
HETATM    1  N   UNK A   0      24.894  48.314  49.190  1.00  0.00    -0.309 N 
HETATM    2  C   UNK A   0      25.743  47.728  50.079  1.00  0.00     0.321 C 
HETATM    3  O   UNK A   0      26.948  47.712  49.838  1.00  0.00    -0.247 OA
HETATM    4  H   UNK A   0      25.418  48.801  48.473  1.00  0.00     0.170 HD
ATOM      5  N   TRP A   1      25.208  47.218  51.217  1.00  0.00    -0.336 N 
ATOM      6  H   TRP A   1      24.450  47.780  51.582  1.00  0.00     0.164 HD
ENDROOT
BRANCH   5   7
ATOM      7  CA  TRP A   1      26.051  46.642  52.277  1.00  0.00     0.114 C 
BRANCH   7   8
ATOM      8  C   TRP A   1      25.839  47.447  53.574  1.00  0.00     0.189 C 
BRANCH   8   9
ATOM      9  O   TRP A   1      25.611  46.556  54.669  1.00  0.00    -0.399 OA
ATOM     10  H   TRP A   1      25.044  45.841  54.331  1.00  0.00     0.209 HD
ENDBRANCH   8   9
ENDBRANCH   7   8
BRANCH   7  11
ATOM     11  CB  TRP A   1      25.701  45.151  52.470  1.00  0.00     0.068 C 
BRANCH  11  12
ATOM     12  CG  TRP A   1      26.860  44.205  52.304  1.00  0.00    -0.028 A 
ATOM     13  CD2 TRP A   1      27.997  44.020  53.162  1.00  0.00    -0.002 A 
ATOM     14  CE2 TRP A   1      28.809  43.044  52.579  1.00  0.00     0.042 A 
ATOM     15  CE3 TRP A   1      28.417  44.580  54.388  1.00  0.00     0.014 A 
ATOM     16  CZ2 TRP A   1      30.005  42.600  53.159  1.00  0.00     0.030 A 
ATOM     17  NE1 TRP A   1      28.207  42.664  51.405  1.00  0.00    -0.365 N 
ATOM     18  CH2 TRP A   1      30.384  43.162  54.380  1.00  0.00     0.002 A 
ATOM     19  CZ3 TRP A   1      29.602  44.140  54.987  1.00  0.00     0.001 A 
ATOM     20  HE1 TRP A   1      28.582  41.977  50.766  1.00  0.00     0.165 HD
ATOM     21  CD1 TRP A   1      27.037  43.351  51.229  1.00  0.00     0.096 A 
ENDBRANCH  11  12
ENDBRANCH   7  11
ENDBRANCH   5   7
BRANCH   1  22
HETATM   22  C   UNK A   0      23.492  48.344  49.071  1.00  0.00     0.036 A 
HETATM   23  C   UNK A   0      22.706  47.275  48.645  1.00  0.00     0.030 A 
HETATM   24  C   UNK A   0      21.311  47.395  48.587  1.00  0.00     0.018 A 
HETATM   25  C   UNK A   0      20.681  48.601  48.925  1.00  0.00     0.015 A 
HETATM   26  C   UNK A   0      21.463  49.708  49.302  1.00  0.00    -0.046 A 
HETATM   27  C   UNK A   0      20.861  51.042  49.654  1.00  0.00     0.049 C 
HETATM   28  C   UNK A   0      22.861  49.559  49.373  1.00  0.00     0.037 A 
BRANCH  25  29
HETATM   29  C   UNK A   0      19.190  48.674  48.895  1.00  0.00     0.156 C 
HETATM   30  C   UNK A   0      18.428  48.333  50.150  1.00  0.00     0.097 C 
HETATM   31  O   UNK A   0      18.605  49.035  47.877  1.00  0.00    -0.293 OA
ENDBRANCH  25  29
ENDBRANCH   1  22
TORSDOF 7
ENDMDL
MODEL 6
REMARK VINA RESULT:      -9.2     11.337     12.560
REMARK  7 active torsions:
REMARK  status: ('A' for Active; 'I' for Inactive)
REMARK    1  A    between atoms: C_3  and  C_4 
REMARK    2  A    between atoms: C_9  and  N_10 
REMARK       I    between atoms: N_10  and  C_11 
REMARK       I    between atoms: C_11  and  N_15 
REMARK    3  A    between atoms: N_15  and  CA_16 
REMARK    4  A    between atoms: CA_16  and  C_17 
REMARK    5  A    between atoms: CA_16  and  CB_19 
REMARK    6  A    between atoms: C_17  and  O_18 
REMARK    7  A    between atoms: CB_19  and  CG_20 
ROOT
HETATM    1  N   UNK A   0      30.926  47.931  39.728  1.00  0.00    -0.309 N 
HETATM    2  C   UNK A   0      29.663  47.814  39.232  1.00  0.00     0.321 C 
HETATM    3  O   UNK A   0      29.462  47.082  38.266  1.00  0.00    -0.247 OA
HETATM    4  H   UNK A   0      31.539  47.254  39.288  1.00  0.00     0.170 HD
ATOM      5  N   TRP A   1      28.675  48.497  39.864  1.00  0.00    -0.336 N 
ATOM      6  H   TRP A   1      28.792  48.519  40.869  1.00  0.00     0.164 HD
ENDROOT
BRANCH   5   7
ATOM      7  CA  TRP A   1      27.266  48.369  39.457  1.00  0.00     0.114 C 
BRANCH   7   8
ATOM      8  C   TRP A   1      26.568  47.364  40.393  1.00  0.00     0.189 C 
BRANCH   8   9
ATOM      9  O   TRP A   1      25.611  48.043  41.212  1.00  0.00    -0.399 OA
ATOM     10  H   TRP A   1      25.827  48.990  41.162  1.00  0.00     0.209 HD
ENDBRANCH   8   9
ENDBRANCH   7   8
BRANCH   7  11
ATOM     11  CB  TRP A   1      26.584  49.754  39.500  1.00  0.00     0.068 C 
BRANCH  11  12
ATOM     12  CG  TRP A   1      27.505  50.917  39.246  1.00  0.00    -0.028 A 
ATOM     13  CD2 TRP A   1      28.363  51.601  40.174  1.00  0.00    -0.002 A 
ATOM     14  CE2 TRP A   1      29.008  52.623  39.474  1.00  0.00     0.042 A 
ATOM     15  CE3 TRP A   1      28.665  51.448  41.544  1.00  0.00     0.014 A 
ATOM     16  CZ2 TRP A   1      29.936  53.488  40.069  1.00  0.00     0.030 A 
ATOM     17  NE1 TRP A   1      28.549  52.581  38.180  1.00  0.00    -0.365 N 
ATOM     18  CH2 TRP A   1      30.226  53.300  41.422  1.00  0.00     0.002 A 
ATOM     19  CZ3 TRP A   1      29.599  52.295  42.151  1.00  0.00     0.001 A 
ATOM     20  HE1 TRP A   1      28.838  53.218  37.450  1.00  0.00     0.165 HD
ATOM     21  CD1 TRP A   1      27.649  51.562  38.030  1.00  0.00     0.096 A 
ENDBRANCH  11  12
ENDBRANCH   7  11
ENDBRANCH   5   7
BRANCH   1  22
HETATM   22  C   UNK A   0      31.517  48.792  40.671  1.00  0.00     0.036 A 
HETATM   23  C   UNK A   0      31.444  48.631  42.053  1.00  0.00     0.030 A 
HETATM   24  C   UNK A   0      32.093  49.530  42.910  1.00  0.00     0.018 A 
HETATM   25  C   UNK A   0      32.801  50.625  42.397  1.00  0.00     0.015 A 
HETATM   26  C   UNK A   0      32.837  50.836  41.007  1.00  0.00    -0.046 A 
HETATM   27  C   UNK A   0      33.555  52.002  40.383  1.00  0.00     0.049 C 
HETATM   28  C   UNK A   0      32.196  49.909  40.163  1.00  0.00     0.037 A 
BRANCH  25  29
HETATM   29  C   UNK A   0      33.517  51.533  43.342  1.00  0.00     0.156 C 
HETATM   30  C   UNK A   0      32.796  51.993  44.582  1.00  0.00     0.097 C 
HETATM   31  O   UNK A   0      34.680  51.867  43.124  1.00  0.00    -0.293 OA
ENDBRANCH  25  29
ENDBRANCH   1  22
TORSDOF 7
ENDMDL
MODEL 7
REMARK VINA RESULT:      -9.1     11.338     12.817
REMARK  7 active torsions:
REMARK  status: ('A' for Active; 'I' for Inactive)
REMARK    1  A    between atoms: C_3  and  C_4 
REMARK    2  A    between atoms: C_9  and  N_10 
REMARK       I    between atoms: N_10  and  C_11 
REMARK       I    between atoms: C_11  and  N_15 
REMARK    3  A    between atoms: N_15  and  CA_16 
REMARK    4  A    between atoms: CA_16  and  C_17 
REMARK    5  A    between atoms: CA_16  and  CB_19 
REMARK    6  A    between atoms: C_17  and  O_18 
REMARK    7  A    between atoms: CB_19  and  CG_20 
ROOT
HETATM    1  N   UNK A   0      30.976  47.769  41.292  1.00  0.00    -0.309 N 
HETATM    2  C   UNK A   0      29.792  47.897  40.631  1.00  0.00     0.321 C 
HETATM    3  O   UNK A   0      29.166  46.887  40.319  1.00  0.00    -0.247 OA
HETATM    4  H   UNK A   0      31.121  46.805  41.568  1.00  0.00     0.170 HD
ATOM      5  N   TRP A   1      29.344  49.154  40.381  1.00  0.00    -0.336 N 
ATOM      6  H   TRP A   1      29.541  49.799  41.135  1.00  0.00     0.164 HD
ENDROOT
BRANCH   5   7
ATOM      7  CA  TRP A   1      28.037  49.396  39.750  1.00  0.00     0.114 C 
BRANCH   7   8
ATOM      8  C   TRP A   1      26.933  49.225  40.811  1.00  0.00     0.189 C 
BRANCH   8   9
ATOM      9  O   TRP A   1      27.333  49.844  42.037  1.00  0.00    -0.399 OA
ATOM     10  H   TRP A   1      26.590  49.738  42.656  1.00  0.00     0.209 HD
ENDBRANCH   8   9
ENDBRANCH   7   8
BRANCH   7  11
ATOM     11  CB  TRP A   1      28.013  50.810  39.129  1.00  0.00     0.068 C 
BRANCH  11  12
ATOM     12  CG  TRP A   1      29.065  51.748  39.659  1.00  0.00    -0.028 A 
ATOM     13  CD2 TRP A   1      30.472  51.776  39.368  1.00  0.00    -0.002 A 
ATOM     14  CE2 TRP A   1      31.034  52.815  40.113  1.00  0.00     0.042 A 
ATOM     15  CE3 TRP A   1      31.327  51.024  38.535  1.00  0.00     0.014 A 
ATOM     16  CZ2 TRP A   1      32.395  53.141  40.061  1.00  0.00     0.030 A 
ATOM     17  NE1 TRP A   1      30.020  53.384  40.844  1.00  0.00    -0.365 N 
ATOM     18  CH2 TRP A   1      33.213  52.389  39.215  1.00  0.00     0.002 A 
ATOM     19  CZ3 TRP A   1      32.688  51.344  38.461  1.00  0.00     0.001 A 
ATOM     20  HE1 TRP A   1      30.142  54.155  41.487  1.00  0.00     0.165 HD
ATOM     21  CD1 TRP A   1      28.835  52.756  40.580  1.00  0.00     0.096 A 
ENDBRANCH  11  12
ENDBRANCH   7  11
ENDBRANCH   5   7
BRANCH   1  22
HETATM   22  C   UNK A   0      31.999  48.676  41.622  1.00  0.00     0.036 A 
HETATM   23  C   UNK A   0      33.312  48.598  41.161  1.00  0.00     0.030 A 
HETATM   24  C   UNK A   0      34.253  49.570  41.525  1.00  0.00     0.018 A 
HETATM   25  C   UNK A   0      33.903  50.620  42.385  1.00  0.00     0.015 A 
HETATM   26  C   UNK A   0      32.598  50.682  42.907  1.00  0.00    -0.046 A 
HETATM   27  C   UNK A   0      32.156  51.764  43.855  1.00  0.00     0.049 C 
HETATM   28  C   UNK A   0      31.663  49.708  42.511  1.00  0.00     0.037 A 
BRANCH  25  29
HETATM   29  C   UNK A   0      34.924  51.661  42.712  1.00  0.00     0.156 C 
HETATM   30  C   UNK A   0      35.950  52.015  41.667  1.00  0.00     0.097 C 
HETATM   31  O   UNK A   0      34.901  52.236  43.798  1.00  0.00    -0.293 OA
ENDBRANCH  25  29
ENDBRANCH   1  22
TORSDOF 7
ENDMDL
MODEL 8
REMARK VINA RESULT:      -9.0      3.901      6.362
REMARK  7 active torsions:
REMARK  status: ('A' for Active; 'I' for Inactive)
REMARK    1  A    between atoms: C_3  and  C_4 
REMARK    2  A    between atoms: C_9  and  N_10 
REMARK       I    between atoms: N_10  and  C_11 
REMARK       I    between atoms: C_11  and  N_15 
REMARK    3  A    between atoms: N_15  and  CA_16 
REMARK    4  A    between atoms: CA_16  and  C_17 
REMARK    5  A    between atoms: CA_16  and  CB_19 
REMARK    6  A    between atoms: C_17  and  O_18 
REMARK    7  A    between atoms: CB_19  and  CG_20 
ROOT
HETATM    1  N   UNK A   0      24.011  47.553  48.972  1.00  0.00    -0.309 N 
HETATM    2  C   UNK A   0      22.897  48.260  48.634  1.00  0.00     0.321 C 
HETATM    3  O   UNK A   0      22.959  49.078  47.719  1.00  0.00    -0.247 OA
HETATM    4  H   UNK A   0      24.747  47.714  48.294  1.00  0.00     0.170 HD
ATOM      5  N   TRP A   1      21.753  47.993  49.313  1.00  0.00    -0.336 N 
ATOM      6  H   TRP A   1      21.646  47.010  49.533  1.00  0.00     0.164 HD
ENDROOT
BRANCH   5   7
ATOM      7  CA  TRP A   1      20.478  48.640  48.965  1.00  0.00     0.114 C 
BRANCH   7   8
ATOM      8  C   TRP A   1      19.318  47.759  49.466  1.00  0.00     0.189 C 
BRANCH   8   9
ATOM      9  O   TRP A   1      19.075  48.015  50.853  1.00  0.00    -0.399 OA
ATOM     10  H   TRP A   1      19.897  48.394  51.212  1.00  0.00     0.209 HD
ENDBRANCH   8   9
ENDBRANCH   7   8
BRANCH   7  11
ATOM     11  CB  TRP A   1      20.427  50.054  49.583  1.00  0.00     0.068 C 
BRANCH  11  12
ATOM     12  CG  TRP A   1      19.443  50.991  48.933  1.00  0.00    -0.028 A 
ATOM     13  CD2 TRP A   1      18.994  51.014  47.568  1.00  0.00    -0.002 A 
ATOM     14  CE2 TRP A   1      18.095  52.075  47.440  1.00  0.00     0.042 A 
ATOM     15  CE3 TRP A   1      19.257  50.230  46.424  1.00  0.00     0.014 A 
ATOM     16  CZ2 TRP A   1      17.446  52.384  46.237  1.00  0.00     0.030 A 
ATOM     17  NE1 TRP A   1      18.013  52.688  48.666  1.00  0.00    -0.365 N 
ATOM     18  CH2 TRP A   1      17.715  51.580  45.128  1.00  0.00     0.002 A 
ATOM     19  CZ3 TRP A   1      18.608  50.517  45.218  1.00  0.00     0.001 A 
ATOM     20  HE1 TRP A   1      17.443  53.498  48.864  1.00  0.00     0.165 HD
ATOM     21  CD1 TRP A   1      18.815  52.047  49.570  1.00  0.00     0.096 A 
ENDBRANCH  11  12
ENDBRANCH   7  11
ENDBRANCH   5   7
BRANCH   1  22
HETATM   22  C   UNK A   0      24.326  46.705  50.049  1.00  0.00     0.036 A 
HETATM   23  C   UNK A   0      24.016  45.348  50.111  1.00  0.00     0.030 A 
HETATM   24  C   UNK A   0      24.399  44.580  51.219  1.00  0.00     0.018 A 
HETATM   25  C   UNK A   0      25.072  45.167  52.300  1.00  0.00     0.015 A 
HETATM   26  C   UNK A   0      25.342  46.547  52.280  1.00  0.00    -0.046 A 
HETATM   27  C   UNK A   0      26.038  47.253  53.413  1.00  0.00     0.049 C 
HETATM   28  C   UNK A   0      24.967  47.295  51.148  1.00  0.00     0.037 A 
BRANCH  25  29
HETATM   29  C   UNK A   0      25.504  44.304  53.440  1.00  0.00     0.156 C 
HETATM   30  C   UNK A   0      26.858  43.648  53.373  1.00  0.00     0.097 C 
HETATM   31  O   UNK A   0      24.780  44.164  54.423  1.00  0.00    -0.293 OA
ENDBRANCH  25  29
ENDBRANCH   1  22
TORSDOF 7
ENDMDL
MODEL 9
REMARK VINA RESULT:      -8.8     11.131     12.874
REMARK  7 active torsions:
REMARK  status: ('A' for Active; 'I' for Inactive)
REMARK    1  A    between atoms: C_3  and  C_4 
REMARK    2  A    between atoms: C_9  and  N_10 
REMARK       I    between atoms: N_10  and  C_11 
REMARK       I    between atoms: C_11  and  N_15 
REMARK    3  A    between atoms: N_15  and  CA_16 
REMARK    4  A    between atoms: CA_16  and  C_17 
REMARK    5  A    between atoms: CA_16  and  CB_19 
REMARK    6  A    between atoms: C_17  and  O_18 
REMARK    7  A    between atoms: CB_19  and  CG_20 
ROOT
HETATM    1  N   UNK A   0      30.440  46.753  39.794  1.00  0.00    -0.309 N 
HETATM    2  C   UNK A   0      29.140  46.350  39.746  1.00  0.00     0.321 C 
HETATM    3  O   UNK A   0      28.872  45.236  39.302  1.00  0.00    -0.247 OA
HETATM    4  H   UNK A   0      31.055  45.981  39.567  1.00  0.00     0.170 HD
ATOM      5  N   TRP A   1      28.200  47.200  40.231  1.00  0.00    -0.336 N 
ATOM      6  H   TRP A   1      28.511  47.706  41.050  1.00  0.00     0.164 HD
ENDROOT
BRANCH   5   7
ATOM      7  CA  TRP A   1      26.779  46.822  40.302  1.00  0.00     0.114 C 
BRANCH   7   8
ATOM      8  C   TRP A   1      26.576  45.870  41.497  1.00  0.00     0.189 C 
BRANCH   8   9
ATOM      9  O   TRP A   1      25.262  46.038  42.037  1.00  0.00    -0.399 OA
ATOM     10  H   TRP A   1      25.195  45.430  42.794  1.00  0.00     0.209 HD
ENDBRANCH   8   9
ENDBRANCH   7   8
BRANCH   7  11
ATOM     11  CB  TRP A   1      25.908  48.090  40.432  1.00  0.00     0.068 C 
BRANCH  11  12
ATOM     12  CG  TRP A   1      26.414  49.283  39.663  1.00  0.00    -0.028 A 
ATOM     13  CD2 TRP A   1      27.326  50.306  40.094  1.00  0.00    -0.002 A 
ATOM     14  CE2 TRP A   1      27.476  51.207  39.037  1.00  0.00     0.042 A 
ATOM     15  CE3 TRP A   1      28.049  50.556  41.281  1.00  0.00     0.014 A 
ATOM     16  CZ2 TRP A   1      28.311  52.329  39.104  1.00  0.00     0.030 A 
ATOM     17  NE1 TRP A   1      26.675  50.765  38.012  1.00  0.00    -0.365 N 
ATOM     18  CH2 TRP A   1      29.026  52.539  40.285  1.00  0.00     0.002 A 
ATOM     19  CZ3 TRP A   1      28.897  51.666  41.360  1.00  0.00     0.001 A 
ATOM     20  HE1 TRP A   1      26.576  51.233  37.121  1.00  0.00     0.165 HD
ATOM     21  CD1 TRP A   1      26.035  49.612  38.374  1.00  0.00     0.096 A 
ENDBRANCH  11  12
ENDBRANCH   7  11
ENDBRANCH   5   7
BRANCH   1  22
HETATM   22  C   UNK A   0      31.057  47.989  40.060  1.00  0.00     0.036 A 
HETATM   23  C   UNK A   0      31.625  48.349  41.281  1.00  0.00     0.030 A 
HETATM   24  C   UNK A   0      32.244  49.597  41.438  1.00  0.00     0.018 A 
HETATM   25  C   UNK A   0      32.276  50.519  40.382  1.00  0.00     0.015 A 
HETATM   26  C   UNK A   0      31.657  50.195  39.161  1.00  0.00    -0.046 A 
HETATM   27  C   UNK A   0      31.628  51.142  37.992  1.00  0.00     0.049 C 
HETATM   28  C   UNK A   0      31.060  48.928  39.019  1.00  0.00     0.037 A 
BRANCH  25  29
HETATM   29  C   UNK A   0      32.986  51.818  40.576  1.00  0.00     0.156 C 
HETATM   30  C   UNK A   0      34.432  51.916  40.165  1.00  0.00     0.097 C 
HETATM   31  O   UNK A   0      32.390  52.792  41.030  1.00  0.00    -0.293 OA
ENDBRANCH  25  29
ENDBRANCH   1  22
TORSDOF 7
ENDMDL
MODEL 10
REMARK VINA RESULT:      -8.8      3.490      4.953
REMARK  7 active torsions:
REMARK  status: ('A' for Active; 'I' for Inactive)
REMARK    1  A    between atoms: C_3  and  C_4 
REMARK    2  A    between atoms: C_9  and  N_10 
REMARK       I    between atoms: N_10  and  C_11 
REMARK       I    between atoms: C_11  and  N_15 
REMARK    3  A    between atoms: N_15  and  CA_16 
REMARK    4  A    between atoms: CA_16  and  C_17 
REMARK    5  A    between atoms: CA_16  and  CB_19 
REMARK    6  A    between atoms: C_17  and  O_18 
REMARK    7  A    between atoms: CB_19  and  CG_20 
ROOT
HETATM    1  N   UNK A   0      28.904  40.928  52.890  1.00  0.00    -0.309 N 
HETATM    2  C   UNK A   0      28.698  40.448  51.632  1.00  0.00     0.321 C 
HETATM    3  O   UNK A   0      29.156  39.350  51.326  1.00  0.00    -0.247 OA
HETATM    4  H   UNK A   0      29.319  40.212  53.475  1.00  0.00     0.170 HD
ATOM      5  N   TRP A   1      27.956  41.204  50.784  1.00  0.00    -0.336 N 
ATOM      6  H   TRP A   1      27.189  41.675  51.245  1.00  0.00     0.164 HD
ENDROOT
BRANCH   5   7
ATOM      7  CA  TRP A   1      27.606  40.733  49.434  1.00  0.00     0.114 C 
BRANCH   7   8
ATOM      8  C   TRP A   1      26.753  39.456  49.558  1.00  0.00     0.189 C 
BRANCH   8   9
ATOM      9  O   TRP A   1      27.480  38.333  49.053  1.00  0.00    -0.399 OA
ATOM     10  H   TRP A   1      27.989  37.974  49.800  1.00  0.00     0.209 HD
ENDBRANCH   8   9
ENDBRANCH   7   8
BRANCH   7  11
ATOM     11  CB  TRP A   1      26.855  41.847  48.673  1.00  0.00     0.068 C 
BRANCH  11  12
ATOM     12  CG  TRP A   1      25.843  42.600  49.496  1.00  0.00    -0.028 A 
ATOM     13  CD2 TRP A   1      25.961  43.903  50.090  1.00  0.00    -0.002 A 
ATOM     14  CE2 TRP A   1      24.769  44.163  50.770  1.00  0.00     0.042 A 
ATOM     15  CE3 TRP A   1      26.963  44.896  50.112  1.00  0.00     0.014 A 
ATOM     16  CZ2 TRP A   1      24.529  45.359  51.459  1.00  0.00     0.030 A 
ATOM     17  NE1 TRP A   1      23.965  43.060  50.617  1.00  0.00    -0.365 N 
ATOM     18  CH2 TRP A   1      25.533  46.329  51.447  1.00  0.00     0.002 A 
ATOM     19  CZ3 TRP A   1      26.735  46.102  50.784  1.00  0.00     0.001 A 
ATOM     20  HE1 TRP A   1      23.042  42.964  51.017  1.00  0.00     0.165 HD
ATOM     21  CD1 TRP A   1      24.596  42.116  49.854  1.00  0.00     0.096 A 
ENDBRANCH  11  12
ENDBRANCH   7  11
ENDBRANCH   5   7
BRANCH   1  22
HETATM   22  C   UNK A   0      28.685  42.181  53.492  1.00  0.00     0.036 A 
HETATM   23  C   UNK A   0      27.525  42.940  53.352  1.00  0.00     0.030 A 
HETATM   24  C   UNK A   0      27.392  44.166  54.018  1.00  0.00     0.018 A 
HETATM   25  C   UNK A   0      28.434  44.668  54.810  1.00  0.00     0.015 A 
HETATM   26  C   UNK A   0      29.635  43.943  54.916  1.00  0.00    -0.046 A 
HETATM   27  C   UNK A   0      30.806  44.429  55.726  1.00  0.00     0.049 C 
HETATM   28  C   UNK A   0      29.739  42.704  54.255  1.00  0.00     0.037 A 
BRANCH  25  29
HETATM   29  C   UNK A   0      28.235  45.956  55.540  1.00  0.00     0.156 C 
HETATM   30  C   UNK A   0      27.879  47.185  54.744  1.00  0.00     0.097 C 
HETATM   31  O   UNK A   0      28.327  45.998  56.764  1.00  0.00    -0.293 OA
ENDBRANCH  25  29
ENDBRANCH   1  22
TORSDOF 7
ENDMDL
