MODEL 1
REMARK VINA RESULT:      -9.1      0.000      0.000
REMARK  10 active torsions:
REMARK  status: ('A' for Active; 'I' for Inactive)
REMARK    1  A    between atoms: C_2  and  O_3 
REMARK    2  A    between atoms: O_3  and  C_4 
REMARK    3  A    between atoms: C_7  and  C_8 
REMARK    4  A    between atoms: C_8  and  C_9 
REMARK    5  A    between atoms: C_10  and  C_11 
REMARK    6  A    between atoms: C_14  and  N_15 
REMARK    7  A    between atoms: N_20  and  C_21 
REMARK    8  A    between atoms: C_21  and  C_22 
REMARK    9  A    between atoms: C_22  and  N_23 
REMARK   10  A    between atoms: C_34  and  O_35 
ROOT
HETATM    1  C   UNL     1      25.160  45.328  52.539  1.00  0.00     0.059 C 
HETATM    2  C   UNL     1      24.773  44.572  51.308  1.00  0.00     0.161 C 
HETATM    3  N   UNL     1      24.740  45.641  50.306  1.00  0.00    -0.332 N 
HETATM    4  C   UNL     1      24.796  46.877  50.931  1.00  0.00     0.278 C 
HETATM    5  O   UNL     1      24.545  47.944  50.395  1.00  0.00    -0.265 OA
HETATM    6  C   UNL     1      25.191  46.653  52.330  1.00  0.00     0.146 C 
ENDROOT
BRANCH   1   7
HETATM    7  C   UNL     1      25.552  44.802  53.862  1.00  0.00     0.193 C 
HETATM    8  O   UNL     1      24.668  44.394  54.616  1.00  0.00    -0.287 OA
BRANCH   7   9
HETATM    9  C   UNL     1      26.962  44.770  54.310  1.00  0.00     0.015 A 
HETATM   10  C   UNL     1      27.781  43.648  54.142  1.00  0.00     0.018 A 
HETATM   11  C   UNL     1      29.090  43.659  54.637  1.00  0.00     0.038 A 
HETATM   12  C   UNL     1      29.570  44.776  55.319  1.00  0.00     0.069 A 
HETATM   13  C   UNL     1      28.743  45.875  55.532  1.00  0.00     0.038 A 
HETATM   14  C   UNL     1      27.443  45.877  55.021  1.00  0.00     0.018 A 
BRANCH  12  15
HETATM   15  O   UNL     1      30.794  44.788  55.919  1.00  0.00    -0.347 OA
BRANCH  15  16
HETATM   16  C   UNL     1      30.832  44.124  57.191  1.00  0.00     0.120 C 
HETATM   17  C   UNL     1      31.022  45.170  58.285  1.00  0.00     0.040 C 
HETATM   18  C   UNL     1      32.017  43.164  57.166  1.00  0.00     0.040 C 
ENDBRANCH  15  16
ENDBRANCH  12  15
ENDBRANCH   7   9
ENDBRANCH   1   7
BRANCH   2  19
HETATM   19  C   UNL     1      25.672  43.431  50.884  1.00  0.00    -0.030 A 
HETATM   20  C   UNL     1      27.046  43.677  50.697  1.00  0.00     0.012 A 
HETATM   21  C   UNL     1      27.917  42.651  50.320  1.00  0.00     0.037 A 
HETATM   22  C   UNL     1      27.418  41.359  50.124  1.00  0.00     0.102 A 
HETATM   23  C   UNL     1      26.054  41.095  50.304  1.00  0.00     0.037 A 
HETATM   24  C   UNL     1      25.189  42.126  50.689  1.00  0.00     0.012 A 
BRANCH  22  25
HETATM   25  N   UNL     1      28.334  40.274  49.749  1.00  0.00    -0.116 N 
HETATM   26  O   UNL     1      28.774  40.274  48.591  1.00  0.00    -0.532 OA
HETATM   27  O   UNL     1      28.633  39.452  50.624  1.00  0.00    -0.532 OA
ENDBRANCH  22  25
ENDBRANCH   2  19
BRANCH   6  28
HETATM   28  O   UNL     1      25.517  47.661  53.188  1.00  0.00    -0.355 OA
HETATM   29  H   UNL     1      26.137  47.291  53.861  1.00  0.00     0.218 HD
ENDBRANCH   6  28
BRANCH   3  30
HETATM   30  C   UNL     1      24.146  45.472  48.985  1.00  0.00     0.155 C 
BRANCH  30  31
HETATM   31  C   UNL     1      22.740  44.804  48.998  1.00  0.00     0.254 C 
BRANCH  31  32
HETATM   32  N   UNL     1      21.593  45.832  49.040  1.00  0.00    -0.066 N 
HETATM   33  H   UNL     1      21.585  46.173  50.015  1.00  0.00     0.280 HD
HETATM   34  C   UNL     1      20.210  45.203  48.821  1.00  0.00     0.262 C 
HETATM   35  C   UNL     1      19.888  44.971  47.324  1.00  0.00     0.260 C 
HETATM   36  N   UNL     1      20.073  46.236  46.525  1.00  0.00    -0.072 N 
HETATM   37  H   UNL     1      19.345  46.935  46.745  1.00  0.00     0.277 HD
HETATM   38  H   UNL     1      19.921  46.022  45.523  1.00  0.00     0.277 HD
HETATM   39  C   UNL     1      21.456  46.830  46.667  1.00  0.00     0.260 C 
HETATM   40  C   UNL     1      21.797  47.078  48.159  1.00  0.00     0.262 C 
ENDBRANCH  31  32
ENDBRANCH  30  31
ENDBRANCH   3  30
TORSDOF 10
ENDMDL
MODEL 2
REMARK VINA RESULT:      -8.8      2.279      4.792
REMARK  10 active torsions:
REMARK  status: ('A' for Active; 'I' for Inactive)
REMARK    1  A    between atoms: C_2  and  O_3 
REMARK    2  A    between atoms: O_3  and  C_4 
REMARK    3  A    between atoms: C_7  and  C_8 
REMARK    4  A    between atoms: C_8  and  C_9 
REMARK    5  A    between atoms: C_10  and  C_11 
REMARK    6  A    between atoms: C_14  and  N_15 
REMARK    7  A    between atoms: N_20  and  C_21 
REMARK    8  A    between atoms: C_21  and  C_22 
REMARK    9  A    between atoms: C_22  and  N_23 
REMARK   10  A    between atoms: C_34  and  O_35 
ROOT
HETATM    1  C   UNL     1      25.611  42.733  49.474  1.00  0.00     0.059 C 
HETATM    2  C   UNL     1      24.963  44.080  49.541  1.00  0.00     0.161 C 
HETATM    3  N   UNL     1      23.542  43.724  49.495  1.00  0.00    -0.332 N 
HETATM    4  C   UNL     1      23.399  42.392  49.140  1.00  0.00     0.278 C 
HETATM    5  O   UNL     1      22.355  41.870  48.785  1.00  0.00    -0.265 OA
HETATM    6  C   UNL     1      24.719  41.754  49.258  1.00  0.00     0.146 C 
ENDROOT
BRANCH   1   7
HETATM    7  C   UNL     1      27.030  42.379  49.672  1.00  0.00     0.193 C 
HETATM    8  O   UNL     1      27.704  42.083  48.685  1.00  0.00    -0.287 OA
BRANCH   7   9
HETATM    9  C   UNL     1      27.655  42.353  51.013  1.00  0.00     0.015 A 
HETATM   10  C   UNL     1      27.449  41.308  51.921  1.00  0.00     0.018 A 
HETATM   11  C   UNL     1      28.023  41.367  53.196  1.00  0.00     0.038 A 
HETATM   12  C   UNL     1      28.779  42.477  53.570  1.00  0.00     0.069 A 
HETATM   13  C   UNL     1      28.945  43.541  52.689  1.00  0.00     0.038 A 
HETATM   14  C   UNL     1      28.392  43.477  51.408  1.00  0.00     0.018 A 
BRANCH  12  15
HETATM   15  O   UNL     1      29.259  42.633  54.838  1.00  0.00    -0.347 OA
BRANCH  15  16
HETATM   16  C   UNL     1      30.161  43.739  54.993  1.00  0.00     0.120 C 
HETATM   17  C   UNL     1      31.271  43.334  55.957  1.00  0.00     0.040 C 
HETATM   18  C   UNL     1      29.357  44.901  55.570  1.00  0.00     0.040 C 
ENDBRANCH  15  16
ENDBRANCH  12  15
ENDBRANCH   7   9
ENDBRANCH   1   7
BRANCH   2  19
HETATM   19  C   UNL     1      25.288  44.945  50.739  1.00  0.00    -0.030 A 
HETATM   20  C   UNL     1      25.928  46.183  50.536  1.00  0.00     0.012 A 
HETATM   21  C   UNL     1      26.234  47.023  51.610  1.00  0.00     0.037 A 
HETATM   22  C   UNL     1      25.901  46.627  52.910  1.00  0.00     0.102 A 
HETATM   23  C   UNL     1      25.264  45.399  53.134  1.00  0.00     0.037 A 
HETATM   24  C   UNL     1      24.955  44.568  52.051  1.00  0.00     0.012 A 
BRANCH  22  25
HETATM   25  N   UNL     1      26.201  47.517  54.040  1.00  0.00    -0.116 N 
HETATM   26  O   UNL     1      25.312  48.303  54.397  1.00  0.00    -0.532 OA
HETATM   27  O   UNL     1      27.307  47.400  54.581  1.00  0.00    -0.532 OA
ENDBRANCH  22  25
ENDBRANCH   2  19
BRANCH   6  28
HETATM   28  O   UNL     1      24.914  40.408  49.159  1.00  0.00    -0.355 OA
HETATM   29  H   UNL     1      25.852  40.261  48.890  1.00  0.00     0.218 HD
ENDBRANCH   6  28
BRANCH   3  30
HETATM   30  C   UNL     1      22.487  44.702  49.257  1.00  0.00     0.155 C 
BRANCH  30  31
HETATM   31  C   UNL     1      22.981  46.027  48.605  1.00  0.00     0.254 C 
BRANCH  31  32
HETATM   32  N   UNL     1      22.450  47.280  49.327  1.00  0.00    -0.066 N 
HETATM   33  H   UNL     1      22.272  46.967  50.295  1.00  0.00     0.280 HD
HETATM   34  C   UNL     1      21.088  47.751  48.798  1.00  0.00     0.262 C 
HETATM   35  C   UNL     1      21.208  48.600  47.508  1.00  0.00     0.260 C 
HETATM   36  N   UNL     1      22.174  49.742  47.696  1.00  0.00    -0.072 N 
HETATM   37  H   UNL     1      21.794  50.461  48.333  1.00  0.00     0.277 HD
HETATM   38  H   UNL     1      22.282  50.238  46.794  1.00  0.00     0.277 HD
HETATM   39  C   UNL     1      23.545  49.292  48.144  1.00  0.00     0.260 C 
HETATM   40  C   UNL     1      23.450  48.445  49.439  1.00  0.00     0.262 C 
ENDBRANCH  31  32
ENDBRANCH  30  31
ENDBRANCH   3  30
TORSDOF 10
ENDMDL
MODEL 3
REMARK VINA RESULT:      -8.6      2.626      5.190
REMARK  10 active torsions:
REMARK  status: ('A' for Active; 'I' for Inactive)
REMARK    1  A    between atoms: C_2  and  O_3 
REMARK    2  A    between atoms: O_3  and  C_4 
REMARK    3  A    between atoms: C_7  and  C_8 
REMARK    4  A    between atoms: C_8  and  C_9 
REMARK    5  A    between atoms: C_10  and  C_11 
REMARK    6  A    between atoms: C_14  and  N_15 
REMARK    7  A    between atoms: N_20  and  C_21 
REMARK    8  A    between atoms: C_21  and  C_22 
REMARK    9  A    between atoms: C_22  and  N_23 
REMARK   10  A    between atoms: C_34  and  O_35 
ROOT
HETATM    1  C   UNL     1      25.695  45.321  52.197  1.00  0.00     0.059 C 
HETATM    2  C   UNL     1      25.839  45.470  50.716  1.00  0.00     0.161 C 
HETATM    3  N   UNL     1      25.031  44.347  50.230  1.00  0.00    -0.332 N 
HETATM    4  C   UNL     1      24.724  43.496  51.279  1.00  0.00     0.278 C 
HETATM    5  O   UNL     1      24.281  42.366  51.157  1.00  0.00    -0.265 OA
HETATM    6  C   UNL     1      25.043  44.197  52.532  1.00  0.00     0.146 C 
ENDROOT
BRANCH   1   7
HETATM    7  C   UNL     1      26.111  46.253  53.264  1.00  0.00     0.193 C 
HETATM    8  O   UNL     1      25.444  47.272  53.445  1.00  0.00    -0.287 OA
BRANCH   7   9
HETATM    9  C   UNL     1      27.305  46.008  54.102  1.00  0.00     0.015 A 
HETATM   10  C   UNL     1      27.869  46.993  54.920  1.00  0.00     0.018 A 
HETATM   11  C   UNL     1      29.032  46.717  55.647  1.00  0.00     0.038 A 
HETATM   12  C   UNL     1      29.643  45.469  55.538  1.00  0.00     0.069 A 
HETATM   13  C   UNL     1      29.115  44.502  54.688  1.00  0.00     0.038 A 
HETATM   14  C   UNL     1      27.943  44.766  53.976  1.00  0.00     0.018 A 
BRANCH  12  15
HETATM   15  O   UNL     1      30.839  45.193  56.134  1.00  0.00    -0.347 OA
BRANCH  15  16
HETATM   16  C   UNL     1      30.742  44.323  57.271  1.00  0.00     0.120 C 
HETATM   17  C   UNL     1      30.916  45.152  58.540  1.00  0.00     0.040 C 
HETATM   18  C   UNL     1      31.864  43.296  57.153  1.00  0.00     0.040 C 
ENDBRANCH  15  16
ENDBRANCH  12  15
ENDBRANCH   7   9
ENDBRANCH   1   7
BRANCH   2  19
HETATM   19  C   UNL     1      25.400  46.783  50.106  1.00  0.00    -0.030 A 
HETATM   20  C   UNL     1      24.025  47.072  50.018  1.00  0.00     0.012 A 
HETATM   21  C   UNL     1      23.574  48.278  49.477  1.00  0.00     0.037 A 
HETATM   22  C   UNL     1      24.503  49.215  49.011  1.00  0.00     0.102 A 
HETATM   23  C   UNL     1      25.876  48.946  49.087  1.00  0.00     0.037 A 
HETATM   24  C   UNL     1      26.319  47.739  49.639  1.00  0.00     0.012 A 
BRANCH  22  25
HETATM   25  N   UNL     1      24.033  50.493  48.461  1.00  0.00    -0.116 N 
HETATM   26  O   UNL     1      24.467  50.830  47.351  1.00  0.00    -0.532 OA
HETATM   27  O   UNL     1      23.209  51.133  49.126  1.00  0.00    -0.532 OA
ENDBRANCH  22  25
ENDBRANCH   2  19
BRANCH   6  28
HETATM   28  O   UNL     1      24.700  43.726  53.764  1.00  0.00    -0.355 OA
HETATM   29  H   UNL     1      24.163  44.423  54.211  1.00  0.00     0.218 HD
ENDBRANCH   6  28
BRANCH   3  30
HETATM   30  C   UNL     1      25.068  43.884  48.847  1.00  0.00     0.155 C 
BRANCH  30  31
HETATM   31  C   UNL     1      23.678  43.856  48.146  1.00  0.00     0.254 C 
BRANCH  31  32
HETATM   32  N   UNL     1      23.115  42.430  47.997  1.00  0.00    -0.066 N 
HETATM   33  H   UNL     1      22.686  42.222  48.914  1.00  0.00     0.280 HD
HETATM   34  C   UNL     1      24.205  41.366  47.810  1.00  0.00     0.262 C 
HETATM   35  C   UNL     1      24.707  41.274  46.348  1.00  0.00     0.260 C 
HETATM   36  N   UNL     1      23.558  41.087  45.390  1.00  0.00    -0.072 N 
HETATM   37  H   UNL     1      23.135  40.150  45.480  1.00  0.00     0.277 HD
HETATM   38  H   UNL     1      23.926  41.105  44.422  1.00  0.00     0.277 HD
HETATM   39  C   UNL     1      22.509  42.169  45.505  1.00  0.00     0.260 C 
HETATM   40  C   UNL     1      21.987  42.275  46.961  1.00  0.00     0.262 C 
ENDBRANCH  31  32
ENDBRANCH  30  31
ENDBRANCH   3  30
TORSDOF 10
ENDMDL
MODEL 4
REMARK VINA RESULT:      -8.4      1.535      2.059
REMARK  10 active torsions:
REMARK  status: ('A' for Active; 'I' for Inactive)
REMARK    1  A    between atoms: C_2  and  O_3 
REMARK    2  A    between atoms: O_3  and  C_4 
REMARK    3  A    between atoms: C_7  and  C_8 
REMARK    4  A    between atoms: C_8  and  C_9 
REMARK    5  A    between atoms: C_10  and  C_11 
REMARK    6  A    between atoms: C_14  and  N_15 
REMARK    7  A    between atoms: N_20  and  C_21 
REMARK    8  A    between atoms: C_21  and  C_22 
REMARK    9  A    between atoms: C_22  and  N_23 
REMARK   10  A    between atoms: C_34  and  O_35 
ROOT
HETATM    1  C   UNL     1      25.208  45.364  52.511  1.00  0.00     0.059 C 
HETATM    2  C   UNL     1      24.773  44.624  51.286  1.00  0.00     0.161 C 
HETATM    3  N   UNL     1      24.783  45.691  50.281  1.00  0.00    -0.332 N 
HETATM    4  C   UNL     1      24.904  46.924  50.901  1.00  0.00     0.278 C 
HETATM    5  O   UNL     1      24.700  48.001  50.364  1.00  0.00    -0.265 OA
HETATM    6  C   UNL     1      25.301  46.685  52.297  1.00  0.00     0.146 C 
ENDROOT
BRANCH   1   7
HETATM    7  C   UNL     1      25.587  44.824  53.832  1.00  0.00     0.193 C 
HETATM    8  O   UNL     1      24.696  44.411  54.574  1.00  0.00    -0.287 OA
BRANCH   7   9
HETATM    9  C   UNL     1      26.993  44.782  54.291  1.00  0.00     0.015 A 
HETATM   10  C   UNL     1      27.845  43.706  54.018  1.00  0.00     0.018 A 
HETATM   11  C   UNL     1      29.148  43.699  54.528  1.00  0.00     0.038 A 
HETATM   12  C   UNL     1      29.590  44.752  55.328  1.00  0.00     0.069 A 
HETATM   13  C   UNL     1      28.731  45.800  55.644  1.00  0.00     0.038 A 
HETATM   14  C   UNL     1      27.437  45.821  55.120  1.00  0.00     0.018 A 
BRANCH  12  15
HETATM   15  O   UNL     1      30.808  44.733  55.942  1.00  0.00    -0.347 OA
BRANCH  15  16
HETATM   16  C   UNL     1      30.813  44.079  57.219  1.00  0.00     0.120 C 
HETATM   17  C   UNL     1      31.019  45.129  58.307  1.00  0.00     0.040 C 
HETATM   18  C   UNL     1      31.972  43.086  57.215  1.00  0.00     0.040 C 
ENDBRANCH  15  16
ENDBRANCH  12  15
ENDBRANCH   7   9
ENDBRANCH   1   7
BRANCH   2  19
HETATM   19  C   UNL     1      25.612  43.440  50.857  1.00  0.00    -0.030 A 
HETATM   20  C   UNL     1      25.065  42.145  50.949  1.00  0.00     0.012 A 
HETATM   21  C   UNL     1      25.797  41.024  50.550  1.00  0.00     0.037 A 
HETATM   22  C   UNL     1      27.095  41.187  50.055  1.00  0.00     0.102 A 
HETATM   23  C   UNL     1      27.657  42.467  49.958  1.00  0.00     0.037 A 
HETATM   24  C   UNL     1      26.915  43.586  50.351  1.00  0.00     0.012 A 
BRANCH  22  25
HETATM   25  N   UNL     1      27.859  40.012  49.614  1.00  0.00    -0.116 N 
HETATM   26  O   UNL     1      27.551  39.509  48.525  1.00  0.00    -0.532 OA
HETATM   27  O   UNL     1      28.779  39.623  50.344  1.00  0.00    -0.532 OA
ENDBRANCH  22  25
ENDBRANCH   2  19
BRANCH   6  28
HETATM   28  O   UNL     1      25.684  47.679  53.149  1.00  0.00    -0.355 OA
HETATM   29  H   UNL     1      26.274  48.291  52.647  1.00  0.00     0.218 HD
ENDBRANCH   6  28
BRANCH   3  30
HETATM   30  C   UNL     1      24.168  45.547  48.966  1.00  0.00     0.155 C 
BRANCH  30  31
HETATM   31  C   UNL     1      23.431  44.193  48.751  1.00  0.00     0.254 C 
BRANCH  31  32
HETATM   32  N   UNL     1      23.787  43.527  47.408  1.00  0.00    -0.066 N 
HETATM   33  H   UNL     1      24.689  43.950  47.139  1.00  0.00     0.280 HD
HETATM   34  C   UNL     1      22.816  43.891  46.277  1.00  0.00     0.262 C 
HETATM   35  C   UNL     1      21.520  43.043  46.303  1.00  0.00     0.260 C 
HETATM   36  N   UNL     1      21.836  41.569  46.332  1.00  0.00    -0.072 N 
HETATM   37  H   UNL     1      22.228  41.246  45.433  1.00  0.00     0.277 HD
HETATM   38  H   UNL     1      20.950  41.041  46.424  1.00  0.00     0.277 HD
HETATM   39  C   UNL     1      22.730  41.177  47.486  1.00  0.00     0.260 C 
HETATM   40  C   UNL     1      24.038  42.009  47.475  1.00  0.00     0.262 C 
ENDBRANCH  31  32
ENDBRANCH  30  31
ENDBRANCH   3  30
TORSDOF 10
ENDMDL
MODEL 5
REMARK VINA RESULT:      -8.3      6.421     10.718
REMARK  10 active torsions:
REMARK  status: ('A' for Active; 'I' for Inactive)
REMARK    1  A    between atoms: C_2  and  O_3 
REMARK    2  A    between atoms: O_3  and  C_4 
REMARK    3  A    between atoms: C_7  and  C_8 
REMARK    4  A    between atoms: C_8  and  C_9 
REMARK    5  A    between atoms: C_10  and  C_11 
REMARK    6  A    between atoms: C_14  and  N_15 
REMARK    7  A    between atoms: N_20  and  C_21 
REMARK    8  A    between atoms: C_21  and  C_22 
REMARK    9  A    between atoms: C_22  and  N_23 
REMARK   10  A    between atoms: C_34  and  O_35 
ROOT
HETATM    1  C   UNL     1      22.357  48.769  48.853  1.00  0.00     0.059 C 
HETATM    2  C   UNL     1      21.680  48.063  47.722  1.00  0.00     0.161 C 
HETATM    3  N   UNL     1      22.183  46.696  47.888  1.00  0.00    -0.332 N 
HETATM    4  C   UNL     1      23.235  46.685  48.789  1.00  0.00     0.278 C 
HETATM    5  O   UNL     1      24.009  45.756  48.950  1.00  0.00    -0.265 OA
HETATM    6  C   UNL     1      23.243  47.982  49.483  1.00  0.00     0.146 C 
ENDROOT
BRANCH   1   7
HETATM    7  C   UNL     1      22.124  50.135  49.362  1.00  0.00     0.193 C 
HETATM    8  O   UNL     1      23.065  50.735  49.883  1.00  0.00    -0.287 OA
BRANCH   7   9
HETATM    9  C   UNL     1      20.800  50.790  49.280  1.00  0.00     0.015 A 
HETATM   10  C   UNL     1      20.510  51.793  48.349  1.00  0.00     0.018 A 
HETATM   11  C   UNL     1      19.256  52.414  48.358  1.00  0.00     0.038 A 
HETATM   12  C   UNL     1      18.304  52.051  49.310  1.00  0.00     0.069 A 
HETATM   13  C   UNL     1      18.605  51.089  50.270  1.00  0.00     0.038 A 
HETATM   14  C   UNL     1      19.847  50.452  50.251  1.00  0.00     0.018 A 
BRANCH  12  15
HETATM   15  O   UNL     1      17.114  52.707  49.432  1.00  0.00    -0.347 OA
BRANCH  15  16
HETATM   16  C   UNL     1      15.961  51.869  49.265  1.00  0.00     0.120 C 
HETATM   17  C   UNL     1      15.626  51.787  47.779  1.00  0.00     0.040 C 
HETATM   18  C   UNL     1      14.813  52.520  50.031  1.00  0.00     0.040 C 
ENDBRANCH  15  16
ENDBRANCH  12  15
ENDBRANCH   7   9
ENDBRANCH   1   7
BRANCH   2  19
HETATM   19  C   UNL     1      20.168  48.105  47.685  1.00  0.00    -0.030 A 
HETATM   20  C   UNL     1      19.528  48.808  46.647  1.00  0.00     0.012 A 
HETATM   21  C   UNL     1      18.135  48.862  46.563  1.00  0.00     0.037 A 
HETATM   22  C   UNL     1      17.361  48.208  47.528  1.00  0.00     0.102 A 
HETATM   23  C   UNL     1      17.978  47.504  48.570  1.00  0.00     0.037 A 
HETATM   24  C   UNL     1      19.374  47.448  48.641  1.00  0.00     0.012 A 
BRANCH  22  25
HETATM   25  N   UNL     1      15.895  48.244  47.431  1.00  0.00    -0.116 N 
HETATM   26  O   UNL     1      15.256  48.305  48.489  1.00  0.00    -0.532 OA
HETATM   27  O   UNL     1      15.398  48.245  46.298  1.00  0.00    -0.532 OA
ENDBRANCH  22  25
ENDBRANCH   2  19
BRANCH   6  28
HETATM   28  O   UNL     1      24.031  48.251  50.562  1.00  0.00    -0.355 OA
HETATM   29  H   UNL     1      24.689  47.519  50.642  1.00  0.00     0.218 HD
ENDBRANCH   6  28
BRANCH   3  30
HETATM   30  C   UNL     1      22.034  45.667  46.864  1.00  0.00     0.155 C 
BRANCH  30  31
HETATM   31  C   UNL     1      20.927  44.617  47.172  1.00  0.00     0.254 C 
BRANCH  31  32
HETATM   32  N   UNL     1      20.295  44.027  45.896  1.00  0.00    -0.066 N 
HETATM   33  H   UNL     1      20.746  43.104  45.786  1.00  0.00     0.280 HD
HETATM   34  C   UNL     1      20.658  44.808  44.625  1.00  0.00     0.262 C 
HETATM   35  C   UNL     1      19.779  46.067  44.425  1.00  0.00     0.260 C 
HETATM   36  N   UNL     1      18.312  45.721  44.484  1.00  0.00    -0.072 N 
HETATM   37  H   UNL     1      18.016  45.178  43.657  1.00  0.00     0.277 HD
HETATM   38  H   UNL     1      17.761  46.595  44.421  1.00  0.00     0.277 HD
HETATM   39  C   UNL     1      17.919  45.018  45.763  1.00  0.00     0.260 C 
HETATM   40  C   UNL     1      18.783  43.750  45.981  1.00  0.00     0.262 C 
ENDBRANCH  31  32
ENDBRANCH  30  31
ENDBRANCH   3  30
TORSDOF 10
ENDMDL
MODEL 6
REMARK VINA RESULT:      -8.1      6.156     10.843
REMARK  10 active torsions:
REMARK  status: ('A' for Active; 'I' for Inactive)
REMARK    1  A    between atoms: C_2  and  O_3 
REMARK    2  A    between atoms: O_3  and  C_4 
REMARK    3  A    between atoms: C_7  and  C_8 
REMARK    4  A    between atoms: C_8  and  C_9 
REMARK    5  A    between atoms: C_10  and  C_11 
REMARK    6  A    between atoms: C_14  and  N_15 
REMARK    7  A    between atoms: N_20  and  C_21 
REMARK    8  A    between atoms: C_21  and  C_22 
REMARK    9  A    between atoms: C_22  and  N_23 
REMARK   10  A    between atoms: C_34  and  O_35 
ROOT
HETATM    1  C   UNL     1      22.278  48.705  48.792  1.00  0.00     0.059 C 
HETATM    2  C   UNL     1      21.616  48.056  47.618  1.00  0.00     0.161 C 
HETATM    3  N   UNL     1      22.084  46.673  47.746  1.00  0.00    -0.332 N 
HETATM    4  C   UNL     1      23.110  46.605  48.675  1.00  0.00     0.278 C 
HETATM    5  O   UNL     1      23.859  45.653  48.822  1.00  0.00    -0.265 OA
HETATM    6  C   UNL     1      23.128  47.875  49.416  1.00  0.00     0.146 C 
ENDROOT
BRANCH   1   7
HETATM    7  C   UNL     1      22.061  50.057  49.344  1.00  0.00     0.193 C 
HETATM    8  O   UNL     1      23.005  50.622  49.898  1.00  0.00    -0.287 OA
BRANCH   7   9
HETATM    9  C   UNL     1      20.750  50.738  49.268  1.00  0.00     0.015 A 
HETATM   10  C   UNL     1      20.491  51.779  48.370  1.00  0.00     0.018 A 
HETATM   11  C   UNL     1      19.247  52.421  48.384  1.00  0.00     0.038 A 
HETATM   12  C   UNL     1      18.276  52.040  49.309  1.00  0.00     0.069 A 
HETATM   13  C   UNL     1      18.546  51.040  50.237  1.00  0.00     0.038 A 
HETATM   14  C   UNL     1      19.778  50.382  50.213  1.00  0.00     0.018 A 
BRANCH  12  15
HETATM   15  O   UNL     1      17.096  52.713  49.438  1.00  0.00    -0.347 OA
BRANCH  15  16
HETATM   16  C   UNL     1      15.931  51.897  49.248  1.00  0.00     0.120 C 
HETATM   17  C   UNL     1      15.585  51.873  47.762  1.00  0.00     0.040 C 
HETATM   18  C   UNL     1      14.797  52.535  50.045  1.00  0.00     0.040 C 
ENDBRANCH  15  16
ENDBRANCH  12  15
ENDBRANCH   7   9
ENDBRANCH   1   7
BRANCH   2  19
HETATM   19  C   UNL     1      20.107  48.135  47.543  1.00  0.00    -0.030 A 
HETATM   20  C   UNL     1      19.337  47.436  48.493  1.00  0.00     0.012 A 
HETATM   21  C   UNL     1      17.941  47.491  48.472  1.00  0.00     0.037 A 
HETATM   22  C   UNL     1      17.296  48.251  47.490  1.00  0.00     0.102 A 
HETATM   23  C   UNL     1      18.044  48.952  46.535  1.00  0.00     0.037 A 
HETATM   24  C   UNL     1      19.442  48.898  46.568  1.00  0.00     0.012 A 
BRANCH  22  25
HETATM   25  N   UNL     1      15.829  48.329  47.478  1.00  0.00    -0.116 N 
HETATM   26  O   UNL     1      15.272  48.417  46.376  1.00  0.00    -0.532 OA
HETATM   27  O   UNL     1      15.245  48.267  48.567  1.00  0.00    -0.532 OA
ENDBRANCH  22  25
ENDBRANCH   2  19
BRANCH   6  28
HETATM   28  O   UNL     1      23.892  48.087  50.525  1.00  0.00    -0.355 OA
HETATM   29  H   UNL     1      24.761  48.446  50.224  1.00  0.00     0.218 HD
ENDBRANCH   6  28
BRANCH   3  30
HETATM   30  C   UNL     1      21.940  45.686  46.682  1.00  0.00     0.155 C 
BRANCH  30  31
HETATM   31  C   UNL     1      21.758  44.225  47.188  1.00  0.00     0.254 C 
BRANCH  31  32
HETATM   32  N   UNL     1      22.870  43.280  46.694  1.00  0.00    -0.066 N 
HETATM   33  H   UNL     1      23.564  43.905  46.251  1.00  0.00     0.280 HD
HETATM   34  C   UNL     1      22.408  42.334  45.576  1.00  0.00     0.262 C 
HETATM   35  C   UNL     1      21.656  41.093  46.116  1.00  0.00     0.260 C 
HETATM   36  N   UNL     1      22.467  40.381  47.169  1.00  0.00    -0.072 N 
HETATM   37  H   UNL     1      23.291  39.911  46.761  1.00  0.00     0.277 HD
HETATM   38  H   UNL     1      21.901  39.604  47.556  1.00  0.00     0.277 HD
HETATM   39  C   UNL     1      22.867  41.278  48.317  1.00  0.00     0.260 C 
HETATM   40  C   UNL     1      23.629  42.525  47.800  1.00  0.00     0.262 C 
ENDBRANCH  31  32
ENDBRANCH  30  31
ENDBRANCH   3  30
TORSDOF 10
ENDMDL
MODEL 7
REMARK VINA RESULT:      -8.0      3.217      4.910
REMARK  10 active torsions:
REMARK  status: ('A' for Active; 'I' for Inactive)
REMARK    1  A    between atoms: C_2  and  O_3 
REMARK    2  A    between atoms: O_3  and  C_4 
REMARK    3  A    between atoms: C_7  and  C_8 
REMARK    4  A    between atoms: C_8  and  C_9 
REMARK    5  A    between atoms: C_10  and  C_11 
REMARK    6  A    between atoms: C_14  and  N_15 
REMARK    7  A    between atoms: N_20  and  C_21 
REMARK    8  A    between atoms: C_21  and  C_22 
REMARK    9  A    between atoms: C_22  and  N_23 
REMARK   10  A    between atoms: C_34  and  O_35 
ROOT
HETATM    1  C   UNL     1      24.831  48.222  49.226  1.00  0.00     0.059 C 
HETATM    2  C   UNL     1      23.531  47.513  49.437  1.00  0.00     0.161 C 
HETATM    3  N   UNL     1      22.659  48.216  48.492  1.00  0.00    -0.332 N 
HETATM    4  C   UNL     1      23.285  49.363  48.032  1.00  0.00     0.278 C 
HETATM    5  O   UNL     1      22.732  50.271  47.434  1.00  0.00    -0.265 OA
HETATM    6  C   UNL     1      24.705  49.278  48.409  1.00  0.00     0.146 C 
ENDROOT
BRANCH   1   7
HETATM    7  C   UNL     1      26.170  47.868  49.737  1.00  0.00     0.193 C 
HETATM    8  O   UNL     1      27.130  48.559  49.394  1.00  0.00    -0.287 OA
BRANCH   7   9
HETATM    9  C   UNL     1      26.392  46.708  50.628  1.00  0.00     0.015 A 
HETATM   10  C   UNL     1      26.143  46.753  52.004  1.00  0.00     0.018 A 
HETATM   11  C   UNL     1      26.425  45.639  52.803  1.00  0.00     0.038 A 
HETATM   12  C   UNL     1      26.977  44.493  52.232  1.00  0.00     0.069 A 
HETATM   13  C   UNL     1      27.272  44.460  50.873  1.00  0.00     0.038 A 
HETATM   14  C   UNL     1      26.973  45.561  50.068  1.00  0.00     0.018 A 
BRANCH  12  15
HETATM   15  O   UNL     1      27.376  43.429  52.986  1.00  0.00    -0.347 OA
BRANCH  15  16
HETATM   16  C   UNL     1      28.800  43.275  53.078  1.00  0.00     0.120 C 
HETATM   17  C   UNL     1      29.143  41.794  52.944  1.00  0.00     0.040 C 
HETATM   18  C   UNL     1      29.224  43.794  54.449  1.00  0.00     0.040 C 
ENDBRANCH  15  16
ENDBRANCH  12  15
ENDBRANCH   7   9
ENDBRANCH   1   7
BRANCH   2  19
HETATM   19  C   UNL     1      23.514  46.017  49.212  1.00  0.00    -0.030 A 
HETATM   20  C   UNL     1      23.464  45.158  50.328  1.00  0.00     0.012 A 
HETATM   21  C   UNL     1      23.431  43.770  50.169  1.00  0.00     0.037 A 
HETATM   22  C   UNL     1      23.450  43.223  48.882  1.00  0.00     0.102 A 
HETATM   23  C   UNL     1      23.502  44.060  47.759  1.00  0.00     0.037 A 
HETATM   24  C   UNL     1      23.526  45.449  47.927  1.00  0.00     0.012 A 
BRANCH  22  25
HETATM   25  N   UNL     1      23.393  41.765  48.711  1.00  0.00    -0.116 N 
HETATM   26  O   UNL     1      22.295  41.267  48.430  1.00  0.00    -0.532 OA
HETATM   27  O   UNL     1      24.452  41.135  48.824  1.00  0.00    -0.532 OA
ENDBRANCH  22  25
ENDBRANCH   2  19
BRANCH   6  28
HETATM   28  O   UNL     1      25.653  50.150  47.962  1.00  0.00    -0.355 OA
HETATM   29  H   UNL     1      26.307  50.278  48.689  1.00  0.00     0.218 HD
ENDBRANCH   6  28
BRANCH   3  30
HETATM   30  C   UNL     1      21.206  48.084  48.505  1.00  0.00     0.155 C 
BRANCH  30  31
HETATM   31  C   UNL     1      20.483  49.083  49.456  1.00  0.00     0.254 C 
BRANCH  31  32
HETATM   32  N   UNL     1      20.004  50.355  48.731  1.00  0.00    -0.066 N 
HETATM   33  H   UNL     1      20.872  50.816  48.414  1.00  0.00     0.280 HD
HETATM   34  C   UNL     1      19.327  51.365  49.667  1.00  0.00     0.262 C 
HETATM   35  C   UNL     1      17.844  51.020  49.949  1.00  0.00     0.260 C 
HETATM   36  N   UNL     1      17.077  50.828  48.666  1.00  0.00    -0.072 N 
HETATM   37  H   UNL     1      16.947  51.721  48.162  1.00  0.00     0.277 HD
HETATM   38  H   UNL     1      16.113  50.527  48.896  1.00  0.00     0.277 HD
HETATM   39  C   UNL     1      17.685  49.780  47.762  1.00  0.00     0.260 C 
HETATM   40  C   UNL     1      19.169  50.110  47.460  1.00  0.00     0.262 C 
ENDBRANCH  31  32
ENDBRANCH  30  31
ENDBRANCH   3  30
TORSDOF 10
ENDMDL
MODEL 8
REMARK VINA RESULT:      -8.0      6.920     10.461
REMARK  10 active torsions:
REMARK  status: ('A' for Active; 'I' for Inactive)
REMARK    1  A    between atoms: C_2  and  O_3 
REMARK    2  A    between atoms: O_3  and  C_4 
REMARK    3  A    between atoms: C_7  and  C_8 
REMARK    4  A    between atoms: C_8  and  C_9 
REMARK    5  A    between atoms: C_10  and  C_11 
REMARK    6  A    between atoms: C_14  and  N_15 
REMARK    7  A    between atoms: N_20  and  C_21 
REMARK    8  A    between atoms: C_21  and  C_22 
REMARK    9  A    between atoms: C_22  and  N_23 
REMARK   10  A    between atoms: C_34  and  O_35 
ROOT
HETATM    1  C   UNL     1      16.389  50.925  48.116  1.00  0.00     0.059 C 
HETATM    2  C   UNL     1      16.247  49.455  47.881  1.00  0.00     0.161 C 
HETATM    3  N   UNL     1      15.547  49.431  46.593  1.00  0.00    -0.332 N 
HETATM    4  C   UNL     1      15.079  50.698  46.285  1.00  0.00     0.278 C 
HETATM    5  O   UNL     1      14.261  50.951  45.416  1.00  0.00    -0.265 OA
HETATM    6  C   UNL     1      15.733  51.650  47.196  1.00  0.00     0.146 C 
ENDROOT
BRANCH   1   7
HETATM    7  C   UNL     1      17.177  51.624  49.150  1.00  0.00     0.193 C 
HETATM    8  O   UNL     1      16.598  52.416  49.893  1.00  0.00    -0.287 OA
BRANCH   7   9
HETATM    9  C   UNL     1      18.634  51.414  49.305  1.00  0.00     0.015 A 
HETATM   10  C   UNL     1      19.568  51.895  48.381  1.00  0.00     0.018 A 
HETATM   11  C   UNL     1      20.929  51.616  48.553  1.00  0.00     0.038 A 
HETATM   12  C   UNL     1      21.350  50.838  49.631  1.00  0.00     0.069 A 
HETATM   13  C   UNL     1      20.420  50.315  50.525  1.00  0.00     0.038 A 
HETATM   14  C   UNL     1      19.064  50.609  50.368  1.00  0.00     0.018 A 
BRANCH  12  15
HETATM   15  O   UNL     1      22.648  50.443  49.775  1.00  0.00    -0.347 OA
BRANCH  15  16
HETATM   16  C   UNL     1      23.074  49.463  48.816  1.00  0.00     0.120 C 
HETATM   17  C   UNL     1      23.602  48.242  49.564  1.00  0.00     0.040 C 
HETATM   18  C   UNL     1      24.186  50.096  47.985  1.00  0.00     0.040 C 
ENDBRANCH  15  16
ENDBRANCH  12  15
ENDBRANCH   7   9
ENDBRANCH   1   7
BRANCH   2  19
HETATM   19  C   UNL     1      17.517  48.633  47.845  1.00  0.00    -0.030 A 
HETATM   20  C   UNL     1      18.484  48.911  46.860  1.00  0.00     0.012 A 
HETATM   21  C   UNL     1      19.679  48.190  46.798  1.00  0.00     0.037 A 
HETATM   22  C   UNL     1      19.919  47.172  47.727  1.00  0.00     0.102 A 
HETATM   23  C   UNL     1      18.969  46.879  48.714  1.00  0.00     0.037 A 
HETATM   24  C   UNL     1      17.778  47.612  48.774  1.00  0.00     0.012 A 
BRANCH  22  25
HETATM   25  N   UNL     1      21.183  46.426  47.678  1.00  0.00    -0.116 N 
HETATM   26  O   UNL     1      21.981  46.717  46.777  1.00  0.00    -0.532 OA
HETATM   27  O   UNL     1      21.382  45.580  48.559  1.00  0.00    -0.532 OA
ENDBRANCH  22  25
ENDBRANCH   2  19
BRANCH   6  28
HETATM   28  O   UNL     1      15.644  53.003  47.059  1.00  0.00    -0.355 OA
HETATM   29  H   UNL     1      15.874  53.408  47.929  1.00  0.00     0.218 HD
ENDBRANCH   6  28
BRANCH   3  30
HETATM   30  C   UNL     1      14.926  48.227  46.050  1.00  0.00     0.155 C 
BRANCH  30  31
HETATM   31  C   UNL     1      15.678  47.616  44.832  1.00  0.00     0.254 C 
BRANCH  31  32
HETATM   32  N   UNL     1      15.829  46.086  44.932  1.00  0.00    -0.066 N 
HETATM   33  H   UNL     1      15.112  45.798  45.618  1.00  0.00     0.280 HD
HETATM   34  C   UNL     1      17.169  45.650  45.541  1.00  0.00     0.262 C 
HETATM   35  C   UNL     1      18.324  45.653  44.510  1.00  0.00     0.260 C 
HETATM   36  N   UNL     1      17.964  44.847  43.288  1.00  0.00    -0.072 N 
HETATM   37  H   UNL     1      17.929  43.836  43.495  1.00  0.00     0.277 HD
HETATM   38  H   UNL     1      18.728  44.935  42.594  1.00  0.00     0.277 HD
HETATM   39  C   UNL     1      16.686  45.311  42.627  1.00  0.00     0.260 C 
HETATM   40  C   UNL     1      15.513  45.309  43.641  1.00  0.00     0.262 C 
ENDBRANCH  31  32
ENDBRANCH  30  31
ENDBRANCH   3  30
TORSDOF 10
ENDMDL
MODEL 9
REMARK VINA RESULT:      -7.9      2.986      9.018
REMARK  10 active torsions:
REMARK  status: ('A' for Active; 'I' for Inactive)
REMARK    1  A    between atoms: C_2  and  O_3 
REMARK    2  A    between atoms: O_3  and  C_4 
REMARK    3  A    between atoms: C_7  and  C_8 
REMARK    4  A    between atoms: C_8  and  C_9 
REMARK    5  A    between atoms: C_10  and  C_11 
REMARK    6  A    between atoms: C_14  and  N_15 
REMARK    7  A    between atoms: N_20  and  C_21 
REMARK    8  A    between atoms: C_21  and  C_22 
REMARK    9  A    between atoms: C_22  and  N_23 
REMARK   10  A    between atoms: C_34  and  O_35 
ROOT
HETATM    1  C   UNL     1      27.024  41.574  49.991  1.00  0.00     0.059 C 
HETATM    2  C   UNL     1      26.445  42.412  51.085  1.00  0.00     0.161 C 
HETATM    3  N   UNL     1      27.468  42.280  52.127  1.00  0.00    -0.332 N 
HETATM    4  C   UNL     1      28.352  41.266  51.797  1.00  0.00     0.278 C 
HETATM    5  O   UNL     1      29.154  40.758  52.564  1.00  0.00    -0.265 OA
HETATM    6  C   UNL     1      28.129  40.921  50.384  1.00  0.00     0.146 C 
ENDROOT
BRANCH   1   7
HETATM    7  C   UNL     1      26.576  41.444  48.590  1.00  0.00     0.193 C 
HETATM    8  O   UNL     1      27.386  41.677  47.692  1.00  0.00    -0.287 OA
BRANCH   7   9
HETATM    9  C   UNL     1      25.190  41.064  48.239  1.00  0.00     0.015 A 
HETATM   10  C   UNL     1      24.895  40.084  47.284  1.00  0.00     0.018 A 
HETATM   11  C   UNL     1      23.563  39.808  46.955  1.00  0.00     0.038 A 
HETATM   12  C   UNL     1      22.532  40.525  47.559  1.00  0.00     0.069 A 
HETATM   13  C   UNL     1      22.822  41.534  48.473  1.00  0.00     0.038 A 
HETATM   14  C   UNL     1      24.148  41.799  48.820  1.00  0.00     0.018 A 
BRANCH  12  15
HETATM   15  O   UNL     1      21.228  40.373  47.186  1.00  0.00    -0.347 OA
BRANCH  15  16
HETATM   16  C   UNL     1      20.997  40.533  45.779  1.00  0.00     0.120 C 
HETATM   17  C   UNL     1      20.527  41.960  45.517  1.00  0.00     0.040 C 
HETATM   18  C   UNL     1      19.911  39.537  45.382  1.00  0.00     0.040 C 
ENDBRANCH  15  16
ENDBRANCH  12  15
ENDBRANCH   7   9
ENDBRANCH   1   7
BRANCH   2  19
HETATM   19  C   UNL     1      26.152  43.862  50.766  1.00  0.00    -0.030 A 
HETATM   20  C   UNL     1      27.129  44.626  50.098  1.00  0.00     0.012 A 
HETATM   21  C   UNL     1      26.897  45.964  49.768  1.00  0.00     0.037 A 
HETATM   22  C   UNL     1      25.676  46.557  50.109  1.00  0.00     0.102 A 
HETATM   23  C   UNL     1      24.693  45.814  50.775  1.00  0.00     0.037 A 
HETATM   24  C   UNL     1      24.930  44.472  51.094  1.00  0.00     0.012 A 
BRANCH  22  25
HETATM   25  N   UNL     1      25.421  47.957  49.745  1.00  0.00    -0.116 N 
HETATM   26  O   UNL     1      24.293  48.410  49.982  1.00  0.00    -0.532 OA
HETATM   27  O   UNL     1      26.358  48.600  49.257  1.00  0.00    -0.532 OA
ENDBRANCH  22  25
ENDBRANCH   2  19
BRANCH   6  28
HETATM   28  O   UNL     1      28.944  40.088  49.677  1.00  0.00    -0.355 OA
HETATM   29  H   UNL     1      28.992  39.232  50.166  1.00  0.00     0.218 HD
ENDBRANCH   6  28
BRANCH   3  30
HETATM   30  C   UNL     1      27.249  42.692  53.509  1.00  0.00     0.155 C 
BRANCH  30  31
HETATM   31  C   UNL     1      28.063  43.949  53.937  1.00  0.00     0.254 C 
BRANCH  31  32
HETATM   32  N   UNL     1      27.329  44.805  54.987  1.00  0.00    -0.066 N 
HETATM   33  H   UNL     1      26.890  44.118  55.621  1.00  0.00     0.280 HD
HETATM   34  C   UNL     1      26.164  45.614  54.399  1.00  0.00     0.262 C 
HETATM   35  C   UNL     1      26.630  46.926  53.720  1.00  0.00     0.260 C 
HETATM   36  N   UNL     1      27.483  47.748  54.651  1.00  0.00    -0.072 N 
HETATM   37  H   UNL     1      26.927  48.149  55.423  1.00  0.00     0.277 HD
HETATM   38  H   UNL     1      27.834  48.576  54.138  1.00  0.00     0.277 HD
HETATM   39  C   UNL     1      28.680  46.992  55.182  1.00  0.00     0.260 C 
HETATM   40  C   UNL     1      28.237  45.677  55.873  1.00  0.00     0.262 C 
ENDBRANCH  31  32
ENDBRANCH  30  31
ENDBRANCH   3  30
TORSDOF 10
ENDMDL
MODEL 10
REMARK VINA RESULT:      -7.6     12.712     15.590
REMARK  10 active torsions:
REMARK  status: ('A' for Active; 'I' for Inactive)
REMARK    1  A    between atoms: C_2  and  O_3 
REMARK    2  A    between atoms: O_3  and  C_4 
REMARK    3  A    between atoms: C_7  and  C_8 
REMARK    4  A    between atoms: C_8  and  C_9 
REMARK    5  A    between atoms: C_10  and  C_11 
REMARK    6  A    between atoms: C_14  and  N_15 
REMARK    7  A    between atoms: N_20  and  C_21 
REMARK    8  A    between atoms: C_21  and  C_22 
REMARK    9  A    between atoms: C_22  and  N_23 
REMARK   10  A    between atoms: C_34  and  O_35 
ROOT
HETATM    1  C   UNL     1      30.521  51.891  41.249  1.00  0.00     0.059 C 
HETATM    2  C   UNL     1      31.504  50.889  40.733  1.00  0.00     0.161 C 
HETATM    3  N   UNL     1      32.419  50.764  41.870  1.00  0.00    -0.332 N 
HETATM    4  C   UNL     1      32.177  51.775  42.786  1.00  0.00     0.278 C 
HETATM    5  O   UNL     1      32.921  52.082  43.703  1.00  0.00    -0.265 OA
HETATM    6  C   UNL     1      30.890  52.397  42.436  1.00  0.00     0.146 C 
ENDROOT
BRANCH   1   7
HETATM    7  C   UNL     1      29.234  52.312  40.661  1.00  0.00     0.193 C 
HETATM    8  O   UNL     1      28.979  53.515  40.607  1.00  0.00    -0.287 OA
BRANCH   7   9
HETATM    9  C   UNL     1      28.244  51.336  40.155  1.00  0.00     0.015 A 
HETATM   10  C   UNL     1      27.614  50.401  40.983  1.00  0.00     0.018 A 
HETATM   11  C   UNL     1      26.727  49.467  40.436  1.00  0.00     0.038 A 
HETATM   12  C   UNL     1      26.491  49.451  39.062  1.00  0.00     0.069 A 
HETATM   13  C   UNL     1      27.152  50.346  38.227  1.00  0.00     0.038 A 
HETATM   14  C   UNL     1      28.022  51.294  38.771  1.00  0.00     0.018 A 
BRANCH  12  15
HETATM   15  O   UNL     1      25.728  48.488  38.469  1.00  0.00    -0.347 OA
BRANCH  15  16
HETATM   16  C   UNL     1      26.452  47.299  38.117  1.00  0.00     0.120 C 
HETATM   17  C   UNL     1      26.278  47.044  36.623  1.00  0.00     0.040 C 
HETATM   18  C   UNL     1      25.854  46.150  38.923  1.00  0.00     0.040 C 
ENDBRANCH  15  16
ENDBRANCH  12  15
ENDBRANCH   7   9
ENDBRANCH   1   7
BRANCH   2  19
HETATM   19  C   UNL     1      30.959  49.546  40.298  1.00  0.00    -0.030 A 
HETATM   20  C   UNL     1      31.005  49.197  38.935  1.00  0.00     0.012 A 
HETATM   21  C   UNL     1      30.528  47.962  38.489  1.00  0.00     0.037 A 
HETATM   22  C   UNL     1      29.994  47.056  39.412  1.00  0.00     0.102 A 
HETATM   23  C   UNL     1      29.939  47.384  40.773  1.00  0.00     0.037 A 
HETATM   24  C   UNL     1      30.426  48.620  41.212  1.00  0.00     0.012 A 
BRANCH  22  25
HETATM   25  N   UNL     1      29.512  45.747  38.950  1.00  0.00    -0.116 N 
HETATM   26  O   UNL     1      29.094  44.959  39.809  1.00  0.00    -0.532 OA
HETATM   27  O   UNL     1      29.524  45.531  37.732  1.00  0.00    -0.532 OA
ENDBRANCH  22  25
ENDBRANCH   2  19
BRANCH   6  28
HETATM   28  O   UNL     1      30.256  53.306  43.229  1.00  0.00    -0.355 OA
HETATM   29  H   UNL     1      29.345  52.967  43.403  1.00  0.00     0.218 HD
ENDBRANCH   6  28
BRANCH   3  30
HETATM   30  C   UNL     1      33.717  50.105  41.775  1.00  0.00     0.155 C 
BRANCH  30  31
HETATM   31  C   UNL     1      34.632  50.659  40.643  1.00  0.00     0.254 C 
BRANCH  31  32
HETATM   32  N   UNL     1      36.129  50.598  41.004  1.00  0.00    -0.066 N 
HETATM   33  H   UNL     1      36.406  49.625  40.799  1.00  0.00     0.280 HD
HETATM   34  C   UNL     1      36.397  50.788  42.503  1.00  0.00     0.262 C 
HETATM   35  C   UNL     1      36.400  52.277  42.927  1.00  0.00     0.260 C 
HETATM   36  N   UNL     1      37.344  53.084  42.072  1.00  0.00    -0.072 N 
HETATM   37  H   UNL     1      38.330  52.853  42.271  1.00  0.00     0.277 HD
HETATM   38  H   UNL     1      37.262  54.082  42.336  1.00  0.00     0.277 HD
HETATM   39  C   UNL     1      37.048  52.972  40.594  1.00  0.00     0.260 C 
HETATM   40  C   UNL     1      37.046  51.488  40.146  1.00  0.00     0.262 C 
ENDBRANCH  31  32
ENDBRANCH  30  31
ENDBRANCH   3  30
TORSDOF 10
ENDMDL
