MODEL 1
REMARK VINA RESULT:      -7.4      0.000      0.000
REMARK  2 active torsions:
REMARK  status: ('A' for Active; 'I' for Inactive)
REMARK    1  A    between atoms: C_8  and  N_9 
REMARK       I    between atoms: N_9  and  C_10 
REMARK       I    between atoms: C_10  and  N_11 
REMARK    2  A    between atoms: N_11  and  C_12 
ROOT
HETATM    1  N   UNL     1      24.027  48.091  49.078  1.00  0.00    -0.309 N 
HETATM    2  C   UNL     1      22.848  48.558  48.597  1.00  0.00     0.321 C 
HETATM    3  N   UNL     1      21.727  48.328  49.330  1.00  0.00    -0.337 N 
HETATM    4  O   UNL     1      22.819  49.221  47.560  1.00  0.00    -0.247 OA
HETATM    5  H   UNL     1      24.825  48.513  48.611  1.00  0.00     0.170 HD
HETATM    6  H   UNL     1      21.902  48.155  50.314  1.00  0.00     0.164 HD
ENDROOT
BRANCH   1   7
HETATM    7  C   UNL     1      24.341  47.063  49.991  1.00  0.00     0.037 A 
HETATM    8  C   UNL     1      25.004  47.274  51.207  1.00  0.00     0.051 A 
HETATM    9  C   UNL     1      25.216  46.171  52.060  1.00  0.00     0.037 A 
HETATM   10  S   UNL     1      25.984  46.125  53.602  1.00  0.00    -0.073 SA
HETATM   11  C   UNL     1      24.781  44.887  51.737  1.00  0.00     0.075 A 
HETATM   12  C   UNL     1      25.681  44.440  53.707  1.00  0.00     0.072 A 
HETATM   13  C   UNL     1      26.106  43.660  54.903  1.00  0.00     0.079 C 
HETATM   14  N   UNL     1      25.057  43.913  52.676  1.00  0.00    -0.245 NA
HETATM   15  C   UNL     1      24.101  44.694  50.521  1.00  0.00     0.035 A 
HETATM   16  C   UNL     1      23.882  45.782  49.667  1.00  0.00     0.032 A 
ENDBRANCH   1   7
BRANCH   3  17
HETATM   17  C   UNL     1      20.351  48.677  48.953  1.00  0.00     0.113 C 
HETATM   18  C   UNL     1      19.271  47.655  49.332  1.00  0.00     0.257 C 
HETATM   19  N   UNL     1      18.947  48.011  50.749  1.00  0.00    -0.073 N 
HETATM   20  H   UNL     1      18.044  47.657  51.086  1.00  0.00     0.277 HD
HETATM   21  H   UNL     1      19.687  47.553  51.327  1.00  0.00     0.277 HD
HETATM   22  C   UNL     1      19.143  49.482  50.915  1.00  0.00     0.234 C 
HETATM   23  C   UNL     1      19.862  49.942  49.653  1.00  0.00     0.054 C 
ENDBRANCH   3  17
TORSDOF 2
ENDMDL
MODEL 2
REMARK VINA RESULT:      -7.3      4.315      6.580
REMARK  2 active torsions:
REMARK  status: ('A' for Active; 'I' for Inactive)
REMARK    1  A    between atoms: C_8  and  N_9 
REMARK       I    between atoms: N_9  and  C_10 
REMARK       I    between atoms: C_10  and  N_11 
REMARK    2  A    between atoms: N_11  and  C_12 
ROOT
HETATM    1  N   UNL     1      27.949  42.618  51.764  1.00  0.00    -0.309 N 
HETATM    2  C   UNL     1      27.111  43.177  50.856  1.00  0.00     0.321 C 
HETATM    3  N   UNL     1      27.190  44.520  50.661  1.00  0.00    -0.337 N 
HETATM    4  O   UNL     1      26.352  42.470  50.192  1.00  0.00    -0.247 OA
HETATM    5  H   UNL     1      27.999  41.607  51.667  1.00  0.00     0.170 HD
HETATM    6  H   UNL     1      28.081  44.927  50.927  1.00  0.00     0.164 HD
ENDROOT
BRANCH   1   7
HETATM    7  C   UNL     1      28.646  43.150  52.869  1.00  0.00     0.037 A 
HETATM    8  C   UNL     1      28.145  44.166  53.693  1.00  0.00     0.051 A 
HETATM    9  C   UNL     1      28.916  44.578  54.800  1.00  0.00     0.037 A 
HETATM   10  S   UNL     1      28.560  45.783  55.980  1.00  0.00    -0.073 SA
HETATM   11  C   UNL     1      30.148  44.004  55.102  1.00  0.00     0.075 A 
HETATM   12  C   UNL     1      30.043  45.447  56.775  1.00  0.00     0.072 A 
HETATM   13  C   UNL     1      30.431  46.183  58.010  1.00  0.00     0.079 C 
HETATM   14  N   UNL     1      30.781  44.510  56.221  1.00  0.00    -0.245 NA
HETATM   15  C   UNL     1      30.631  42.973  54.276  1.00  0.00     0.035 A 
HETATM   16  C   UNL     1      29.872  42.553  53.176  1.00  0.00     0.032 A 
ENDBRANCH   1   7
BRANCH   3  17
HETATM   17  C   UNL     1      26.327  45.327  49.788  1.00  0.00     0.113 C 
HETATM   18  C   UNL     1      24.884  45.526  50.271  1.00  0.00     0.257 C 
HETATM   19  N   UNL     1      24.994  46.693  51.201  1.00  0.00    -0.073 N 
HETATM   20  H   UNL     1      24.109  47.178  51.389  1.00  0.00     0.277 HD
HETATM   21  H   UNL     1      25.320  46.294  52.110  1.00  0.00     0.277 HD
HETATM   22  C   UNL     1      26.097  47.573  50.715  1.00  0.00     0.234 C 
HETATM   23  C   UNL     1      26.826  46.763  49.649  1.00  0.00     0.054 C 
ENDBRANCH   3  17
TORSDOF 2
ENDMDL
MODEL 3
REMARK VINA RESULT:      -7.1     12.106     13.749
REMARK  2 active torsions:
REMARK  status: ('A' for Active; 'I' for Inactive)
REMARK    1  A    between atoms: C_8  and  N_9 
REMARK       I    between atoms: N_9  and  C_10 
REMARK       I    between atoms: C_10  and  N_11 
REMARK    2  A    between atoms: N_11  and  C_12 
ROOT
HETATM    1  N   UNL     1      31.032  49.067  42.472  1.00  0.00    -0.309 N 
HETATM    2  C   UNL     1      29.785  49.374  42.036  1.00  0.00     0.321 C 
HETATM    3  N   UNL     1      29.641  50.470  41.246  1.00  0.00    -0.337 N 
HETATM    4  O   UNL     1      28.834  48.639  42.304  1.00  0.00    -0.247 OA
HETATM    5  H   UNL     1      31.087  48.119  42.836  1.00  0.00     0.170 HD
HETATM    6  H   UNL     1      30.488  50.750  40.763  1.00  0.00     0.164 HD
ENDROOT
BRANCH   1   7
HETATM    7  C   UNL     1      32.202  49.839  42.628  1.00  0.00     0.037 A 
HETATM    8  C   UNL     1      33.332  49.720  41.809  1.00  0.00     0.051 A 
HETATM    9  C   UNL     1      34.422  50.585  42.034  1.00  0.00     0.037 A 
HETATM   10  S   UNL     1      35.924  50.678  41.192  1.00  0.00    -0.073 SA
HETATM   11  C   UNL     1      34.408  51.555  43.034  1.00  0.00     0.075 A 
HETATM   12  C   UNL     1      36.416  51.971  42.207  1.00  0.00     0.072 A 
HETATM   13  C   UNL     1      37.744  52.621  42.026  1.00  0.00     0.079 C 
HETATM   14  N   UNL     1      35.547  52.330  43.127  1.00  0.00    -0.245 NA
HETATM   15  C   UNL     1      33.260  51.674  43.838  1.00  0.00     0.035 A 
HETATM   16  C   UNL     1      32.169  50.823  43.622  1.00  0.00     0.032 A 
ENDBRANCH   1   7
BRANCH   3  17
HETATM   17  C   UNL     1      28.377  51.018  40.736  1.00  0.00     0.113 C 
HETATM   18  C   UNL     1      28.004  52.421  41.234  1.00  0.00     0.257 C 
HETATM   19  N   UNL     1      28.744  53.323  40.298  1.00  0.00    -0.073 N 
HETATM   20  H   UNL     1      28.393  54.287  40.261  1.00  0.00     0.277 HD
HETATM   21  H   UNL     1      29.719  53.371  40.670  1.00  0.00     0.277 HD
HETATM   22  C   UNL     1      28.839  52.642  38.973  1.00  0.00     0.234 C 
HETATM   23  C   UNL     1      28.396  51.205  39.221  1.00  0.00     0.054 C 
ENDBRANCH   3  17
TORSDOF 2
ENDMDL
MODEL 4
REMARK VINA RESULT:      -6.9      4.830      6.801
REMARK  2 active torsions:
REMARK  status: ('A' for Active; 'I' for Inactive)
REMARK    1  A    between atoms: C_8  and  N_9 
REMARK       I    between atoms: N_9  and  C_10 
REMARK       I    between atoms: C_10  and  N_11 
REMARK    2  A    between atoms: N_11  and  C_12 
ROOT
HETATM    1  N   UNL     1      26.341  46.958  53.823  1.00  0.00    -0.309 N 
HETATM    2  C   UNL     1      25.916  46.660  52.570  1.00  0.00     0.321 C 
HETATM    3  N   UNL     1      26.171  45.414  52.091  1.00  0.00    -0.337 N 
HETATM    4  O   UNL     1      25.267  47.482  51.922  1.00  0.00    -0.247 OA
HETATM    5  H   UNL     1      25.900  47.798  54.187  1.00  0.00     0.170 HD
HETATM    6  H   UNL     1      26.325  44.716  52.812  1.00  0.00     0.164 HD
ENDROOT
BRANCH   1   7
HETATM    7  C   UNL     1      27.347  46.405  54.642  1.00  0.00     0.037 A 
HETATM    8  C   UNL     1      28.116  45.289  54.289  1.00  0.00     0.051 A 
HETATM    9  C   UNL     1      29.128  44.861  55.173  1.00  0.00     0.037 A 
HETATM   10  S   UNL     1      30.226  43.542  55.007  1.00  0.00    -0.073 SA
HETATM   11  C   UNL     1      29.391  45.515  56.375  1.00  0.00     0.075 A 
HETATM   12  C   UNL     1      30.942  43.944  56.514  1.00  0.00     0.072 A 
HETATM   13  C   UNL     1      32.081  43.151  57.053  1.00  0.00     0.079 C 
HETATM   14  N   UNL     1      30.417  44.981  57.129  1.00  0.00    -0.245 NA
HETATM   15  C   UNL     1      28.622  46.644  56.708  1.00  0.00     0.035 A 
HETATM   16  C   UNL     1      27.617  47.080  55.836  1.00  0.00     0.032 A 
ENDBRANCH   1   7
BRANCH   3  17
HETATM   17  C   UNL     1      25.868  44.918  50.742  1.00  0.00     0.113 C 
HETATM   18  C   UNL     1      27.026  44.233  50.004  1.00  0.00     0.257 C 
HETATM   19  N   UNL     1      26.967  42.826  50.507  1.00  0.00    -0.073 N 
HETATM   20  H   UNL     1      27.448  42.137  49.918  1.00  0.00     0.277 HD
HETATM   21  H   UNL     1      27.463  42.838  51.426  1.00  0.00     0.277 HD
HETATM   22  C   UNL     1      25.542  42.501  50.812  1.00  0.00     0.234 C 
HETATM   23  C   UNL     1      24.798  43.830  50.752  1.00  0.00     0.054 C 
ENDBRANCH   3  17
TORSDOF 2
ENDMDL
MODEL 5
REMARK VINA RESULT:      -6.6      4.628      6.443
REMARK  2 active torsions:
REMARK  status: ('A' for Active; 'I' for Inactive)
REMARK    1  A    between atoms: C_8  and  N_9 
REMARK       I    between atoms: N_9  and  C_10 
REMARK       I    between atoms: C_10  and  N_11 
REMARK    2  A    between atoms: N_11  and  C_12 
ROOT
HETATM    1  N   UNL     1      25.911  46.211  52.814  1.00  0.00    -0.309 N 
HETATM    2  C   UNL     1      25.278  45.470  51.872  1.00  0.00     0.321 C 
HETATM    3  N   UNL     1      25.315  44.117  51.997  1.00  0.00    -0.337 N 
HETATM    4  O   UNL     1      24.643  46.019  50.972  1.00  0.00    -0.247 OA
HETATM    5  H   UNL     1      25.628  47.187  52.787  1.00  0.00     0.170 HD
HETATM    6  H   UNL     1      25.490  43.791  52.943  1.00  0.00     0.164 HD
ENDROOT
BRANCH   1   7
HETATM    7  C   UNL     1      26.953  45.914  53.717  1.00  0.00     0.037 A 
HETATM    8  C   UNL     1      27.720  44.743  53.667  1.00  0.00     0.051 A 
HETATM    9  C   UNL     1      28.770  44.584  54.595  1.00  0.00     0.037 A 
HETATM   10  S   UNL     1      29.874  43.272  54.768  1.00  0.00    -0.073 SA
HETATM   11  C   UNL     1      29.072  45.554  55.548  1.00  0.00     0.075 A 
HETATM   12  C   UNL     1      30.643  44.086  56.067  1.00  0.00     0.072 A 
HETATM   13  C   UNL     1      31.811  43.479  56.765  1.00  0.00     0.079 C 
HETATM   14  N   UNL     1      30.132  45.256  56.382  1.00  0.00    -0.245 NA
HETATM   15  C   UNL     1      28.305  46.732  55.576  1.00  0.00     0.035 A 
HETATM   16  C   UNL     1      27.262  46.902  54.657  1.00  0.00     0.032 A 
ENDBRANCH   1   7
BRANCH   3  17
HETATM   17  C   UNL     1      24.766  43.137  51.050  1.00  0.00     0.113 C 
HETATM   18  C   UNL     1      24.341  43.690  49.683  1.00  0.00     0.257 C 
HETATM   19  N   UNL     1      25.618  43.693  48.904  1.00  0.00    -0.073 N 
HETATM   20  H   UNL     1      25.501  43.732  47.885  1.00  0.00     0.277 HD
HETATM   21  H   UNL     1      26.114  44.568  49.186  1.00  0.00     0.277 HD
HETATM   22  C   UNL     1      26.463  42.562  49.392  1.00  0.00     0.234 C 
HETATM   23  C   UNL     1      25.787  42.069  50.666  1.00  0.00     0.054 C 
ENDBRANCH   3  17
TORSDOF 2
ENDMDL
MODEL 6
REMARK VINA RESULT:      -6.6      3.126      6.975
REMARK  2 active torsions:
REMARK  status: ('A' for Active; 'I' for Inactive)
REMARK    1  A    between atoms: C_8  and  N_9 
REMARK       I    between atoms: N_9  and  C_10 
REMARK       I    between atoms: C_10  and  N_11 
REMARK    2  A    between atoms: N_11  and  C_12 
ROOT
HETATM    1  N   UNL     1      24.752  49.903  47.920  1.00  0.00    -0.309 N 
HETATM    2  C   UNL     1      25.731  49.304  48.642  1.00  0.00     0.321 C 
HETATM    3  N   UNL     1      25.383  48.263  49.444  1.00  0.00    -0.337 N 
HETATM    4  O   UNL     1      26.903  49.662  48.517  1.00  0.00    -0.247 OA
HETATM    5  H   UNL     1      25.127  50.488  47.178  1.00  0.00     0.170 HD
HETATM    6  H   UNL     1      24.522  47.799  49.173  1.00  0.00     0.164 HD
ENDROOT
BRANCH   1   7
HETATM    7  C   UNL     1      23.352  49.965  48.083  1.00  0.00     0.037 A 
HETATM    8  C   UNL     1      22.479  48.925  47.739  1.00  0.00     0.051 A 
HETATM    9  C   UNL     1      21.102  49.088  47.998  1.00  0.00     0.037 A 
HETATM   10  S   UNL     1      19.806  47.993  47.695  1.00  0.00    -0.073 SA
HETATM   11  C   UNL     1      20.588  50.239  48.590  1.00  0.00     0.075 A 
HETATM   12  C   UNL     1      18.695  49.118  48.362  1.00  0.00     0.072 A 
HETATM   13  C   UNL     1      17.243  48.800  48.444  1.00  0.00     0.079 C 
HETATM   14  N   UNL     1      19.221  50.247  48.785  1.00  0.00    -0.245 NA
HETATM   15  C   UNL     1      21.478  51.267  48.946  1.00  0.00     0.035 A 
HETATM   16  C   UNL     1      22.848  51.116  48.697  1.00  0.00     0.032 A 
ENDBRANCH   1   7
BRANCH   3  17
HETATM   17  C   UNL     1      26.269  47.534  50.361  1.00  0.00     0.113 C 
HETATM   18  C   UNL     1      25.633  47.060  51.674  1.00  0.00     0.257 C 
HETATM   19  N   UNL     1      24.995  45.761  51.295  1.00  0.00    -0.073 N 
HETATM   20  H   UNL     1      24.785  45.138  52.084  1.00  0.00     0.277 HD
HETATM   21  H   UNL     1      24.081  46.016  50.860  1.00  0.00     0.277 HD
HETATM   22  C   UNL     1      25.812  45.141  50.210  1.00  0.00     0.234 C 
HETATM   23  C   UNL     1      26.779  46.228  49.756  1.00  0.00     0.054 C 
ENDBRANCH   3  17
TORSDOF 2
ENDMDL
MODEL 7
REMARK VINA RESULT:      -6.5      1.767      2.269
REMARK  2 active torsions:
REMARK  status: ('A' for Active; 'I' for Inactive)
REMARK    1  A    between atoms: C_8  and  N_9 
REMARK       I    between atoms: N_9  and  C_10 
REMARK       I    between atoms: C_10  and  N_11 
REMARK    2  A    between atoms: N_11  and  C_12 
ROOT
HETATM    1  N   UNL     1      24.015  48.417  49.435  1.00  0.00    -0.309 N 
HETATM    2  C   UNL     1      22.831  48.925  49.013  1.00  0.00     0.321 C 
HETATM    3  N   UNL     1      21.691  48.319  49.438  1.00  0.00    -0.337 N 
HETATM    4  O   UNL     1      22.803  49.942  48.318  1.00  0.00    -0.247 OA
HETATM    5  H   UNL     1      24.785  49.063  49.283  1.00  0.00     0.170 HD
HETATM    6  H   UNL     1      21.798  47.785  50.294  1.00  0.00     0.164 HD
ENDROOT
BRANCH   1   7
HETATM    7  C   UNL     1      24.386  47.144  49.917  1.00  0.00     0.037 A 
HETATM    8  C   UNL     1      24.305  45.968  49.161  1.00  0.00     0.051 A 
HETATM    9  C   UNL     1      24.754  44.763  49.738  1.00  0.00     0.037 A 
HETATM   10  S   UNL     1      24.786  43.180  49.055  1.00  0.00    -0.073 SA
HETATM   11  C   UNL     1      25.282  44.707  51.026  1.00  0.00     0.075 A 
HETATM   12  C   UNL     1      25.483  42.569  50.499  1.00  0.00     0.072 A 
HETATM   13  C   UNL     1      25.827  41.125  50.629  1.00  0.00     0.079 C 
HETATM   14  N   UNL     1      25.685  43.456  51.449  1.00  0.00    -0.245 NA
HETATM   15  C   UNL     1      25.373  45.898  51.767  1.00  0.00     0.035 A 
HETATM   16  C   UNL     1      24.933  47.102  51.203  1.00  0.00     0.032 A 
ENDBRANCH   1   7
BRANCH   3  17
HETATM   17  C   UNL     1      20.319  48.660  49.037  1.00  0.00     0.113 C 
HETATM   18  C   UNL     1      19.249  47.604  49.341  1.00  0.00     0.257 C 
HETATM   19  N   UNL     1      18.879  47.892  50.762  1.00  0.00    -0.073 N 
HETATM   20  H   UNL     1      17.975  47.508  51.058  1.00  0.00     0.277 HD
HETATM   21  H   UNL     1      19.611  47.423  51.341  1.00  0.00     0.277 HD
HETATM   22  C   UNL     1      19.043  49.357  50.997  1.00  0.00     0.234 C 
HETATM   23  C   UNL     1      19.788  49.885  49.777  1.00  0.00     0.054 C 
ENDBRANCH   3  17
TORSDOF 2
ENDMDL
MODEL 8
REMARK VINA RESULT:      -6.5      6.985      9.320
REMARK  2 active torsions:
REMARK  status: ('A' for Active; 'I' for Inactive)
REMARK    1  A    between atoms: C_8  and  N_9 
REMARK       I    between atoms: N_9  and  C_10 
REMARK       I    between atoms: C_10  and  N_11 
REMARK    2  A    between atoms: N_11  and  C_12 
ROOT
HETATM    1  N   UNL     1      26.471  41.481  51.499  1.00  0.00    -0.309 N 
HETATM    2  C   UNL     1      26.661  40.582  50.503  1.00  0.00     0.321 C 
HETATM    3  N   UNL     1      27.779  39.809  50.548  1.00  0.00    -0.337 N 
HETATM    4  O   UNL     1      25.810  40.437  49.625  1.00  0.00    -0.247 OA
HETATM    5  H   UNL     1      25.517  41.828  51.525  1.00  0.00     0.170 HD
HETATM    6  H   UNL     1      28.180  39.712  51.475  1.00  0.00     0.164 HD
ENDROOT
BRANCH   1   7
HETATM    7  C   UNL     1      27.360  42.102  52.402  1.00  0.00     0.037 A 
HETATM    8  C   UNL     1      27.117  43.341  53.010  1.00  0.00     0.051 A 
HETATM    9  C   UNL     1      28.060  43.835  53.935  1.00  0.00     0.037 A 
HETATM   10  S   UNL     1      28.028  45.304  54.835  1.00  0.00    -0.073 SA
HETATM   11  C   UNL     1      29.214  43.129  54.268  1.00  0.00     0.075 A 
HETATM   12  C   UNL     1      29.518  44.887  55.575  1.00  0.00     0.072 A 
HETATM   13  C   UNL     1      30.150  45.787  56.580  1.00  0.00     0.079 C 
HETATM   14  N   UNL     1      30.036  43.740  55.194  1.00  0.00    -0.245 NA
HETATM   15  C   UNL     1      29.436  41.879  53.664  1.00  0.00     0.035 A 
HETATM   16  C   UNL     1      28.505  41.377  52.745  1.00  0.00     0.032 A 
ENDBRANCH   1   7
BRANCH   3  17
HETATM   17  C   UNL     1      28.210  38.838  49.534  1.00  0.00     0.113 C 
HETATM   18  C   UNL     1      29.541  38.125  49.809  1.00  0.00     0.257 C 
HETATM   19  N   UNL     1      29.142  36.988  50.695  1.00  0.00    -0.073 N 
HETATM   20  H   UNL     1      29.821  36.220  50.742  1.00  0.00     0.277 HD
HETATM   21  H   UNL     1      29.076  37.393  51.655  1.00  0.00     0.277 HD
HETATM   22  C   UNL     1      27.756  36.574  50.324  1.00  0.00     0.234 C 
HETATM   23  C   UNL     1      27.236  37.670  49.401  1.00  0.00     0.054 C 
ENDBRANCH   3  17
TORSDOF 2
ENDMDL
MODEL 9
REMARK VINA RESULT:      -6.5      6.411      8.830
REMARK  2 active torsions:
REMARK  status: ('A' for Active; 'I' for Inactive)
REMARK    1  A    between atoms: C_8  and  N_9 
REMARK       I    between atoms: N_9  and  C_10 
REMARK       I    between atoms: C_10  and  N_11 
REMARK    2  A    between atoms: N_11  and  C_12 
ROOT
HETATM    1  N   UNL     1      29.137  40.031  51.864  1.00  0.00    -0.309 N 
HETATM    2  C   UNL     1      28.958  39.397  50.679  1.00  0.00     0.321 C 
HETATM    3  N   UNL     1      28.771  40.162  49.571  1.00  0.00    -0.337 N 
HETATM    4  O   UNL     1      29.029  38.169  50.614  1.00  0.00    -0.247 OA
HETATM    5  H   UNL     1      29.512  39.411  52.577  1.00  0.00     0.170 HD
HETATM    6  H   UNL     1      29.130  41.107  49.653  1.00  0.00     0.164 HD
ENDROOT
BRANCH   1   7
HETATM    7  C   UNL     1      28.788  41.322  52.314  1.00  0.00     0.037 A 
HETATM    8  C   UNL     1      27.506  41.873  52.192  1.00  0.00     0.051 A 
HETATM    9  C   UNL     1      27.269  43.155  52.728  1.00  0.00     0.037 A 
HETATM   10  S   UNL     1      25.811  44.074  52.736  1.00  0.00    -0.073 SA
HETATM   11  C   UNL     1      28.262  43.884  53.379  1.00  0.00     0.075 A 
HETATM   12  C   UNL     1      26.606  45.335  53.586  1.00  0.00     0.072 A 
HETATM   13  C   UNL     1      25.874  46.570  53.979  1.00  0.00     0.079 C 
HETATM   14  N   UNL     1      27.875  45.121  53.855  1.00  0.00    -0.245 NA
HETATM   15  C   UNL     1      29.540  43.311  53.510  1.00  0.00     0.035 A 
HETATM   16  C   UNL     1      29.786  42.036  52.984  1.00  0.00     0.032 A 
ENDBRANCH   1   7
BRANCH   3  17
HETATM   17  C   UNL     1      28.483  39.677  48.215  1.00  0.00     0.113 C 
HETATM   18  C   UNL     1      27.240  38.789  48.069  1.00  0.00     0.257 C 
HETATM   19  N   UNL     1      26.128  39.780  47.925  1.00  0.00    -0.073 N 
HETATM   20  H   UNL     1      25.267  39.404  47.511  1.00  0.00     0.277 HD
HETATM   21  H   UNL     1      25.892  40.077  48.898  1.00  0.00     0.277 HD
HETATM   22  C   UNL     1      26.671  40.992  47.243  1.00  0.00     0.234 C 
HETATM   23  C   UNL     1      28.185  40.817  47.244  1.00  0.00     0.054 C 
ENDBRANCH   3  17
TORSDOF 2
ENDMDL
MODEL 10
REMARK VINA RESULT:      -6.4     12.702     14.988
REMARK  2 active torsions:
REMARK  status: ('A' for Active; 'I' for Inactive)
REMARK    1  A    between atoms: C_8  and  N_9 
REMARK       I    between atoms: N_9  and  C_10 
REMARK       I    between atoms: C_10  and  N_11 
REMARK    2  A    between atoms: N_11  and  C_12 
ROOT
HETATM    1  N   UNL     1      30.931  52.365  42.722  1.00  0.00    -0.309 N 
HETATM    2  C   UNL     1      32.167  51.960  43.103  1.00  0.00     0.321 C 
HETATM    3  N   UNL     1      33.005  51.487  42.142  1.00  0.00    -0.337 N 
HETATM    4  O   UNL     1      32.529  52.081  44.274  1.00  0.00    -0.247 OA
HETATM    5  H   UNL     1      30.474  52.924  43.438  1.00  0.00     0.170 HD
HETATM    6  H   UNL     1      32.782  51.804  41.204  1.00  0.00     0.164 HD
ENDROOT
BRANCH   1   7
HETATM    7  C   UNL     1      30.132  52.057  41.601  1.00  0.00     0.037 A 
HETATM    8  C   UNL     1      29.476  50.832  41.422  1.00  0.00     0.051 A 
HETATM    9  C   UNL     1      28.664  50.663  40.282  1.00  0.00     0.037 A 
HETATM   10  S   UNL     1      27.740  49.288  39.804  1.00  0.00    -0.073 SA
HETATM   11  C   UNL     1      28.486  51.673  39.339  1.00  0.00     0.075 A 
HETATM   12  C   UNL     1      27.194  50.134  38.415  1.00  0.00     0.072 A 
HETATM   13  C   UNL     1      26.257  49.494  37.450  1.00  0.00     0.079 C 
HETATM   14  N   UNL     1      27.656  51.358  38.281  1.00  0.00    -0.245 NA
HETATM   15  C   UNL     1      29.136  52.903  39.541  1.00  0.00     0.035 A 
HETATM   16  C   UNL     1      29.943  53.084  40.672  1.00  0.00     0.032 A 
ENDBRANCH   1   7
BRANCH   3  17
HETATM   17  C   UNL     1      34.347  50.929  42.352  1.00  0.00     0.113 C 
HETATM   18  C   UNL     1      34.713  49.716  41.487  1.00  0.00     0.257 C 
HETATM   19  N   UNL     1      35.196  50.337  40.214  1.00  0.00    -0.073 N 
HETATM   20  H   UNL     1      35.771  49.723  39.627  1.00  0.00     0.277 HD
HETATM   21  H   UNL     1      34.334  50.559  39.668  1.00  0.00     0.277 HD
HETATM   22  C   UNL     1      35.825  51.650  40.548  1.00  0.00     0.234 C 
HETATM   23  C   UNL     1      35.449  51.925  41.999  1.00  0.00     0.054 C 
ENDBRANCH   3  17
TORSDOF 2
ENDMDL
