MODEL 1
REMARK VINA RESULT:      -9.1      0.000      0.000
REMARK  2 active torsions:
REMARK  status: ('A' for Active; 'I' for Inactive)
REMARK    1  A    between atoms: C_6  and  C_8 
REMARK    2  A    between atoms: C_6  and  O_7 
ROOT
HETATM    1  C   UNL     1      26.616  48.495  49.292  1.00  0.00     0.048 C 
HETATM    2  C   UNL     1      26.456  47.266  50.139  1.00  0.00    -0.059 A 
HETATM    3  C   UNL     1      25.861  47.340  51.403  1.00  0.00     0.037 A 
HETATM    4  C   UNL     1      25.737  46.170  52.123  1.00  0.00     0.046 A 
HETATM    5  C   UNL     1      26.180  44.927  51.651  1.00  0.00     0.023 A 
HETATM    6  C   UNL     1      25.838  43.864  52.682  1.00  0.00     0.199 A 
HETATM    7  C   UNL     1      25.175  44.721  53.819  1.00  0.00     0.266 A 
HETATM    8  O   UNL     1      24.698  44.348  54.879  1.00  0.00    -0.269 OA
HETATM    9  N   UNL     1      25.158  46.043  53.377  1.00  0.00    -0.323 N 
HETATM   10  C   UNL     1      26.751  44.830  50.384  1.00  0.00    -0.049 A 
HETATM   11  C   UNL     1      27.246  43.534  49.817  1.00  0.00     0.049 C 
HETATM   12  C   UNL     1      26.898  46.020  49.645  1.00  0.00     0.014 A 
HETATM   13  H   UNL     1      24.763  46.791  53.926  1.00  0.00     0.169 HD
ENDROOT
BRANCH   6  14
HETATM   14  C   UNL     1      27.114  43.198  53.130  1.00  0.00     0.018 A 
HETATM   15  C   UNL     1      28.156  43.710  53.989  1.00  0.00     0.002 A 
HETATM   16  C   UNL     1      29.113  42.703  54.139  1.00  0.00     0.043 A 
HETATM   17  C   UNL     1      28.378  44.930  54.667  1.00  0.00     0.014 A 
HETATM   18  C   UNL     1      30.263  42.849  54.924  1.00  0.00     0.030 A 
HETATM   19  N   UNL     1      28.688  41.624  53.403  1.00  0.00    -0.365 N 
HETATM   20  C   UNL     1      30.449  44.065  55.586  1.00  0.00     0.002 A 
HETATM   21  C   UNL     1      29.522  45.094  55.459  1.00  0.00     0.001 A 
HETATM   22  H   UNL     1      29.182  40.745  53.338  1.00  0.00     0.165 HD
HETATM   23  C   UNL     1      27.498  41.905  52.800  1.00  0.00     0.100 A 
ENDBRANCH   6  14
BRANCH   6  24
HETATM   24  O   UNL     1      24.899  42.947  52.124  1.00  0.00    -0.371 OA
HETATM   25  H   UNL     1      24.018  43.277  52.365  1.00  0.00     0.212 HD
ENDBRANCH   6  24
TORSDOF 2
ENDMDL
MODEL 2
REMARK VINA RESULT:      -8.3      2.274      3.857
REMARK  2 active torsions:
REMARK  status: ('A' for Active; 'I' for Inactive)
REMARK    1  A    between atoms: C_6  and  C_8 
REMARK    2  A    between atoms: C_6  and  O_7 
ROOT
HETATM    1  C   UNL     1      23.171  50.507  47.776  1.00  0.00     0.048 C 
HETATM    2  C   UNL     1      23.777  49.320  48.466  1.00  0.00    -0.059 A 
HETATM    3  C   UNL     1      23.006  48.189  48.757  1.00  0.00     0.037 A 
HETATM    4  C   UNL     1      23.630  47.130  49.384  1.00  0.00     0.046 A 
HETATM    5  C   UNL     1      24.986  47.140  49.741  1.00  0.00     0.023 A 
HETATM    6  C   UNL     1      25.335  45.798  50.363  1.00  0.00     0.199 A 
HETATM    7  C   UNL     1      23.949  45.060  50.334  1.00  0.00     0.266 A 
HETATM    8  O   UNL     1      23.677  43.928  50.701  1.00  0.00    -0.269 OA
HETATM    9  N   UNL     1      23.038  45.925  49.730  1.00  0.00    -0.323 N 
HETATM   10  C   UNL     1      25.775  48.247  49.435  1.00  0.00    -0.049 A 
HETATM   11  C   UNL     1      27.230  48.324  49.787  1.00  0.00     0.049 C 
HETATM   12  C   UNL     1      25.146  49.340  48.810  1.00  0.00     0.014 A 
HETATM   13  H   UNL     1      22.073  45.673  49.578  1.00  0.00     0.169 HD
ENDROOT
BRANCH   6  14
HETATM   14  C   UNL     1      25.836  46.032  51.765  1.00  0.00     0.018 A 
HETATM   15  C   UNL     1      26.821  45.290  52.515  1.00  0.00     0.002 A 
HETATM   16  C   UNL     1      26.971  45.919  53.754  1.00  0.00     0.043 A 
HETATM   17  C   UNL     1      27.613  44.147  52.262  1.00  0.00     0.014 A 
HETATM   18  C   UNL     1      27.863  45.473  54.737  1.00  0.00     0.030 A 
HETATM   19  N   UNL     1      26.117  46.994  53.771  1.00  0.00    -0.365 N 
HETATM   20  C   UNL     1      28.635  44.345  54.453  1.00  0.00     0.002 A 
HETATM   21  C   UNL     1      28.511  43.687  53.233  1.00  0.00     0.001 A 
HETATM   22  H   UNL     1      26.023  47.639  54.543  1.00  0.00     0.165 HD
HETATM   23  C   UNL     1      25.437  47.074  52.592  1.00  0.00     0.100 A 
ENDBRANCH   6  14
BRANCH   6  24
HETATM   24  O   UNL     1      26.285  45.127  49.537  1.00  0.00    -0.371 OA
HETATM   25  H   UNL     1      27.151  45.513  49.747  1.00  0.00     0.212 HD
ENDBRANCH   6  24
TORSDOF 2
ENDMDL
MODEL 3
REMARK VINA RESULT:      -7.9     12.608     14.289
REMARK  2 active torsions:
REMARK  status: ('A' for Active; 'I' for Inactive)
REMARK    1  A    between atoms: C_6  and  C_8 
REMARK    2  A    between atoms: C_6  and  O_7 
ROOT
HETATM    1  C   UNL     1      26.824  47.861  37.958  1.00  0.00     0.048 C 
HETATM    2  C   UNL     1      27.563  48.890  38.764  1.00  0.00    -0.059 A 
HETATM    3  C   UNL     1      27.603  50.227  38.353  1.00  0.00     0.037 A 
HETATM    4  C   UNL     1      28.292  51.122  39.146  1.00  0.00     0.046 A 
HETATM    5  C   UNL     1      28.946  50.753  40.329  1.00  0.00     0.023 A 
HETATM    6  C   UNL     1      29.551  51.997  40.959  1.00  0.00     0.199 A 
HETATM    7  C   UNL     1      29.164  53.106  39.916  1.00  0.00     0.266 A 
HETATM    8  O   UNL     1      29.393  54.305  39.953  1.00  0.00    -0.269 OA
HETATM    9  N   UNL     1      28.422  52.483  38.914  1.00  0.00    -0.323 N 
HETATM   10  C   UNL     1      28.894  49.431  40.768  1.00  0.00    -0.049 A 
HETATM   11  C   UNL     1      29.571  48.969  42.022  1.00  0.00     0.049 C 
HETATM   12  C   UNL     1      28.208  48.506  39.959  1.00  0.00     0.014 A 
HETATM   13  H   UNL     1      28.040  52.990  38.130  1.00  0.00     0.169 HD
ENDROOT
BRANCH   6  14
HETATM   14  C   UNL     1      31.041  51.805  41.073  1.00  0.00     0.018 A 
HETATM   15  C   UNL     1      31.877  51.846  42.250  1.00  0.00     0.002 A 
HETATM   16  C   UNL     1      33.187  51.568  41.848  1.00  0.00     0.043 A 
HETATM   17  C   UNL     1      31.651  52.082  43.624  1.00  0.00     0.014 A 
HETATM   18  C   UNL     1      34.266  51.511  42.738  1.00  0.00     0.030 A 
HETATM   19  N   UNL     1      33.162  51.371  40.489  1.00  0.00    -0.365 N 
HETATM   20  C   UNL     1      34.007  51.743  44.090  1.00  0.00     0.002 A 
HETATM   21  C   UNL     1      32.718  52.028  44.530  1.00  0.00     0.001 A 
HETATM   22  H   UNL     1      33.972  51.141  39.929  1.00  0.00     0.165 HD
HETATM   23  C   UNL     1      31.891  51.506  40.016  1.00  0.00     0.100 A 
ENDBRANCH   6  14
BRANCH   6  24
HETATM   24  O   UNL     1      28.924  52.243  42.217  1.00  0.00    -0.371 OA
HETATM   25  H   UNL     1      28.016  51.909  42.140  1.00  0.00     0.212 HD
ENDBRANCH   6  24
TORSDOF 2
ENDMDL
MODEL 4
REMARK VINA RESULT:      -7.9      7.619     10.061
REMARK  2 active torsions:
REMARK  status: ('A' for Active; 'I' for Inactive)
REMARK    1  A    between atoms: C_6  and  C_8 
REMARK    2  A    between atoms: C_6  and  O_7 
ROOT
HETATM    1  C   UNL     1      17.139  52.784  45.236  1.00  0.00     0.048 C 
HETATM    2  C   UNL     1      17.612  51.708  46.170  1.00  0.00    -0.059 A 
HETATM    3  C   UNL     1      17.598  51.906  47.554  1.00  0.00     0.037 A 
HETATM    4  C   UNL     1      18.037  50.870  48.354  1.00  0.00     0.046 A 
HETATM    5  C   UNL     1      18.494  49.647  47.845  1.00  0.00     0.023 A 
HETATM    6  C   UNL     1      18.847  48.737  49.010  1.00  0.00     0.199 A 
HETATM    7  C   UNL     1      18.556  49.665  50.243  1.00  0.00     0.266 A 
HETATM    8  O   UNL     1      18.656  49.410  51.433  1.00  0.00    -0.269 OA
HETATM    9  N   UNL     1      18.076  50.873  49.741  1.00  0.00    -0.323 N 
HETATM   10  C   UNL     1      18.489  49.424  46.470  1.00  0.00    -0.049 A 
HETATM   11  C   UNL     1      18.964  48.140  45.858  1.00  0.00     0.049 C 
HETATM   12  C   UNL     1      18.059  50.477  45.642  1.00  0.00     0.014 A 
HETATM   13  H   UNL     1      17.799  51.635  50.341  1.00  0.00     0.169 HD
ENDROOT
BRANCH   6  14
HETATM   14  C   UNL     1      20.303  48.359  48.902  1.00  0.00     0.018 A 
HETATM   15  C   UNL     1      21.459  49.215  48.776  1.00  0.00     0.002 A 
HETATM   16  C   UNL     1      22.591  48.395  48.751  1.00  0.00     0.043 A 
HETATM   17  C   UNL     1      21.660  50.611  48.691  1.00  0.00     0.014 A 
HETATM   18  C   UNL     1      23.896  48.893  48.652  1.00  0.00     0.030 A 
HETATM   19  N   UNL     1      22.155  47.097  48.850  1.00  0.00    -0.365 N 
HETATM   20  C   UNL     1      24.060  50.277  48.575  1.00  0.00     0.002 A 
HETATM   21  C   UNL     1      22.959  51.127  48.592  1.00  0.00     0.001 A 
HETATM   22  H   UNL     1      22.762  46.289  48.870  1.00  0.00     0.165 HD
HETATM   23  C   UNL     1      20.795  47.061  48.944  1.00  0.00     0.100 A 
ENDBRANCH   6  14
BRANCH   6  24
HETATM   24  O   UNL     1      17.978  47.606  49.008  1.00  0.00    -0.371 OA
HETATM   25  H   UNL     1      18.131  47.145  48.167  1.00  0.00     0.212 HD
ENDBRANCH   6  24
TORSDOF 2
ENDMDL
MODEL 5
REMARK VINA RESULT:      -7.8     12.758     14.167
REMARK  2 active torsions:
REMARK  status: ('A' for Active; 'I' for Inactive)
REMARK    1  A    between atoms: C_6  and  C_8 
REMARK    2  A    between atoms: C_6  and  O_7 
ROOT
HETATM    1  C   UNL     1      32.863  51.920  44.703  1.00  0.00     0.048 C 
HETATM    2  C   UNL     1      32.041  51.533  43.508  1.00  0.00    -0.059 A 
HETATM    3  C   UNL     1      31.289  52.488  42.816  1.00  0.00     0.037 A 
HETATM    4  C   UNL     1      30.565  52.064  41.720  1.00  0.00     0.046 A 
HETATM    5  C   UNL     1      30.548  50.734  41.279  1.00  0.00     0.023 A 
HETATM    6  C   UNL     1      29.689  50.648  40.028  1.00  0.00     0.199 A 
HETATM    7  C   UNL     1      29.197  52.131  39.872  1.00  0.00     0.266 A 
HETATM    8  O   UNL     1      28.488  52.616  39.004  1.00  0.00    -0.269 OA
HETATM    9  N   UNL     1      29.782  52.866  40.903  1.00  0.00    -0.323 N 
HETATM   10  C   UNL     1      31.312  49.775  41.940  1.00  0.00    -0.049 A 
HETATM   11  C   UNL     1      31.341  48.336  41.521  1.00  0.00     0.049 C 
HETATM   12  C   UNL     1      32.043  50.191  43.068  1.00  0.00     0.014 A 
HETATM   13  H   UNL     1      29.633  53.857  41.010  1.00  0.00     0.169 HD
ENDROOT
BRANCH   6  14
HETATM   14  C   UNL     1      28.556  49.688  40.287  1.00  0.00     0.018 A 
HETATM   15  C   UNL     1      28.258  48.435  39.633  1.00  0.00     0.002 A 
HETATM   16  C   UNL     1      27.127  47.894  40.252  1.00  0.00     0.043 A 
HETATM   17  C   UNL     1      28.842  47.697  38.579  1.00  0.00     0.014 A 
HETATM   18  C   UNL     1      26.562  46.668  39.881  1.00  0.00     0.030 A 
HETATM   19  N   UNL     1      26.743  48.772  41.236  1.00  0.00    -0.365 N 
HETATM   20  C   UNL     1      27.168  45.961  38.840  1.00  0.00     0.002 A 
HETATM   21  C   UNL     1      28.291  46.468  38.195  1.00  0.00     0.001 A 
HETATM   22  H   UNL     1      25.957  48.630  41.855  1.00  0.00     0.165 HD
HETATM   23  C   UNL     1      27.587  49.843  41.269  1.00  0.00     0.100 A 
ENDBRANCH   6  14
BRANCH   6  24
HETATM   24  O   UNL     1      30.502  50.263  38.921  1.00  0.00    -0.371 OA
HETATM   25  H   UNL     1      29.915  49.808  38.296  1.00  0.00     0.212 HD
ENDBRANCH   6  24
TORSDOF 2
ENDMDL
MODEL 6
REMARK VINA RESULT:      -7.6     12.216     14.377
REMARK  2 active torsions:
REMARK  status: ('A' for Active; 'I' for Inactive)
REMARK    1  A    between atoms: C_6  and  C_8 
REMARK    2  A    between atoms: C_6  and  O_7 
ROOT
HETATM    1  C   UNL     1      37.105  50.950  39.751  1.00  0.00     0.048 C 
HETATM    2  C   UNL     1      35.773  51.125  40.421  1.00  0.00    -0.059 A 
HETATM    3  C   UNL     1      35.674  51.181  41.815  1.00  0.00     0.037 A 
HETATM    4  C   UNL     1      34.419  51.354  42.363  1.00  0.00     0.046 A 
HETATM    5  C   UNL     1      33.254  51.469  41.592  1.00  0.00     0.023 A 
HETATM    6  C   UNL     1      32.075  51.695  42.524  1.00  0.00     0.199 A 
HETATM    7  C   UNL     1      32.765  51.642  43.934  1.00  0.00     0.266 A 
HETATM    8  O   UNL     1      32.263  51.789  45.038  1.00  0.00    -0.269 OA
HETATM    9  N   UNL     1      34.128  51.454  43.715  1.00  0.00    -0.323 N 
HETATM   10  C   UNL     1      33.337  51.442  40.202  1.00  0.00    -0.049 A 
HETATM   11  C   UNL     1      32.133  51.560  39.318  1.00  0.00     0.049 C 
HETATM   12  C   UNL     1      34.610  51.250  39.631  1.00  0.00     0.014 A 
HETATM   13  H   UNL     1      34.795  51.404  44.471  1.00  0.00     0.169 HD
ENDROOT
BRANCH   6  14
HETATM   14  C   UNL     1      31.082  50.579  42.324  1.00  0.00     0.018 A 
HETATM   15  C   UNL     1      29.757  50.631  41.753  1.00  0.00     0.002 A 
HETATM   16  C   UNL     1      29.247  49.329  41.749  1.00  0.00     0.043 A 
HETATM   17  C   UNL     1      28.939  51.655  41.226  1.00  0.00     0.014 A 
HETATM   18  C   UNL     1      27.980  49.004  41.249  1.00  0.00     0.030 A 
HETATM   19  N   UNL     1      30.207  48.514  42.297  1.00  0.00    -0.365 N 
HETATM   20  C   UNL     1      27.200  50.039  40.730  1.00  0.00     0.002 A 
HETATM   21  C   UNL     1      27.670  51.348  40.720  1.00  0.00     0.001 A 
HETATM   22  H   UNL     1      30.113  47.514  42.409  1.00  0.00     0.165 HD
HETATM   23  C   UNL     1      31.305  49.245  42.641  1.00  0.00     0.100 A 
ENDBRANCH   6  14
BRANCH   6  24
HETATM   24  O   UNL     1      31.518  52.985  42.279  1.00  0.00    -0.371 OA
HETATM   25  H   UNL     1      30.792  52.854  41.648  1.00  0.00     0.212 HD
ENDBRANCH   6  24
TORSDOF 2
ENDMDL
MODEL 7
REMARK VINA RESULT:      -7.3      8.277     10.656
REMARK  2 active torsions:
REMARK  status: ('A' for Active; 'I' for Inactive)
REMARK    1  A    between atoms: C_6  and  C_8 
REMARK    2  A    between atoms: C_6  and  O_7 
ROOT
HETATM    1  C   UNL     1      17.330  52.777  49.794  1.00  0.00     0.048 C 
HETATM    2  C   UNL     1      18.375  51.742  49.494  1.00  0.00    -0.059 A 
HETATM    3  C   UNL     1      19.531  52.076  48.780  1.00  0.00     0.037 A 
HETATM    4  C   UNL     1      20.454  51.077  48.549  1.00  0.00     0.046 A 
HETATM    5  C   UNL     1      20.284  49.758  48.990  1.00  0.00     0.023 A 
HETATM    6  C   UNL     1      21.513  48.953  48.600  1.00  0.00     0.199 A 
HETATM    7  C   UNL     1      22.370  50.024  47.835  1.00  0.00     0.266 A 
HETATM    8  O   UNL     1      23.475  49.901  47.329  1.00  0.00    -0.269 OA
HETATM    9  N   UNL     1      21.662  51.223  47.883  1.00  0.00    -0.323 N 
HETATM   10  C   UNL     1      19.152  49.413  49.725  1.00  0.00    -0.049 A 
HETATM   11  C   UNL     1      18.908  48.022  50.227  1.00  0.00     0.049 C 
HETATM   12  C   UNL     1      18.195  50.419  49.954  1.00  0.00     0.014 A 
HETATM   13  H   UNL     1      22.014  52.075  47.473  1.00  0.00     0.169 HD
ENDROOT
BRANCH   6  14
HETATM   14  C   UNL     1      21.082  47.815  47.710  1.00  0.00     0.018 A 
HETATM   15  C   UNL     1      20.058  47.793  46.691  1.00  0.00     0.002 A 
HETATM   16  C   UNL     1      20.062  46.520  46.116  1.00  0.00     0.043 A 
HETATM   17  C   UNL     1      19.131  48.735  46.191  1.00  0.00     0.014 A 
HETATM   18  C   UNL     1      19.201  46.146  45.076  1.00  0.00     0.030 A 
HETATM   19  N   UNL     1      21.035  45.789  46.751  1.00  0.00    -0.365 N 
HETATM   20  C   UNL     1      18.302  47.102  44.601  1.00  0.00     0.002 A 
HETATM   21  C   UNL     1      18.263  48.379  45.150  1.00  0.00     0.001 A 
HETATM   22  H   UNL     1      21.269  44.831  46.529  1.00  0.00     0.165 HD
HETATM   23  C   UNL     1      21.652  46.549  47.700  1.00  0.00     0.100 A 
ENDBRANCH   6  14
BRANCH   6  24
HETATM   24  O   UNL     1      22.184  48.512  49.779  1.00  0.00    -0.371 OA
HETATM   25  H   UNL     1      23.117  48.759  49.671  1.00  0.00     0.212 HD
ENDBRANCH   6  24
TORSDOF 2
ENDMDL
MODEL 8
REMARK VINA RESULT:      -7.2     15.400     16.979
REMARK  2 active torsions:
REMARK  status: ('A' for Active; 'I' for Inactive)
REMARK    1  A    between atoms: C_6  and  C_8 
REMARK    2  A    between atoms: C_6  and  O_7 
ROOT
HETATM    1  C   UNL     1      33.911  41.761  66.677  1.00  0.00     0.048 C 
HETATM    2  C   UNL     1      34.882  42.694  66.014  1.00  0.00    -0.059 A 
HETATM    3  C   UNL     1      35.779  42.226  65.049  1.00  0.00     0.037 A 
HETATM    4  C   UNL     1      36.638  43.140  64.473  1.00  0.00     0.046 A 
HETATM    5  C   UNL     1      36.651  44.500  64.813  1.00  0.00     0.023 A 
HETATM    6  C   UNL     1      37.683  45.207  63.950  1.00  0.00     0.199 A 
HETATM    7  C   UNL     1      38.270  44.016  63.110  1.00  0.00     0.266 A 
HETATM    8  O   UNL     1      39.126  44.043  62.240  1.00  0.00    -0.269 OA
HETATM    9  N   UNL     1      37.576  42.869  63.488  1.00  0.00    -0.323 N 
HETATM   10  C   UNL     1      35.747  44.989  65.753  1.00  0.00    -0.049 A 
HETATM   11  C   UNL     1      35.707  46.430  66.163  1.00  0.00     0.049 C 
HETATM   12  C   UNL     1      34.877  44.063  66.360  1.00  0.00     0.014 A 
HETATM   13  H   UNL     1      37.758  41.967  63.075  1.00  0.00     0.169 HD
ENDROOT
BRANCH   6  14
HETATM   14  C   UNL     1      38.713  45.840  64.851  1.00  0.00     0.018 A 
HETATM   15  C   UNL     1      38.918  47.236  65.158  1.00  0.00     0.002 A 
HETATM   16  C   UNL     1      39.970  47.318  66.074  1.00  0.00     0.043 A 
HETATM   17  C   UNL     1      38.307  48.445  64.755  1.00  0.00     0.014 A 
HETATM   18  C   UNL     1      40.432  48.528  66.605  1.00  0.00     0.030 A 
HETATM   19  N   UNL     1      40.398  46.036  66.318  1.00  0.00    -0.365 N 
HETATM   20  C   UNL     1      39.803  49.703  66.191  1.00  0.00     0.002 A 
HETATM   21  C   UNL     1      38.755  49.665  65.277  1.00  0.00     0.001 A 
HETATM   22  H   UNL     1      41.144  45.792  66.954  1.00  0.00     0.165 HD
HETATM   23  C   UNL     1      39.656  45.147  65.598  1.00  0.00     0.100 A 
ENDBRANCH   6  14
BRANCH   6  24
HETATM   24  O   UNL     1      37.028  46.151  63.105  1.00  0.00    -0.371 OA
HETATM   25  H   UNL     1      36.311  46.538  63.632  1.00  0.00     0.212 HD
ENDBRANCH   6  24
TORSDOF 2
ENDMDL
MODEL 9
REMARK VINA RESULT:      -7.2      7.464     10.841
REMARK  2 active torsions:
REMARK  status: ('A' for Active; 'I' for Inactive)
REMARK    1  A    between atoms: C_6  and  C_8 
REMARK    2  A    between atoms: C_6  and  O_7 
ROOT
HETATM    1  C   UNL     1      25.529  50.121  48.273  1.00  0.00     0.048 C 
HETATM    2  C   UNL     1      24.099  49.691  48.433  1.00  0.00    -0.059 A 
HETATM    3  C   UNL     1      23.759  48.335  48.477  1.00  0.00     0.037 A 
HETATM    4  C   UNL     1      22.427  48.013  48.635  1.00  0.00     0.046 A 
HETATM    5  C   UNL     1      21.412  48.973  48.748  1.00  0.00     0.023 A 
HETATM    6  C   UNL     1      20.088  48.258  48.957  1.00  0.00     0.199 A 
HETATM    7  C   UNL     1      20.522  46.750  48.898  1.00  0.00     0.266 A 
HETATM    8  O   UNL     1      19.835  45.750  49.032  1.00  0.00    -0.269 OA
HETATM    9  N   UNL     1      21.905  46.731  48.723  1.00  0.00    -0.323 N 
HETATM   10  C   UNL     1      21.736  50.328  48.733  1.00  0.00    -0.049 A 
HETATM   11  C   UNL     1      20.701  51.407  48.848  1.00  0.00     0.049 C 
HETATM   12  C   UNL     1      23.089  50.671  48.556  1.00  0.00     0.014 A 
HETATM   13  H   UNL     1      22.430  45.871  48.671  1.00  0.00     0.169 HD
ENDROOT
BRANCH   6  14
HETATM   14  C   UNL     1      19.154  48.635  47.835  1.00  0.00     0.018 A 
HETATM   15  C   UNL     1      17.964  49.451  47.876  1.00  0.00     0.002 A 
HETATM   16  C   UNL     1      17.467  49.540  46.572  1.00  0.00     0.043 A 
HETATM   17  C   UNL     1      17.259  50.135  48.892  1.00  0.00     0.014 A 
HETATM   18  C   UNL     1      16.321  50.272  46.237  1.00  0.00     0.030 A 
HETATM   19  N   UNL     1      18.306  48.811  45.766  1.00  0.00    -0.365 N 
HETATM   20  C   UNL     1      15.653  50.941  47.264  1.00  0.00     0.002 A 
HETATM   21  C   UNL     1      16.112  50.873  48.575  1.00  0.00     0.001 A 
HETATM   22  H   UNL     1      18.195  48.709  44.767  1.00  0.00     0.165 HD
HETATM   23  C   UNL     1      19.316  48.269  46.505  1.00  0.00     0.100 A 
ENDBRANCH   6  14
BRANCH   6  24
HETATM   24  O   UNL     1      19.569  48.588  50.245  1.00  0.00    -0.371 OA
HETATM   25  H   UNL     1      18.703  48.998  50.094  1.00  0.00     0.212 HD
ENDBRANCH   6  24
TORSDOF 2
ENDMDL
MODEL 10
REMARK VINA RESULT:      -7.2     12.691     14.570
REMARK  2 active torsions:
REMARK  status: ('A' for Active; 'I' for Inactive)
REMARK    1  A    between atoms: C_6  and  C_8 
REMARK    2  A    between atoms: C_6  and  O_7 
ROOT
HETATM    1  C   UNL     1      34.380  50.888  42.452  1.00  0.00     0.048 C 
HETATM    2  C   UNL     1      32.993  50.954  41.881  1.00  0.00    -0.059 A 
HETATM    3  C   UNL     1      32.028  51.799  42.439  1.00  0.00     0.037 A 
HETATM    4  C   UNL     1      30.777  51.816  41.857  1.00  0.00     0.046 A 
HETATM    5  C   UNL     1      30.435  51.031  40.747  1.00  0.00     0.023 A 
HETATM    6  C   UNL     1      29.001  51.345  40.354  1.00  0.00     0.199 A 
HETATM    7  C   UNL     1      28.589  52.395  41.447  1.00  0.00     0.266 A 
HETATM    8  O   UNL     1      27.531  52.990  41.576  1.00  0.00    -0.269 OA
HETATM    9  N   UNL     1      29.705  52.601  42.255  1.00  0.00    -0.323 N 
HETATM   10  C   UNL     1      31.391  50.204  40.162  1.00  0.00    -0.049 A 
HETATM   11  C   UNL     1      31.093  49.338  38.975  1.00  0.00     0.049 C 
HETATM   12  C   UNL     1      32.667  50.164  40.756  1.00  0.00     0.014 A 
HETATM   13  H   UNL     1      29.700  53.251  43.027  1.00  0.00     0.169 HD
ENDROOT
BRANCH   6  14
HETATM   14  C   UNL     1      28.190  50.077  40.436  1.00  0.00     0.018 A 
HETATM   15  C   UNL     1      27.375  49.450  39.422  1.00  0.00     0.002 A 
HETATM   16  C   UNL     1      26.856  48.272  39.965  1.00  0.00     0.043 A 
HETATM   17  C   UNL     1      27.031  49.762  38.087  1.00  0.00     0.014 A 
HETATM   18  C   UNL     1      26.027  47.398  39.251  1.00  0.00     0.030 A 
HETATM   19  N   UNL     1      27.323  48.177  41.253  1.00  0.00    -0.365 N 
HETATM   20  C   UNL     1      25.712  47.732  37.932  1.00  0.00     0.002 A 
HETATM   21  C   UNL     1      26.204  48.899  37.357  1.00  0.00     0.001 A 
HETATM   22  H   UNL     1      27.116  47.414  41.883  1.00  0.00     0.165 HD
HETATM   23  C   UNL     1      28.120  49.244  41.545  1.00  0.00     0.100 A 
ENDBRANCH   6  14
BRANCH   6  24
HETATM   24  O   UNL     1      28.985  51.932  39.053  1.00  0.00    -0.371 OA
HETATM   25  H   UNL     1      29.078  52.889  39.184  1.00  0.00     0.212 HD
ENDBRANCH   6  24
TORSDOF 2
ENDMDL
