MODEL 1
REMARK VINA RESULT:     -10.0      0.000      0.000
REMARK  3 active torsions:
REMARK  status: ('A' for Active; 'I' for Inactive)
REMARK    1  A    between atoms: C_9  and  N_10 
REMARK       I    between atoms: N_10  and  C_11 
REMARK    2  A    between atoms: C_11  and  C_12 
REMARK    3  A    between atoms: N_14  and  C_15 
ROOT
HETATM    1  N   UNL     1      26.162  45.771  50.927  1.00  0.00    -0.322 N 
HETATM    2  C   UNL     1      26.702  44.635  50.358  1.00  0.00     0.276 C 
HETATM    3  O   UNL     1      26.822  44.365  49.172  1.00  0.00    -0.266 OA
HETATM    4  H   UNL     1      26.155  45.781  51.945  1.00  0.00     0.169 HD
ENDROOT
BRANCH   2   5
HETATM    5  C   UNL     1      27.255  43.660  51.393  1.00  0.00     0.145 A 
HETATM    6  N   UNL     1      27.929  44.143  52.389  1.00  0.00    -0.159 NA
HETATM    7  N   UNL     1      28.451  43.242  53.318  1.00  0.00    -0.197 N 
HETATM    8  C   UNL     1      28.310  41.850  53.183  1.00  0.00     0.268 A 
HETATM    9  O   UNL     1      28.739  40.970  53.924  1.00  0.00    -0.266 OA
HETATM   10  C   UNL     1      27.529  41.386  52.011  1.00  0.00     0.079 A 
HETATM   11  C   UNL     1      26.998  42.239  51.138  1.00  0.00     0.044 A 
BRANCH   7  12
HETATM   12  C   UNL     1      29.126  43.876  54.425  1.00  0.00     0.062 A 
HETATM   13  C   UNL     1      30.342  43.404  54.949  1.00  0.00     0.035 A 
HETATM   14  C   UNL     1      30.962  44.032  56.038  1.00  0.00     0.044 A 
HETATM   15  C   UNL     1      30.372  45.141  56.620  1.00  0.00     0.116 A 
HETATM   16  F   UNL     1      30.962  45.737  57.664  1.00  0.00    -0.206 F 
HETATM   17  C   UNL     1      29.176  45.640  56.130  1.00  0.00     0.044 A 
HETATM   18  C   UNL     1      28.562  45.014  55.040  1.00  0.00     0.035 A 
ENDBRANCH   7  12
ENDBRANCH   2   5
BRANCH   1  19
HETATM   19  C   UNL     1      25.646  46.895  50.255  1.00  0.00     0.035 A 
HETATM   20  C   UNL     1      24.278  47.110  50.056  1.00  0.00     0.039 A 
HETATM   21  C   UNL     1      23.869  48.241  49.364  1.00  0.00    -0.022 A 
HETATM   22  C   UNL     1      22.476  48.683  49.075  1.00  0.00     0.274 C 
HETATM   23  C   UNL     1      24.793  49.162  48.867  1.00  0.00    -0.025 A 
HETATM   24  N   UNL     1      22.637  49.843  48.100  1.00  0.00    -0.067 N 
HETATM   25  C   UNL     1      21.641  50.934  48.272  1.00  0.00     0.270 C 
HETATM   26  H   UNL     1      22.522  49.438  47.163  1.00  0.00     0.280 HD
HETATM   27  C   UNL     1      24.091  50.291  48.190  1.00  0.00     0.273 C 
HETATM   28  C   UNL     1      26.151  48.974  49.061  1.00  0.00     0.012 A 
HETATM   29  C   UNL     1      26.571  47.835  49.760  1.00  0.00     0.030 A 
ENDBRANCH   1  19
TORSDOF 3
ENDMDL
MODEL 2
REMARK VINA RESULT:      -9.8      3.385      8.758
REMARK  3 active torsions:
REMARK  status: ('A' for Active; 'I' for Inactive)
REMARK    1  A    between atoms: C_9  and  N_10 
REMARK       I    between atoms: N_10  and  C_11 
REMARK    2  A    between atoms: C_11  and  C_12 
REMARK    3  A    between atoms: N_14  and  C_15 
ROOT
HETATM    1  N   UNL     1      26.818  44.501  52.193  1.00  0.00    -0.322 N 
HETATM    2  C   UNL     1      25.452  44.526  52.387  1.00  0.00     0.276 C 
HETATM    3  O   UNL     1      24.832  44.405  53.434  1.00  0.00    -0.266 OA
HETATM    4  H   UNL     1      27.118  44.614  51.227  1.00  0.00     0.169 HD
ENDROOT
BRANCH   2   5
HETATM    5  C   UNL     1      24.676  44.801  51.102  1.00  0.00     0.145 A 
HETATM    6  N   UNL     1      24.487  46.034  50.753  1.00  0.00    -0.159 NA
HETATM    7  N   UNL     1      23.757  46.277  49.589  1.00  0.00    -0.197 N 
HETATM    8  C   UNL     1      23.190  45.243  48.824  1.00  0.00     0.268 A 
HETATM    9  O   UNL     1      22.520  45.340  47.800  1.00  0.00    -0.266 OA
HETATM   10  C   UNL     1      23.452  43.863  49.299  1.00  0.00     0.079 A 
HETATM   11  C   UNL     1      24.177  43.620  50.388  1.00  0.00     0.044 A 
BRANCH   7  12
HETATM   12  C   UNL     1      23.658  47.675  49.248  1.00  0.00     0.062 A 
HETATM   13  C   UNL     1      24.781  48.486  49.013  1.00  0.00     0.035 A 
HETATM   14  C   UNL     1      24.651  49.846  48.702  1.00  0.00     0.044 A 
HETATM   15  C   UNL     1      23.391  50.416  48.624  1.00  0.00     0.116 A 
HETATM   16  F   UNL     1      23.268  51.717  48.333  1.00  0.00    -0.206 F 
HETATM   17  C   UNL     1      22.258  49.651  48.844  1.00  0.00     0.044 A 
HETATM   18  C   UNL     1      22.391  48.291  49.149  1.00  0.00     0.035 A 
ENDBRANCH   7  12
ENDBRANCH   2   5
BRANCH   1  19
HETATM   19  C   UNL     1      27.813  44.356  53.178  1.00  0.00     0.035 A 
HETATM   20  C   UNL     1      27.959  45.235  54.257  1.00  0.00     0.039 A 
HETATM   21  C   UNL     1      28.984  45.017  55.167  1.00  0.00    -0.022 A 
HETATM   22  C   UNL     1      29.296  45.796  56.397  1.00  0.00     0.274 C 
HETATM   23  C   UNL     1      29.865  43.943  55.026  1.00  0.00    -0.025 A 
HETATM   24  N   UNL     1      30.641  45.254  56.864  1.00  0.00    -0.067 N 
HETATM   25  C   UNL     1      30.802  45.192  58.341  1.00  0.00     0.270 C 
HETATM   26  H   UNL     1      31.348  45.895  56.483  1.00  0.00     0.280 HD
HETATM   27  C   UNL     1      30.849  43.925  56.146  1.00  0.00     0.273 C 
HETATM   28  C   UNL     1      29.731  43.055  53.972  1.00  0.00     0.012 A 
HETATM   29  C   UNL     1      28.699  43.268  53.050  1.00  0.00     0.030 A 
ENDBRANCH   1  19
TORSDOF 3
ENDMDL
MODEL 3
REMARK VINA RESULT:      -9.7      3.781      9.243
REMARK  3 active torsions:
REMARK  status: ('A' for Active; 'I' for Inactive)
REMARK    1  A    between atoms: C_9  and  N_10 
REMARK       I    between atoms: N_10  and  C_11 
REMARK    2  A    between atoms: C_11  and  C_12 
REMARK    3  A    between atoms: N_14  and  C_15 
ROOT
HETATM    1  N   UNL     1      26.443  45.250  52.143  1.00  0.00    -0.322 N 
HETATM    2  C   UNL     1      25.897  46.479  51.830  1.00  0.00     0.276 C 
HETATM    3  O   UNL     1      26.138  47.566  52.333  1.00  0.00    -0.266 OA
HETATM    4  H   UNL     1      26.085  44.468  51.598  1.00  0.00     0.169 HD
ENDROOT
BRANCH   2   5
HETATM    5  C   UNL     1      24.918  46.411  50.662  1.00  0.00     0.145 A 
HETATM    6  N   UNL     1      24.210  47.463  50.395  1.00  0.00    -0.159 NA
HETATM    7  N   UNL     1      23.300  47.383  49.340  1.00  0.00    -0.197 N 
HETATM    8  C   UNL     1      23.098  46.203  48.603  1.00  0.00     0.268 A 
HETATM    9  O   UNL     1      22.319  46.016  47.672  1.00  0.00    -0.266 OA
HETATM   10  C   UNL     1      23.947  45.047  48.980  1.00  0.00     0.079 A 
HETATM   11  C   UNL     1      24.842  45.124  49.962  1.00  0.00     0.044 A 
BRANCH   7  12
HETATM   12  C   UNL     1      22.609  48.622  49.076  1.00  0.00     0.062 A 
HETATM   13  C   UNL     1      23.275  49.810  48.730  1.00  0.00     0.035 A 
HETATM   14  C   UNL     1      22.575  51.002  48.499  1.00  0.00     0.044 A 
HETATM   15  C   UNL     1      21.195  51.022  48.614  1.00  0.00     0.116 A 
HETATM   16  F   UNL     1      20.527  52.163  48.399  1.00  0.00    -0.206 F 
HETATM   17  C   UNL     1      20.500  49.872  48.949  1.00  0.00     0.044 A 
HETATM   18  C   UNL     1      21.202  48.682  49.174  1.00  0.00     0.035 A 
ENDBRANCH   7  12
ENDBRANCH   2   5
BRANCH   1  19
HETATM   19  C   UNL     1      27.433  44.982  53.107  1.00  0.00     0.035 A 
HETATM   20  C   UNL     1      27.601  45.746  54.267  1.00  0.00     0.039 A 
HETATM   21  C   UNL     1      28.619  45.412  55.149  1.00  0.00    -0.022 A 
HETATM   22  C   UNL     1      28.951  46.058  56.450  1.00  0.00     0.274 C 
HETATM   23  C   UNL     1      29.472  44.335  54.901  1.00  0.00    -0.025 A 
HETATM   24  N   UNL     1      30.281  45.438  56.858  1.00  0.00    -0.067 N 
HETATM   25  C   UNL     1      30.440  45.226  58.321  1.00  0.00     0.270 C 
HETATM   26  H   UNL     1      31.005  46.095  56.541  1.00  0.00     0.280 HD
HETATM   27  C   UNL     1      30.454  44.181  56.012  1.00  0.00     0.273 C 
HETATM   28  C   UNL     1      29.316  43.560  53.765  1.00  0.00     0.012 A 
HETATM   29  C   UNL     1      28.290  43.889  52.870  1.00  0.00     0.030 A 
ENDBRANCH   1  19
TORSDOF 3
ENDMDL
MODEL 4
REMARK VINA RESULT:      -9.7      3.875      6.934
REMARK  3 active torsions:
REMARK  status: ('A' for Active; 'I' for Inactive)
REMARK    1  A    between atoms: C_9  and  N_10 
REMARK       I    between atoms: N_10  and  C_11 
REMARK    2  A    between atoms: C_11  and  C_12 
REMARK    3  A    between atoms: N_14  and  C_15 
ROOT
HETATM    1  N   UNL     1      22.044  50.431  48.897  1.00  0.00    -0.322 N 
HETATM    2  C   UNL     1      22.531  49.235  48.409  1.00  0.00     0.276 C 
HETATM    3  O   UNL     1      21.922  48.350  47.825  1.00  0.00    -0.266 OA
HETATM    4  H   UNL     1      22.733  51.019  49.362  1.00  0.00     0.169 HD
ENDROOT
BRANCH   2   5
HETATM    5  C   UNL     1      24.037  49.085  48.604  1.00  0.00     0.145 A 
HETATM    6  N   UNL     1      24.463  48.120  49.357  1.00  0.00    -0.159 NA
HETATM    7  N   UNL     1      25.840  48.005  49.549  1.00  0.00    -0.197 N 
HETATM    8  C   UNL     1      26.759  48.917  49.000  1.00  0.00     0.268 A 
HETATM    9  O   UNL     1      27.981  48.923  49.117  1.00  0.00    -0.266 OA
HETATM   10  C   UNL     1      26.183  49.994  48.158  1.00  0.00     0.079 A 
HETATM   11  C   UNL     1      24.874  50.091  47.940  1.00  0.00     0.044 A 
BRANCH   7  12
HETATM   12  C   UNL     1      26.221  46.863  50.344  1.00  0.00     0.062 A 
HETATM   13  C   UNL     1      26.799  45.707  49.792  1.00  0.00     0.035 A 
HETATM   14  C   UNL     1      27.140  44.606  50.589  1.00  0.00     0.044 A 
HETATM   15  C   UNL     1      26.905  44.646  51.954  1.00  0.00     0.116 A 
HETATM   16  F   UNL     1      27.225  43.592  52.714  1.00  0.00    -0.206 F 
HETATM   17  C   UNL     1      26.342  45.769  52.538  1.00  0.00     0.044 A 
HETATM   18  C   UNL     1      26.007  46.868  51.739  1.00  0.00     0.035 A 
ENDBRANCH   7  12
ENDBRANCH   2   5
BRANCH   1  19
HETATM   19  C   UNL     1      20.725  50.913  48.802  1.00  0.00     0.035 A 
HETATM   20  C   UNL     1      20.038  51.036  47.590  1.00  0.00     0.039 A 
HETATM   21  C   UNL     1      18.745  51.539  47.598  1.00  0.00    -0.022 A 
HETATM   22  C   UNL     1      17.825  51.717  46.440  1.00  0.00     0.274 C 
HETATM   23  C   UNL     1      18.121  51.920  48.788  1.00  0.00    -0.025 A 
HETATM   24  N   UNL     1      16.652  52.512  47.001  1.00  0.00    -0.067 N 
HETATM   25  C   UNL     1      15.330  52.149  46.424  1.00  0.00     0.270 C 
HETATM   26  H   UNL     1      16.849  53.495  46.779  1.00  0.00     0.280 HD
HETATM   27  C   UNL     1      16.735  52.399  48.519  1.00  0.00     0.273 C 
HETATM   28  C   UNL     1      18.778  51.796  49.999  1.00  0.00     0.012 A 
HETATM   29  C   UNL     1      20.084  51.288  49.999  1.00  0.00     0.030 A 
ENDBRANCH   1  19
TORSDOF 3
ENDMDL
MODEL 5
REMARK VINA RESULT:      -9.6      4.091      9.492
REMARK  3 active torsions:
REMARK  status: ('A' for Active; 'I' for Inactive)
REMARK    1  A    between atoms: C_9  and  N_10 
REMARK       I    between atoms: N_10  and  C_11 
REMARK    2  A    between atoms: C_11  and  C_12 
REMARK    3  A    between atoms: N_14  and  C_15 
ROOT
HETATM    1  N   UNL     1      25.408  46.573  52.136  1.00  0.00    -0.322 N 
HETATM    2  C   UNL     1      25.551  47.213  50.921  1.00  0.00     0.276 C 
HETATM    3  O   UNL     1      26.531  47.799  50.483  1.00  0.00    -0.266 OA
HETATM    4  H   UNL     1      24.494  46.157  52.298  1.00  0.00     0.169 HD
ENDROOT
BRANCH   2   5
HETATM    5  C   UNL     1      24.314  47.087  50.037  1.00  0.00     0.145 A 
HETATM    6  N   UNL     1      23.538  48.118  49.919  1.00  0.00    -0.159 NA
HETATM    7  N   UNL     1      22.397  47.986  49.128  1.00  0.00    -0.197 N 
HETATM    8  C   UNL     1      22.044  46.776  48.505  1.00  0.00     0.268 A 
HETATM    9  O   UNL     1      21.062  46.543  47.806  1.00  0.00    -0.266 OA
HETATM   10  C   UNL     1      22.986  45.647  48.698  1.00  0.00     0.079 A 
HETATM   11  C   UNL     1      24.095  45.773  49.422  1.00  0.00     0.044 A 
BRANCH   7  12
HETATM   12  C   UNL     1      21.634  49.204  49.003  1.00  0.00     0.062 A 
HETATM   13  C   UNL     1      20.306  49.324  49.449  1.00  0.00     0.035 A 
HETATM   14  C   UNL     1      19.586  50.516  49.295  1.00  0.00     0.044 A 
HETATM   15  C   UNL     1      20.185  51.608  48.688  1.00  0.00     0.116 A 
HETATM   16  F   UNL     1      19.494  52.744  48.535  1.00  0.00    -0.206 F 
HETATM   17  C   UNL     1      21.493  51.532  48.237  1.00  0.00     0.044 A 
HETATM   18  C   UNL     1      22.211  50.342  48.398  1.00  0.00     0.035 A 
ENDBRANCH   7  12
ENDBRANCH   2   5
BRANCH   1  19
HETATM   19  C   UNL     1      26.385  46.431  53.140  1.00  0.00     0.035 A 
HETATM   20  C   UNL     1      27.198  45.299  53.264  1.00  0.00     0.039 A 
HETATM   21  C   UNL     1      28.120  45.245  54.299  1.00  0.00    -0.022 A 
HETATM   22  C   UNL     1      29.103  44.165  54.593  1.00  0.00     0.274 C 
HETATM   23  C   UNL     1      28.249  46.293  55.213  1.00  0.00    -0.025 A 
HETATM   24  N   UNL     1      29.676  44.529  55.957  1.00  0.00    -0.067 N 
HETATM   25  C   UNL     1      31.117  44.202  56.128  1.00  0.00     0.270 C 
HETATM   26  H   UNL     1      29.134  43.988  56.641  1.00  0.00     0.280 HD
HETATM   27  C   UNL     1      29.323  45.991  56.203  1.00  0.00     0.273 C 
HETATM   28  C   UNL     1      27.462  47.426  55.102  1.00  0.00     0.012 A 
HETATM   29  C   UNL     1      26.530  47.489  54.059  1.00  0.00     0.030 A 
ENDBRANCH   1  19
TORSDOF 3
ENDMDL
MODEL 6
REMARK VINA RESULT:      -9.5      4.354      9.880
REMARK  3 active torsions:
REMARK  status: ('A' for Active; 'I' for Inactive)
REMARK    1  A    between atoms: C_9  and  N_10 
REMARK       I    between atoms: N_10  and  C_11 
REMARK    2  A    between atoms: C_11  and  C_12 
REMARK    3  A    between atoms: N_14  and  C_15 
ROOT
HETATM    1  N   UNL     1      24.335  46.555  50.968  1.00  0.00    -0.322 N 
HETATM    2  C   UNL     1      24.369  47.605  50.072  1.00  0.00     0.276 C 
HETATM    3  O   UNL     1      25.265  48.415  49.887  1.00  0.00    -0.266 OA
HETATM    4  H   UNL     1      23.477  46.009  50.959  1.00  0.00     0.169 HD
ENDROOT
BRANCH   2   5
HETATM    5  C   UNL     1      23.124  47.671  49.192  1.00  0.00     0.145 A 
HETATM    6  N   UNL     1      22.277  48.629  49.402  1.00  0.00    -0.159 NA
HETATM    7  N   UNL     1      21.130  48.668  48.609  1.00  0.00    -0.197 N 
HETATM    8  C   UNL     1      20.848  47.690  47.638  1.00  0.00     0.268 A 
HETATM    9  O   UNL     1      19.869  47.616  46.901  1.00  0.00    -0.266 OA
HETATM   10  C   UNL     1      21.870  46.628  47.469  1.00  0.00     0.079 A 
HETATM   11  C   UNL     1      22.983  46.603  48.197  1.00  0.00     0.044 A 
BRANCH   7  12
HETATM   12  C   UNL     1      20.282  49.806  48.870  1.00  0.00     0.062 A 
HETATM   13  C   UNL     1      19.170  49.749  49.728  1.00  0.00     0.035 A 
HETATM   14  C   UNL     1      18.354  50.867  49.946  1.00  0.00     0.044 A 
HETATM   15  C   UNL     1      18.640  52.062  49.305  1.00  0.00     0.116 A 
HETATM   16  F   UNL     1      17.857  53.128  49.508  1.00  0.00    -0.206 F 
HETATM   17  C   UNL     1      19.729  52.161  48.455  1.00  0.00     0.044 A 
HETATM   18  C   UNL     1      20.544  51.043  48.244  1.00  0.00     0.035 A 
ENDBRANCH   7  12
ENDBRANCH   2   5
BRANCH   1  19
HETATM   19  C   UNL     1      25.354  46.167  51.859  1.00  0.00     0.035 A 
HETATM   20  C   UNL     1      25.753  46.942  52.953  1.00  0.00     0.039 A 
HETATM   21  C   UNL     1      26.780  46.482  53.764  1.00  0.00    -0.022 A 
HETATM   22  C   UNL     1      27.333  47.120  54.992  1.00  0.00     0.274 C 
HETATM   23  C   UNL     1      27.417  45.265  53.510  1.00  0.00    -0.025 A 
HETATM   24  N   UNL     1      28.575  46.302  55.322  1.00  0.00    -0.067 N 
HETATM   25  C   UNL     1      28.832  46.132  56.777  1.00  0.00     0.270 C 
HETATM   26  H   UNL     1      29.364  46.812  54.906  1.00  0.00     0.280 HD
HETATM   27  C   UNL     1      28.460  44.997  54.541  1.00  0.00     0.273 C 
HETATM   28  C   UNL     1      27.030  44.478  52.440  1.00  0.00     0.012 A 
HETATM   29  C   UNL     1      25.993  44.936  51.616  1.00  0.00     0.030 A 
ENDBRANCH   1  19
TORSDOF 3
ENDMDL
MODEL 7
REMARK VINA RESULT:      -9.3      4.309     10.047
REMARK  3 active torsions:
REMARK  status: ('A' for Active; 'I' for Inactive)
REMARK    1  A    between atoms: C_9  and  N_10 
REMARK       I    between atoms: N_10  and  C_11 
REMARK    2  A    between atoms: C_11  and  C_12 
REMARK    3  A    between atoms: N_14  and  C_15 
ROOT
HETATM    1  N   UNL     1      24.145  46.379  50.567  1.00  0.00    -0.322 N 
HETATM    2  C   UNL     1      24.085  47.574  49.878  1.00  0.00     0.276 C 
HETATM    3  O   UNL     1      24.904  48.481  49.859  1.00  0.00    -0.266 OA
HETATM    4  H   UNL     1      23.340  45.769  50.444  1.00  0.00     0.169 HD
ENDROOT
BRANCH   2   5
HETATM    5  C   UNL     1      22.839  47.690  49.004  1.00  0.00     0.145 A 
HETATM    6  N   UNL     1      22.011  48.657  49.243  1.00  0.00    -0.159 NA
HETATM    7  N   UNL     1      20.864  48.741  48.455  1.00  0.00    -0.197 N 
HETATM    8  C   UNL     1      20.561  47.798  47.458  1.00  0.00     0.268 A 
HETATM    9  O   UNL     1      19.579  47.764  46.721  1.00  0.00    -0.266 OA
HETATM   10  C   UNL     1      21.560  46.721  47.255  1.00  0.00     0.079 A 
HETATM   11  C   UNL     1      22.675  46.653  47.979  1.00  0.00     0.044 A 
BRANCH   7  12
HETATM   12  C   UNL     1      20.039  49.888  48.751  1.00  0.00     0.062 A 
HETATM   13  C   UNL     1      20.293  51.167  48.228  1.00  0.00     0.035 A 
HETATM   14  C   UNL     1      19.484  52.265  48.551  1.00  0.00     0.044 A 
HETATM   15  C   UNL     1      18.408  52.097  49.407  1.00  0.00     0.116 A 
HETATM   16  F   UNL     1      17.639  53.147  49.721  1.00  0.00    -0.206 F 
HETATM   17  C   UNL     1      18.121  50.852  49.941  1.00  0.00     0.044 A 
HETATM   18  C   UNL     1      18.928  49.757  49.612  1.00  0.00     0.035 A 
ENDBRANCH   7  12
ENDBRANCH   2   5
BRANCH   1  19
HETATM   19  C   UNL     1      25.194  45.925  51.389  1.00  0.00     0.035 A 
HETATM   20  C   UNL     1      25.996  44.824  51.073  1.00  0.00     0.039 A 
HETATM   21  C   UNL     1      26.995  44.443  51.958  1.00  0.00    -0.022 A 
HETATM   22  C   UNL     1      27.980  43.337  51.805  1.00  0.00     0.274 C 
HETATM   23  C   UNL     1      27.211  45.137  53.151  1.00  0.00    -0.025 A 
HETATM   24  N   UNL     1      28.663  43.241  53.164  1.00  0.00    -0.067 N 
HETATM   25  C   UNL     1      30.107  42.891  53.105  1.00  0.00     0.270 C 
HETATM   26  H   UNL     1      28.166  42.500  53.674  1.00  0.00     0.280 HD
HETATM   27  C   UNL     1      28.354  44.539  53.900  1.00  0.00     0.273 C 
HETATM   28  C   UNL     1      26.436  46.236  53.478  1.00  0.00     0.012 A 
HETATM   29  C   UNL     1      25.427  46.627  52.589  1.00  0.00     0.030 A 
ENDBRANCH   1  19
TORSDOF 3
ENDMDL
MODEL 8
REMARK VINA RESULT:      -9.3      2.013      3.161
REMARK  3 active torsions:
REMARK  status: ('A' for Active; 'I' for Inactive)
REMARK    1  A    between atoms: C_9  and  N_10 
REMARK       I    between atoms: N_10  and  C_11 
REMARK    2  A    between atoms: C_11  and  C_12 
REMARK    3  A    between atoms: N_14  and  C_15 
ROOT
HETATM    1  N   UNL     1      24.039  47.176  49.457  1.00  0.00    -0.322 N 
HETATM    2  C   UNL     1      24.821  46.940  50.571  1.00  0.00     0.276 C 
HETATM    3  O   UNL     1      24.955  47.639  51.565  1.00  0.00    -0.266 OA
HETATM    4  H   UNL     1      24.087  46.458  48.738  1.00  0.00     0.169 HD
ENDROOT
BRANCH   2   5
HETATM    5  C   UNL     1      25.536  45.594  50.517  1.00  0.00     0.145 A 
HETATM    6  N   UNL     1      26.438  45.344  51.413  1.00  0.00    -0.159 NA
HETATM    7  N   UNL     1      27.104  44.120  51.341  1.00  0.00    -0.197 N 
HETATM    8  C   UNL     1      26.864  43.187  50.317  1.00  0.00     0.268 A 
HETATM    9  O   UNL     1      27.399  42.095  50.148  1.00  0.00    -0.266 OA
HETATM   10  C   UNL     1      25.820  43.558  49.332  1.00  0.00     0.079 A 
HETATM   11  C   UNL     1      25.154  44.707  49.412  1.00  0.00     0.044 A 
BRANCH   7  12
HETATM   12  C   UNL     1      28.040  43.905  52.419  1.00  0.00     0.062 A 
HETATM   13  C   UNL     1      29.190  43.108  52.285  1.00  0.00     0.035 A 
HETATM   14  C   UNL     1      30.068  42.903  53.357  1.00  0.00     0.044 A 
HETATM   15  C   UNL     1      29.807  43.493  54.583  1.00  0.00     0.116 A 
HETATM   16  F   UNL     1      30.643  43.293  55.608  1.00  0.00    -0.206 F 
HETATM   17  C   UNL     1      28.687  44.290  54.755  1.00  0.00     0.044 A 
HETATM   18  C   UNL     1      27.814  44.496  53.681  1.00  0.00     0.035 A 
ENDBRANCH   7  12
ENDBRANCH   2   5
BRANCH   1  19
HETATM   19  C   UNL     1      23.192  48.278  49.232  1.00  0.00     0.035 A 
HETATM   20  C   UNL     1      21.800  48.170  49.147  1.00  0.00     0.039 A 
HETATM   21  C   UNL     1      21.051  49.313  48.905  1.00  0.00    -0.022 A 
HETATM   22  C   UNL     1      19.569  49.434  48.816  1.00  0.00     0.274 C 
HETATM   23  C   UNL     1      21.660  50.560  48.746  1.00  0.00    -0.025 A 
HETATM   24  N   UNL     1      19.331  50.851  48.308  1.00  0.00    -0.067 N 
HETATM   25  C   UNL     1      18.123  51.512  48.871  1.00  0.00     0.270 C 
HETATM   26  H   UNL     1      19.215  50.768  47.291  1.00  0.00     0.280 HD
HETATM   27  C   UNL     1      20.631  51.617  48.523  1.00  0.00     0.273 C 
HETATM   28  C   UNL     1      23.034  50.690  48.837  1.00  0.00     0.012 A 
HETATM   29  C   UNL     1      23.797  49.541  49.083  1.00  0.00     0.030 A 
ENDBRANCH   1  19
TORSDOF 3
ENDMDL
MODEL 9
REMARK VINA RESULT:      -9.1      3.731      6.590
REMARK  3 active torsions:
REMARK  status: ('A' for Active; 'I' for Inactive)
REMARK    1  A    between atoms: C_9  and  N_10 
REMARK       I    between atoms: N_10  and  C_11 
REMARK    2  A    between atoms: C_11  and  C_12 
REMARK    3  A    between atoms: N_14  and  C_15 
ROOT
HETATM    1  N   UNL     1      26.648  43.162  51.083  1.00  0.00    -0.322 N 
HETATM    2  C   UNL     1      25.702  43.805  51.856  1.00  0.00     0.276 C 
HETATM    3  O   UNL     1      24.497  43.603  51.905  1.00  0.00    -0.266 OA
HETATM    4  H   UNL     1      27.600  43.502  51.196  1.00  0.00     0.169 HD
ENDROOT
BRANCH   2   5
HETATM    5  C   UNL     1      26.310  44.850  52.787  1.00  0.00     0.145 A 
HETATM    6  N   UNL     1      27.290  44.490  53.554  1.00  0.00    -0.159 NA
HETATM    7  N   UNL     1      27.825  45.445  54.419  1.00  0.00    -0.197 N 
HETATM    8  C   UNL     1      27.309  46.750  54.516  1.00  0.00     0.268 A 
HETATM    9  O   UNL     1      27.687  47.660  55.248  1.00  0.00    -0.266 OA
HETATM   10  C   UNL     1      26.184  47.074  53.606  1.00  0.00     0.079 A 
HETATM   11  C   UNL     1      25.691  46.180  52.752  1.00  0.00     0.044 A 
BRANCH   7  12
HETATM   12  C   UNL     1      28.954  44.970  55.181  1.00  0.00     0.062 A 
HETATM   13  C   UNL     1      29.443  45.637  56.318  1.00  0.00     0.035 A 
HETATM   14  C   UNL     1      30.554  45.160  57.026  1.00  0.00     0.044 A 
HETATM   15  C   UNL     1      31.195  44.007  56.603  1.00  0.00     0.116 A 
HETATM   16  F   UNL     1      32.261  43.555  57.275  1.00  0.00    -0.206 F 
HETATM   17  C   UNL     1      30.742  43.318  55.490  1.00  0.00     0.044 A 
HETATM   18  C   UNL     1      29.629  43.795  54.789  1.00  0.00     0.035 A 
ENDBRANCH   7  12
ENDBRANCH   2   5
BRANCH   1  19
HETATM   19  C   UNL     1      26.431  42.097  50.188  1.00  0.00     0.035 A 
HETATM   20  C   UNL     1      26.857  40.788  50.436  1.00  0.00     0.039 A 
HETATM   21  C   UNL     1      26.612  39.810  49.483  1.00  0.00    -0.022 A 
HETATM   22  C   UNL     1      26.940  38.359  49.555  1.00  0.00     0.274 C 
HETATM   23  C   UNL     1      25.951  40.108  48.289  1.00  0.00    -0.025 A 
HETATM   24  N   UNL     1      26.657  37.831  48.154  1.00  0.00    -0.067 N 
HETATM   25  C   UNL     1      26.106  36.451  48.115  1.00  0.00     0.270 C 
HETATM   26  H   UNL     1      27.561  37.837  47.666  1.00  0.00     0.280 HD
HETATM   27  C   UNL     1      25.796  38.879  47.459  1.00  0.00     0.273 C 
HETATM   28  C   UNL     1      25.512  41.394  48.029  1.00  0.00     0.012 A 
HETATM   29  C   UNL     1      25.755  42.387  48.987  1.00  0.00     0.030 A 
ENDBRANCH   1  19
TORSDOF 3
ENDMDL
MODEL 10
REMARK VINA RESULT:      -9.0      4.190      9.759
REMARK  3 active torsions:
REMARK  status: ('A' for Active; 'I' for Inactive)
REMARK    1  A    between atoms: C_9  and  N_10 
REMARK       I    between atoms: N_10  and  C_11 
REMARK    2  A    between atoms: C_11  and  C_12 
REMARK    3  A    between atoms: N_14  and  C_15 
ROOT
HETATM    1  N   UNL     1      24.855  47.078  51.026  1.00  0.00    -0.322 N 
HETATM    2  C   UNL     1      25.272  47.670  49.851  1.00  0.00     0.276 C 
HETATM    3  O   UNL     1      26.342  47.542  49.275  1.00  0.00    -0.266 OA
HETATM    4  H   UNL     1      23.919  47.337  51.331  1.00  0.00     0.169 HD
ENDROOT
BRANCH   2   5
HETATM    5  C   UNL     1      24.192  48.537  49.210  1.00  0.00     0.145 A 
HETATM    6  N   UNL     1      22.961  48.138  49.287  1.00  0.00    -0.159 NA
HETATM    7  N   UNL     1      21.983  48.925  48.678  1.00  0.00    -0.197 N 
HETATM    8  C   UNL     1      22.292  50.091  47.957  1.00  0.00     0.268 A 
HETATM    9  O   UNL     1      21.520  50.846  47.371  1.00  0.00    -0.266 OA
HETATM   10  C   UNL     1      23.726  50.471  47.916  1.00  0.00     0.079 A 
HETATM   11  C   UNL     1      24.662  49.745  48.523  1.00  0.00     0.044 A 
BRANCH   7  12
HETATM   12  C   UNL     1      20.640  48.436  48.875  1.00  0.00     0.062 A 
HETATM   13  C   UNL     1      20.120  47.331  48.180  1.00  0.00     0.035 A 
HETATM   14  C   UNL     1      18.803  46.894  48.381  1.00  0.00     0.044 A 
HETATM   15  C   UNL     1      17.987  47.559  49.280  1.00  0.00     0.116 A 
HETATM   16  F   UNL     1      16.728  47.144  49.466  1.00  0.00    -0.206 F 
HETATM   17  C   UNL     1      18.463  48.650  49.988  1.00  0.00     0.044 A 
HETATM   18  C   UNL     1      19.779  49.081  49.790  1.00  0.00     0.035 A 
ENDBRANCH   7  12
ENDBRANCH   2   5
BRANCH   1  19
HETATM   19  C   UNL     1      25.574  46.160  51.816  1.00  0.00     0.035 A 
HETATM   20  C   UNL     1      25.774  44.825  51.450  1.00  0.00     0.039 A 
HETATM   21  C   UNL     1      26.482  43.993  52.306  1.00  0.00    -0.022 A 
HETATM   22  C   UNL     1      26.843  42.562  52.100  1.00  0.00     0.274 C 
HETATM   23  C   UNL     1      26.996  44.463  53.516  1.00  0.00    -0.025 A 
HETATM   24  N   UNL     1      27.403  42.112  53.443  1.00  0.00    -0.067 N 
HETATM   25  C   UNL     1      28.520  41.135  53.348  1.00  0.00     0.270 C 
HETATM   26  H   UNL     1      26.620  41.667  53.938  1.00  0.00     0.280 HD
HETATM   27  C   UNL     1      27.731  43.378  54.226  1.00  0.00     0.273 C 
HETATM   28  C   UNL     1      26.819  45.783  53.891  1.00  0.00     0.012 A 
HETATM   29  C   UNL     1      26.106  46.630  53.033  1.00  0.00     0.030 A 
ENDBRANCH   1  19
TORSDOF 3
ENDMDL
