MODEL 1
REMARK VINA RESULT:      -9.9      0.000      0.000
REMARK  5 active torsions:
REMARK  status: ('A' for Active; 'I' for Inactive)
REMARK    1  A    between atoms: C_2  and  C_3 
REMARK    2  A    between atoms: C_7  and  N_8 
REMARK    3  A    between atoms: C_13  and  N_14 
REMARK       I    between atoms: N_14  and  C_15 
REMARK    4  A    between atoms: C_15  and  C_16 
REMARK       I    between atoms: C_16  and  N_17 
REMARK    5  A    between atoms: N_17  and  C_18 
ROOT
HETATM    1  N   UNL     1      25.083  47.843  50.108  1.00  0.00    -0.045 N 
HETATM    2  N   UNL     1      26.235  48.349  49.563  1.00  0.00    -0.156 NA
HETATM    3  C   UNL     1      25.814  49.339  48.765  1.00  0.00     0.055 C 
HETATM    4  C   UNL     1      26.788  50.184  48.028  1.00  0.00     0.072 C 
HETATM    5  C   UNL     1      24.404  49.429  48.727  1.00  0.00     0.079 C 
HETATM    6  C   UNL     1      23.961  48.381  49.498  1.00  0.00     0.152 C 
ENDROOT
BRANCH   6   7
HETATM    7  N   UNL     1      22.630  48.024  49.598  1.00  0.00    -0.303 N 
HETATM    8  C   UNL     1      21.895  47.533  48.464  1.00  0.00     0.315 C 
HETATM    9  O   UNL     1      22.367  47.483  47.343  1.00  0.00    -0.262 OA
HETATM   10  H   UNL     1      22.089  48.256  50.426  1.00  0.00     0.171 HD
BRANCH   8  11
HETATM   11  C   UNL     1      20.394  47.390  48.764  1.00  0.00     0.310 C 
HETATM   12  N   UNL     1      19.678  48.574  48.794  1.00  0.00    -0.348 N 
HETATM   13  H   UNL     1      20.163  49.431  48.538  1.00  0.00     0.163 HD
HETATM   14  O   UNL     1      19.990  46.293  49.130  1.00  0.00    -0.262 OA
BRANCH  12  15
HETATM   15  C   UNL     1      18.442  48.664  49.559  1.00  0.00     0.085 C 
HETATM   16  C   UNL     1      18.232  50.070  50.152  1.00  0.00     0.034 C 
HETATM   17  C   UNL     1      17.775  51.151  49.143  1.00  0.00    -0.045 C 
HETATM   18  C   UNL     1      18.894  51.548  48.161  1.00  0.00     0.015 C 
HETATM   19  C   UNL     1      17.399  52.421  49.934  1.00  0.00     0.015 C 
HETATM   20  C   UNL     1      16.533  50.642  48.383  1.00  0.00     0.013 C 
HETATM   21  C   UNL     1      16.733  49.264  47.730  1.00  0.00    -0.016 C 
HETATM   22  C   UNL     1      15.424  48.802  47.083  1.00  0.00     0.010 C 
HETATM   23  C   UNL     1      17.220  48.218  48.746  1.00  0.00     0.029 C 
ENDBRANCH  12  15
ENDBRANCH   8  11
ENDBRANCH   6   7
BRANCH   1  24
HETATM   24  C   UNL     1      25.152  47.043  51.261  1.00  0.00     0.732 A 
HETATM   25  N   UNL     1      24.722  45.772  51.020  1.00  0.00    -0.152 N 
HETATM   26  C   UNL     1      24.759  44.817  51.983  1.00  0.00     0.268 A 
HETATM   27  H   UNL     1      24.407  45.510  50.091  1.00  0.00     0.188 HD
HETATM   28  C   UNL     1      25.289  45.260  53.306  1.00  0.00     0.035 A 
HETATM   29  O   UNL     1      24.395  43.668  51.769  1.00  0.00    -0.267 OA
HETATM   30  C   UNL     1      25.682  46.547  53.419  1.00  0.00     0.061 A 
HETATM   31  N   UNL     1      25.619  47.465  52.390  1.00  0.00    -0.067 NA
HETATM   32  C   UNL     1      26.282  47.119  54.680  1.00  0.00     0.072 C 
BRANCH  28  33
HETATM   33  C   UNL     1      25.307  44.212  54.388  1.00  0.00     0.042 C 
HETATM   34  C   UNL     1      26.670  43.547  54.514  1.00  0.00     0.010 C 
ENDBRANCH  28  33
ENDBRANCH   1  24
TORSDOF 5
ENDMDL
MODEL 2
REMARK VINA RESULT:      -9.7      2.567      9.233
REMARK  5 active torsions:
REMARK  status: ('A' for Active; 'I' for Inactive)
REMARK    1  A    between atoms: C_2  and  C_3 
REMARK    2  A    between atoms: C_7  and  N_8 
REMARK    3  A    between atoms: C_13  and  N_14 
REMARK       I    between atoms: N_14  and  C_15 
REMARK    4  A    between atoms: C_15  and  C_16 
REMARK       I    between atoms: C_16  and  N_17 
REMARK    5  A    between atoms: N_17  and  C_18 
ROOT
HETATM    1  N   UNL     1      22.767  46.554  48.265  1.00  0.00    -0.045 N 
HETATM    2  N   UNL     1      22.594  46.013  47.018  1.00  0.00    -0.156 NA
HETATM    3  C   UNL     1      22.877  44.714  47.179  1.00  0.00     0.055 C 
HETATM    4  C   UNL     1      22.746  43.763  46.046  1.00  0.00     0.072 C 
HETATM    5  C   UNL     1      23.307  44.423  48.494  1.00  0.00     0.079 C 
HETATM    6  C   UNL     1      23.345  45.640  49.132  1.00  0.00     0.152 C 
ENDROOT
BRANCH   6   7
HETATM    7  N   UNL     1      23.860  45.814  50.402  1.00  0.00    -0.303 N 
HETATM    8  C   UNL     1      25.057  46.577  50.631  1.00  0.00     0.315 C 
HETATM    9  O   UNL     1      25.729  47.039  49.727  1.00  0.00    -0.262 OA
HETATM   10  H   UNL     1      23.509  45.270  51.186  1.00  0.00     0.171 HD
BRANCH   8  11
HETATM   11  C   UNL     1      25.545  46.467  52.085  1.00  0.00     0.310 C 
HETATM   12  N   UNL     1      26.217  45.299  52.400  1.00  0.00    -0.348 N 
HETATM   13  H   UNL     1      26.414  44.644  51.646  1.00  0.00     0.163 HD
HETATM   14  O   UNL     1      25.152  47.311  52.882  1.00  0.00    -0.262 OA
BRANCH  12  15
HETATM   15  C   UNL     1      26.256  44.825  53.777  1.00  0.00     0.085 C 
HETATM   16  C   UNL     1      26.728  43.361  53.869  1.00  0.00     0.034 C 
HETATM   17  C   UNL     1      28.246  43.142  53.671  1.00  0.00    -0.045 C 
HETATM   18  C   UNL     1      28.687  43.369  52.211  1.00  0.00     0.015 C 
HETATM   19  C   UNL     1      28.571  41.674  54.015  1.00  0.00     0.015 C 
HETATM   20  C   UNL     1      29.022  44.070  54.628  1.00  0.00     0.013 C 
HETATM   21  C   UNL     1      28.613  45.549  54.516  1.00  0.00    -0.016 C 
HETATM   22  C   UNL     1      29.364  46.375  55.565  1.00  0.00     0.010 C 
HETATM   23  C   UNL     1      27.096  45.734  54.682  1.00  0.00     0.029 C 
ENDBRANCH  12  15
ENDBRANCH   8  11
ENDBRANCH   6   7
BRANCH   1  24
HETATM   24  C   UNL     1      22.212  47.810  48.563  1.00  0.00     0.732 A 
HETATM   25  N   UNL     1      20.933  47.701  49.019  1.00  0.00    -0.152 N 
HETATM   26  C   UNL     1      20.229  48.791  49.421  1.00  0.00     0.268 A 
HETATM   27  H   UNL     1      20.501  46.787  49.108  1.00  0.00     0.188 HD
HETATM   28  C   UNL     1      20.948  50.093  49.316  1.00  0.00     0.035 A 
HETATM   29  O   UNL     1      19.087  48.699  49.852  1.00  0.00    -0.267 OA
HETATM   30  C   UNL     1      22.214  50.070  48.846  1.00  0.00     0.061 A 
HETATM   31  N   UNL     1      22.870  48.918  48.460  1.00  0.00    -0.067 NA
HETATM   32  C   UNL     1      23.076  51.303  48.734  1.00  0.00     0.072 C 
BRANCH  28  33
HETATM   33  C   UNL     1      20.163  51.310  49.734  1.00  0.00     0.042 C 
HETATM   34  C   UNL     1      19.530  52.015  48.544  1.00  0.00     0.010 C 
ENDBRANCH  28  33
ENDBRANCH   1  24
TORSDOF 5
ENDMDL
MODEL 3
REMARK VINA RESULT:      -9.5      3.053      5.398
REMARK  5 active torsions:
REMARK  status: ('A' for Active; 'I' for Inactive)
REMARK    1  A    between atoms: C_2  and  C_3 
REMARK    2  A    between atoms: C_7  and  N_8 
REMARK    3  A    between atoms: C_13  and  N_14 
REMARK       I    between atoms: N_14  and  C_15 
REMARK    4  A    between atoms: C_15  and  C_16 
REMARK       I    between atoms: C_16  and  N_17 
REMARK    5  A    between atoms: N_17  and  C_18 
ROOT
HETATM    1  N   UNL     1      27.108  43.516  52.174  1.00  0.00    -0.045 N 
HETATM    2  N   UNL     1      27.226  42.151  52.117  1.00  0.00    -0.156 NA
HETATM    3  C   UNL     1      26.957  41.849  50.840  1.00  0.00     0.055 C 
HETATM    4  C   UNL     1      27.040  40.446  50.359  1.00  0.00     0.072 C 
HETATM    5  C   UNL     1      26.589  42.990  50.090  1.00  0.00     0.079 C 
HETATM    6  C   UNL     1      26.575  44.021  50.998  1.00  0.00     0.152 C 
ENDROOT
BRANCH   6   7
HETATM    7  N   UNL     1      26.118  45.290  50.696  1.00  0.00    -0.303 N 
HETATM    8  C   UNL     1      24.748  45.669  50.916  1.00  0.00     0.315 C 
HETATM    9  O   UNL     1      23.899  44.883  51.294  1.00  0.00    -0.262 OA
HETATM   10  H   UNL     1      26.689  45.935  50.156  1.00  0.00     0.171 HD
BRANCH   8  11
HETATM   11  C   UNL     1      24.428  47.052  50.325  1.00  0.00     0.310 C 
HETATM   12  N   UNL     1      23.231  47.142  49.636  1.00  0.00    -0.348 N 
HETATM   13  H   UNL     1      22.618  46.330  49.637  1.00  0.00     0.163 HD
HETATM   14  O   UNL     1      25.315  47.897  50.346  1.00  0.00    -0.262 OA
BRANCH  12  15
HETATM   15  C   UNL     1      23.052  48.162  48.611  1.00  0.00     0.085 C 
HETATM   16  C   UNL     1      22.148  47.672  47.464  1.00  0.00     0.034 C 
HETATM   17  C   UNL     1      20.636  47.624  47.788  1.00  0.00    -0.045 C 
HETATM   18  C   UNL     1      20.283  46.493  48.774  1.00  0.00     0.015 C 
HETATM   19  C   UNL     1      19.871  47.335  46.480  1.00  0.00     0.015 C 
HETATM   20  C   UNL     1      20.192  48.993  48.342  1.00  0.00     0.013 C 
HETATM   21  C   UNL     1      21.041  49.480  49.529  1.00  0.00    -0.016 C 
HETATM   22  C   UNL     1      20.588  50.883  49.948  1.00  0.00     0.010 C 
HETATM   23  C   UNL     1      22.540  49.487  49.191  1.00  0.00     0.029 C 
ENDBRANCH  12  15
ENDBRANCH   8  11
ENDBRANCH   6   7
BRANCH   1  24
HETATM   24  C   UNL     1      27.670  44.219  53.252  1.00  0.00     0.732 A 
HETATM   25  N   UNL     1      28.697  43.530  53.824  1.00  0.00    -0.152 N 
HETATM   26  C   UNL     1      29.419  44.054  54.847  1.00  0.00     0.268 A 
HETATM   27  H   UNL     1      28.966  42.622  53.457  1.00  0.00     0.188 HD
HETATM   28  C   UNL     1      29.003  45.415  55.294  1.00  0.00     0.035 A 
HETATM   29  O   UNL     1      30.356  43.450  55.352  1.00  0.00    -0.267 OA
HETATM   30  C   UNL     1      27.968  45.994  54.648  1.00  0.00     0.061 A 
HETATM   31  N   UNL     1      27.281  45.400  53.608  1.00  0.00    -0.067 NA
HETATM   32  C   UNL     1      27.473  47.384  54.961  1.00  0.00     0.072 C 
BRANCH  28  33
HETATM   33  C   UNL     1      29.782  45.992  56.448  1.00  0.00     0.042 C 
HETATM   34  C   UNL     1      28.978  45.983  57.739  1.00  0.00     0.010 C 
ENDBRANCH  28  33
ENDBRANCH   1  24
TORSDOF 5
ENDMDL
MODEL 4
REMARK VINA RESULT:      -9.2      2.625      9.242
REMARK  5 active torsions:
REMARK  status: ('A' for Active; 'I' for Inactive)
REMARK    1  A    between atoms: C_2  and  C_3 
REMARK    2  A    between atoms: C_7  and  N_8 
REMARK    3  A    between atoms: C_13  and  N_14 
REMARK       I    between atoms: N_14  and  C_15 
REMARK    4  A    between atoms: C_15  and  C_16 
REMARK       I    between atoms: C_16  and  N_17 
REMARK    5  A    between atoms: N_17  and  C_18 
ROOT
HETATM    1  N   UNL     1      24.391  47.755  49.491  1.00  0.00    -0.045 N 
HETATM    2  N   UNL     1      24.842  48.883  48.855  1.00  0.00    -0.156 NA
HETATM    3  C   UNL     1      26.156  48.902  49.110  1.00  0.00     0.055 C 
HETATM    4  C   UNL     1      27.025  49.960  48.534  1.00  0.00     0.072 C 
HETATM    5  C   UNL     1      26.547  47.848  49.967  1.00  0.00     0.079 C 
HETATM    6  C   UNL     1      25.378  47.204  50.293  1.00  0.00     0.152 C 
ENDROOT
BRANCH   6   7
HETATM    7  N   UNL     1      25.305  46.198  51.238  1.00  0.00    -0.303 N 
HETATM    8  C   UNL     1      25.339  46.484  52.647  1.00  0.00     0.315 C 
HETATM    9  O   UNL     1      25.518  47.604  53.089  1.00  0.00    -0.262 OA
HETATM   10  H   UNL     1      25.397  45.223  50.968  1.00  0.00     0.171 HD
BRANCH   8  11
HETATM   11  C   UNL     1      25.445  45.205  53.495  1.00  0.00     0.310 C 
HETATM   12  N   UNL     1      26.718  44.887  53.935  1.00  0.00    -0.348 N 
HETATM   13  H   UNL     1      27.467  45.548  53.745  1.00  0.00     0.163 HD
HETATM   14  O   UNL     1      24.457  44.484  53.558  1.00  0.00    -0.262 OA
BRANCH  12  15
HETATM   15  C   UNL     1      27.057  43.507  54.258  1.00  0.00     0.085 C 
HETATM   16  C   UNL     1      27.029  42.601  53.013  1.00  0.00     0.034 C 
HETATM   17  C   UNL     1      28.237  42.754  52.058  1.00  0.00    -0.045 C 
HETATM   18  C   UNL     1      28.214  44.092  51.292  1.00  0.00     0.015 C 
HETATM   19  C   UNL     1      28.162  41.631  51.002  1.00  0.00     0.015 C 
HETATM   20  C   UNL     1      29.544  42.605  52.864  1.00  0.00     0.013 C 
HETATM   21  C   UNL     1      29.624  43.542  54.081  1.00  0.00    -0.016 C 
HETATM   22  C   UNL     1      30.906  43.257  54.869  1.00  0.00     0.010 C 
HETATM   23  C   UNL     1      28.397  43.395  54.995  1.00  0.00     0.029 C 
ENDBRANCH  12  15
ENDBRANCH   8  11
ENDBRANCH   6   7
BRANCH   1  24
HETATM   24  C   UNL     1      23.142  47.213  49.145  1.00  0.00     0.732 A 
HETATM   25  N   UNL     1      22.132  48.106  49.341  1.00  0.00    -0.152 N 
HETATM   26  C   UNL     1      20.848  47.807  49.015  1.00  0.00     0.268 A 
HETATM   27  H   UNL     1      22.337  49.035  49.696  1.00  0.00     0.188 HD
HETATM   28  C   UNL     1      20.632  46.445  48.445  1.00  0.00     0.035 A 
HETATM   29  O   UNL     1      19.939  48.612  49.168  1.00  0.00    -0.267 OA
HETATM   30  C   UNL     1      21.715  45.651  48.302  1.00  0.00     0.061 A 
HETATM   31  N   UNL     1      22.997  46.026  48.653  1.00  0.00    -0.067 NA
HETATM   32  C   UNL     1      21.652  44.271  47.696  1.00  0.00     0.072 C 
BRANCH  28  33
HETATM   33  C   UNL     1      19.206  46.096  48.107  1.00  0.00     0.042 C 
HETATM   34  C   UNL     1      18.862  46.442  46.666  1.00  0.00     0.010 C 
ENDBRANCH  28  33
ENDBRANCH   1  24
TORSDOF 5
ENDMDL
MODEL 5
REMARK VINA RESULT:      -9.1      3.748      8.884
REMARK  5 active torsions:
REMARK  status: ('A' for Active; 'I' for Inactive)
REMARK    1  A    between atoms: C_2  and  C_3 
REMARK    2  A    between atoms: C_7  and  N_8 
REMARK    3  A    between atoms: C_13  and  N_14 
REMARK       I    between atoms: N_14  and  C_15 
REMARK    4  A    between atoms: C_15  and  C_16 
REMARK       I    between atoms: C_16  and  N_17 
REMARK    5  A    between atoms: N_17  and  C_18 
ROOT
HETATM    1  N   UNL     1      23.216  46.972  49.063  1.00  0.00    -0.045 N 
HETATM    2  N   UNL     1      22.624  47.709  48.070  1.00  0.00    -0.156 NA
HETATM    3  C   UNL     1      23.101  48.947  48.248  1.00  0.00     0.055 C 
HETATM    4  C   UNL     1      22.732  50.043  47.316  1.00  0.00     0.072 C 
HETATM    5  C   UNL     1      23.932  49.038  49.388  1.00  0.00     0.079 C 
HETATM    6  C   UNL     1      23.887  47.790  49.960  1.00  0.00     0.152 C 
ENDROOT
BRANCH   6   7
HETATM    7  N   UNL     1      24.452  47.498  51.187  1.00  0.00    -0.303 N 
HETATM    8  C   UNL     1      25.824  47.082  51.305  1.00  0.00     0.315 C 
HETATM    9  O   UNL     1      26.538  46.881  50.339  1.00  0.00    -0.262 OA
HETATM   10  H   UNL     1      23.874  47.403  52.017  1.00  0.00     0.171 HD
BRANCH   8  11
HETATM   11  C   UNL     1      26.170  46.624  52.731  1.00  0.00     0.310 C 
HETATM   12  N   UNL     1      26.844  45.419  52.822  1.00  0.00    -0.348 N 
HETATM   13  H   UNL     1      27.133  44.968  51.957  1.00  0.00     0.163 HD
HETATM   14  O   UNL     1      25.674  47.247  53.663  1.00  0.00    -0.262 OA
BRANCH  12  15
HETATM   15  C   UNL     1      26.762  44.624  54.040  1.00  0.00     0.085 C 
HETATM   16  C   UNL     1      26.966  43.123  53.763  1.00  0.00     0.034 C 
HETATM   17  C   UNL     1      28.428  42.694  53.492  1.00  0.00    -0.045 C 
HETATM   18  C   UNL     1      28.940  43.189  52.125  1.00  0.00     0.015 C 
HETATM   19  C   UNL     1      28.481  41.152  53.460  1.00  0.00     0.015 C 
HETATM   20  C   UNL     1      29.328  43.209  54.633  1.00  0.00     0.013 C 
HETATM   21  C   UNL     1      29.188  44.719  54.894  1.00  0.00    -0.016 C 
HETATM   22  C   UNL     1      30.044  45.117  56.100  1.00  0.00     0.010 C 
HETATM   23  C   UNL     1      27.723  45.122  55.126  1.00  0.00     0.029 C 
ENDBRANCH  12  15
ENDBRANCH   8  11
ENDBRANCH   6   7
BRANCH   1  24
HETATM   24  C   UNL     1      23.241  45.571  48.971  1.00  0.00     0.732 A 
HETATM   25  N   UNL     1      22.754  45.135  47.775  1.00  0.00    -0.152 N 
HETATM   26  C   UNL     1      22.742  43.816  47.454  1.00  0.00     0.268 A 
HETATM   27  H   UNL     1      22.432  45.805  47.084  1.00  0.00     0.188 HD
HETATM   28  C   UNL     1      23.284  42.897  48.496  1.00  0.00     0.035 A 
HETATM   29  O   UNL     1      22.326  43.418  46.374  1.00  0.00    -0.267 OA
HETATM   30  C   UNL     1      23.736  43.452  49.642  1.00  0.00     0.061 A 
HETATM   31  N   UNL     1      23.722  44.808  49.898  1.00  0.00    -0.067 NA
HETATM   32  C   UNL     1      24.355  42.649  50.759  1.00  0.00     0.072 C 
BRANCH  28  33
HETATM   33  C   UNL     1      23.248  41.429  48.158  1.00  0.00     0.042 C 
HETATM   34  C   UNL     1      24.564  40.950  47.563  1.00  0.00     0.010 C 
ENDBRANCH  28  33
ENDBRANCH   1  24
TORSDOF 5
ENDMDL
MODEL 6
REMARK VINA RESULT:      -8.7      2.895      5.048
REMARK  5 active torsions:
REMARK  status: ('A' for Active; 'I' for Inactive)
REMARK    1  A    between atoms: C_2  and  C_3 
REMARK    2  A    between atoms: C_7  and  N_8 
REMARK    3  A    between atoms: C_13  and  N_14 
REMARK       I    between atoms: N_14  and  C_15 
REMARK    4  A    between atoms: C_15  and  C_16 
REMARK       I    between atoms: C_16  and  N_17 
REMARK    5  A    between atoms: N_17  and  C_18 
ROOT
HETATM    1  N   UNL     1      25.248  45.544  50.560  1.00  0.00    -0.045 N 
HETATM    2  N   UNL     1      26.006  45.053  51.591  1.00  0.00    -0.156 NA
HETATM    3  C   UNL     1      25.996  46.031  52.504  1.00  0.00     0.055 C 
HETATM    4  C   UNL     1      26.673  45.853  53.814  1.00  0.00     0.072 C 
HETATM    5  C   UNL     1      25.308  47.179  52.047  1.00  0.00     0.079 C 
HETATM    6  C   UNL     1      24.947  46.883  50.754  1.00  0.00     0.152 C 
ENDROOT
BRANCH   6   7
HETATM    7  N   UNL     1      24.380  47.807  49.897  1.00  0.00    -0.303 N 
HETATM    8  C   UNL     1      25.188  48.650  49.057  1.00  0.00     0.315 C 
HETATM    9  O   UNL     1      26.404  48.664  49.111  1.00  0.00    -0.262 OA
HETATM   10  H   UNL     1      23.392  48.035  49.956  1.00  0.00     0.171 HD
BRANCH   8  11
HETATM   11  C   UNL     1      24.353  49.725  48.342  1.00  0.00     0.310 C 
HETATM   12  N   UNL     1      23.037  49.831  48.759  1.00  0.00    -0.348 N 
HETATM   13  H   UNL     1      22.740  49.264  49.549  1.00  0.00     0.163 HD
HETATM   14  O   UNL     1      24.845  50.264  47.357  1.00  0.00    -0.262 OA
BRANCH  12  15
HETATM   15  C   UNL     1      22.028  50.381  47.863  1.00  0.00     0.085 C 
HETATM   16  C   UNL     1      21.254  49.274  47.121  1.00  0.00     0.034 C 
HETATM   17  C   UNL     1      20.201  48.522  47.969  1.00  0.00    -0.045 C 
HETATM   18  C   UNL     1      20.846  47.599  49.021  1.00  0.00     0.015 C 
HETATM   19  C   UNL     1      19.376  47.622  47.026  1.00  0.00     0.015 C 
HETATM   20  C   UNL     1      19.263  49.546  48.640  1.00  0.00     0.013 C 
HETATM   21  C   UNL     1      20.008  50.631  49.438  1.00  0.00    -0.016 C 
HETATM   22  C   UNL     1      19.005  51.651  49.985  1.00  0.00     0.010 C 
HETATM   23  C   UNL     1      21.071  51.339  48.583  1.00  0.00     0.029 C 
ENDBRANCH  12  15
ENDBRANCH   8  11
ENDBRANCH   6   7
BRANCH   1  24
HETATM   24  C   UNL     1      24.736  44.665  49.591  1.00  0.00     0.732 A 
HETATM   25  N   UNL     1      25.437  43.498  49.548  1.00  0.00    -0.152 N 
HETATM   26  C   UNL     1      25.073  42.483  48.722  1.00  0.00     0.268 A 
HETATM   27  H   UNL     1      26.222  43.353  50.175  1.00  0.00     0.188 HD
HETATM   28  C   UNL     1      23.876  42.746  47.872  1.00  0.00     0.035 A 
HETATM   29  O   UNL     1      25.685  41.423  48.693  1.00  0.00    -0.267 OA
HETATM   30  C   UNL     1      23.268  43.945  48.005  1.00  0.00     0.061 A 
HETATM   31  N   UNL     1      23.693  44.930  48.874  1.00  0.00    -0.067 NA
HETATM   32  C   UNL     1      22.021  44.327  47.247  1.00  0.00     0.072 C 
BRANCH  28  33
HETATM   33  C   UNL     1      23.483  41.636  46.932  1.00  0.00     0.042 C 
HETATM   34  C   UNL     1      22.495  40.672  47.571  1.00  0.00     0.010 C 
ENDBRANCH  28  33
ENDBRANCH   1  24
TORSDOF 5
ENDMDL
MODEL 7
REMARK VINA RESULT:      -8.7      2.734      5.278
REMARK  5 active torsions:
REMARK  status: ('A' for Active; 'I' for Inactive)
REMARK    1  A    between atoms: C_2  and  C_3 
REMARK    2  A    between atoms: C_7  and  N_8 
REMARK    3  A    between atoms: C_13  and  N_14 
REMARK       I    between atoms: N_14  and  C_15 
REMARK    4  A    between atoms: C_15  and  C_16 
REMARK       I    between atoms: C_16  and  N_17 
REMARK    5  A    between atoms: N_17  and  C_18 
ROOT
HETATM    1  N   UNL     1      26.524  45.305  52.625  1.00  0.00    -0.045 N 
HETATM    2  N   UNL     1      27.475  45.300  53.612  1.00  0.00    -0.156 NA
HETATM    3  C   UNL     1      27.192  46.381  54.349  1.00  0.00     0.055 C 
HETATM    4  C   UNL     1      27.980  46.694  55.569  1.00  0.00     0.072 C 
HETATM    5  C   UNL     1      26.121  47.128  53.808  1.00  0.00     0.079 C 
HETATM    6  C   UNL     1      25.795  46.484  52.639  1.00  0.00     0.152 C 
ENDROOT
BRANCH   6   7
HETATM    7  N   UNL     1      24.886  46.985  51.727  1.00  0.00    -0.303 N 
HETATM    8  C   UNL     1      25.294  47.413  50.415  1.00  0.00     0.315 C 
HETATM    9  O   UNL     1      26.458  47.442  50.063  1.00  0.00    -0.262 OA
HETATM   10  H   UNL     1      23.940  47.223  52.010  1.00  0.00     0.171 HD
BRANCH   8  11
HETATM   11  C   UNL     1      24.155  48.112  49.654  1.00  0.00     0.310 C 
HETATM   12  N   UNL     1      23.112  47.291  49.259  1.00  0.00    -0.348 N 
HETATM   13  H   UNL     1      23.127  46.321  49.564  1.00  0.00     0.163 HD
HETATM   14  O   UNL     1      24.336  49.271  49.300  1.00  0.00    -0.262 OA
BRANCH  12  15
HETATM   15  C   UNL     1      22.278  47.663  48.124  1.00  0.00     0.085 C 
HETATM   16  C   UNL     1      21.905  46.443  47.261  1.00  0.00     0.034 C 
HETATM   17  C   UNL     1      20.815  45.521  47.856  1.00  0.00    -0.045 C 
HETATM   18  C   UNL     1      21.324  44.718  49.069  1.00  0.00     0.015 C 
HETATM   19  C   UNL     1      20.408  44.496  46.777  1.00  0.00     0.015 C 
HETATM   20  C   UNL     1      19.585  46.370  48.238  1.00  0.00     0.013 C 
HETATM   21  C   UNL     1      19.920  47.563  49.150  1.00  0.00    -0.016 C 
HETATM   22  C   UNL     1      18.659  48.396  49.396  1.00  0.00     0.010 C 
HETATM   23  C   UNL     1      21.028  48.443  48.550  1.00  0.00     0.029 C 
ENDBRANCH  12  15
ENDBRANCH   8  11
ENDBRANCH   6   7
BRANCH   1  24
HETATM   24  C   UNL     1      26.279  44.135  51.887  1.00  0.00     0.732 A 
HETATM   25  N   UNL     1      27.359  43.304  51.886  1.00  0.00    -0.152 N 
HETATM   26  C   UNL     1      27.317  42.089  51.280  1.00  0.00     0.268 A 
HETATM   27  H   UNL     1      28.203  43.567  52.385  1.00  0.00     0.188 HD
HETATM   28  C   UNL     1      26.025  41.746  50.618  1.00  0.00     0.035 A 
HETATM   29  O   UNL     1      28.275  41.327  51.294  1.00  0.00    -0.267 OA
HETATM   30  C   UNL     1      25.029  42.657  50.687  1.00  0.00     0.061 A 
HETATM   31  N   UNL     1      25.143  43.874  51.328  1.00  0.00    -0.067 NA
HETATM   32  C   UNL     1      23.657  42.424  50.106  1.00  0.00     0.072 C 
BRANCH  28  33
HETATM   33  C   UNL     1      25.981  40.412  49.920  1.00  0.00     0.042 C 
HETATM   34  C   UNL     1      26.329  40.531  48.444  1.00  0.00     0.010 C 
ENDBRANCH  28  33
ENDBRANCH   1  24
TORSDOF 5
ENDMDL
MODEL 8
REMARK VINA RESULT:      -8.5      3.138      8.941
REMARK  5 active torsions:
REMARK  status: ('A' for Active; 'I' for Inactive)
REMARK    1  A    between atoms: C_2  and  C_3 
REMARK    2  A    between atoms: C_7  and  N_8 
REMARK    3  A    between atoms: C_13  and  N_14 
REMARK       I    between atoms: N_14  and  C_15 
REMARK    4  A    between atoms: C_15  and  C_16 
REMARK       I    between atoms: C_16  and  N_17 
REMARK    5  A    between atoms: N_17  and  C_18 
ROOT
HETATM    1  N   UNL     1      22.317  44.672  47.167  1.00  0.00    -0.045 N 
HETATM    2  N   UNL     1      21.259  44.305  46.376  1.00  0.00    -0.156 NA
HETATM    3  C   UNL     1      21.311  42.967  46.355  1.00  0.00     0.055 C 
HETATM    4  C   UNL     1      20.277  42.179  45.636  1.00  0.00     0.072 C 
HETATM    5  C   UNL     1      22.432  42.467  47.056  1.00  0.00     0.079 C 
HETATM    6  C   UNL     1      23.124  43.583  47.459  1.00  0.00     0.152 C 
ENDROOT
BRANCH   6   7
HETATM    7  N   UNL     1      24.371  43.528  48.052  1.00  0.00    -0.303 N 
HETATM    8  C   UNL     1      24.541  43.081  49.409  1.00  0.00     0.315 C 
HETATM    9  O   UNL     1      23.603  42.811  50.136  1.00  0.00    -0.262 OA
HETATM   10  H   UNL     1      25.178  43.959  47.610  1.00  0.00     0.171 HD
BRANCH   8  11
HETATM   11  C   UNL     1      25.978  43.293  49.913  1.00  0.00     0.310 C 
HETATM   12  N   UNL     1      26.089  43.810  51.192  1.00  0.00    -0.348 N 
HETATM   13  H   UNL     1      25.236  43.934  51.732  1.00  0.00     0.163 HD
HETATM   14  O   UNL     1      26.888  43.169  49.102  1.00  0.00    -0.262 OA
BRANCH  12  15
HETATM   15  C   UNL     1      27.287  44.541  51.584  1.00  0.00     0.085 C 
HETATM   16  C   UNL     1      26.957  45.743  52.490  1.00  0.00     0.034 C 
HETATM   17  C   UNL     1      26.602  45.389  53.953  1.00  0.00    -0.045 C 
HETATM   18  C   UNL     1      25.227  44.705  54.075  1.00  0.00     0.015 C 
HETATM   19  C   UNL     1      26.525  46.701  54.761  1.00  0.00     0.015 C 
HETATM   20  C   UNL     1      27.713  44.496  54.544  1.00  0.00     0.013 C 
HETATM   21  C   UNL     1      28.022  43.255  53.688  1.00  0.00    -0.016 C 
HETATM   22  C   UNL     1      29.196  42.484  54.301  1.00  0.00     0.010 C 
HETATM   23  C   UNL     1      28.338  43.631  52.232  1.00  0.00     0.029 C 
ENDBRANCH  12  15
ENDBRANCH   8  11
ENDBRANCH   6   7
BRANCH   1  24
HETATM   24  C   UNL     1      22.364  45.965  47.712  1.00  0.00     0.732 A 
HETATM   25  N   UNL     1      21.332  46.737  47.268  1.00  0.00    -0.152 N 
HETATM   26  C   UNL     1      21.154  48.007  47.717  1.00  0.00     0.268 A 
HETATM   27  H   UNL     1      20.650  46.352  46.623  1.00  0.00     0.188 HD
HETATM   28  C   UNL     1      22.162  48.485  48.707  1.00  0.00     0.035 A 
HETATM   29  O   UNL     1      20.217  48.699  47.339  1.00  0.00    -0.267 OA
HETATM   30  C   UNL     1      23.139  47.625  49.066  1.00  0.00     0.061 A 
HETATM   31  N   UNL     1      23.255  46.341  48.570  1.00  0.00    -0.067 NA
HETATM   32  C   UNL     1      24.194  47.956  50.091  1.00  0.00     0.072 C 
BRANCH  28  33
HETATM   33  C   UNL     1      21.986  49.902  49.187  1.00  0.00     0.042 C 
HETATM   34  C   UNL     1      22.796  50.888  48.359  1.00  0.00     0.010 C 
ENDBRANCH  28  33
ENDBRANCH   1  24
TORSDOF 5
ENDMDL
MODEL 9
REMARK VINA RESULT:      -8.5      3.376      6.793
REMARK  5 active torsions:
REMARK  status: ('A' for Active; 'I' for Inactive)
REMARK    1  A    between atoms: C_2  and  C_3 
REMARK    2  A    between atoms: C_7  and  N_8 
REMARK    3  A    between atoms: C_13  and  N_14 
REMARK       I    between atoms: N_14  and  C_15 
REMARK    4  A    between atoms: C_15  and  C_16 
REMARK       I    between atoms: C_16  and  N_17 
REMARK    5  A    between atoms: N_17  and  C_18 
ROOT
HETATM    1  N   UNL     1      25.579  45.975  50.940  1.00  0.00    -0.045 N 
HETATM    2  N   UNL     1      26.136  46.206  52.172  1.00  0.00    -0.156 NA
HETATM    3  C   UNL     1      26.718  45.044  52.494  1.00  0.00     0.055 C 
HETATM    4  C   UNL     1      27.490  44.907  53.756  1.00  0.00     0.072 C 
HETATM    5  C   UNL     1      26.478  44.042  51.526  1.00  0.00     0.079 C 
HETATM    6  C   UNL     1      25.645  44.631  50.606  1.00  0.00     0.152 C 
ENDROOT
BRANCH   6   7
HETATM    7  N   UNL     1      25.052  43.937  49.568  1.00  0.00    -0.303 N 
HETATM    8  C   UNL     1      23.690  43.483  49.648  1.00  0.00     0.315 C 
HETATM    9  O   UNL     1      23.012  43.602  50.653  1.00  0.00    -0.262 OA
HETATM   10  H   UNL     1      25.606  43.582  48.794  1.00  0.00     0.171 HD
BRANCH   8  11
HETATM   11  C   UNL     1      23.314  42.570  48.469  1.00  0.00     0.310 C 
HETATM   12  N   UNL     1      23.670  43.040  47.217  1.00  0.00    -0.348 N 
HETATM   13  H   UNL     1      24.218  43.895  47.166  1.00  0.00     0.163 HD
HETATM   14  O   UNL     1      22.582  41.615  48.701  1.00  0.00    -0.262 OA
BRANCH  12  15
HETATM   15  C   UNL     1      22.945  42.594  46.034  1.00  0.00     0.085 C 
HETATM   16  C   UNL     1      21.534  43.210  45.958  1.00  0.00     0.034 C 
HETATM   17  C   UNL     1      21.484  44.693  45.523  1.00  0.00    -0.045 C 
HETATM   18  C   UNL     1      22.023  45.643  46.611  1.00  0.00     0.015 C 
HETATM   19  C   UNL     1      20.008  45.076  45.284  1.00  0.00     0.015 C 
HETATM   20  C   UNL     1      22.271  44.864  44.208  1.00  0.00     0.013 C 
HETATM   21  C   UNL     1      23.705  44.310  44.273  1.00  0.00    -0.016 C 
HETATM   22  C   UNL     1      24.372  44.437  42.900  1.00  0.00     0.010 C 
HETATM   23  C   UNL     1      23.729  42.846  44.741  1.00  0.00     0.029 C 
ENDBRANCH  12  15
ENDBRANCH   8  11
ENDBRANCH   6   7
BRANCH   1  24
HETATM   24  C   UNL     1      25.205  47.059  50.130  1.00  0.00     0.732 A 
HETATM   25  N   UNL     1      23.854  47.121  49.963  1.00  0.00    -0.152 N 
HETATM   26  C   UNL     1      23.272  48.128  49.262  1.00  0.00     0.268 A 
HETATM   27  H   UNL     1      23.255  46.431  50.405  1.00  0.00     0.188 HD
HETATM   28  C   UNL     1      24.210  49.138  48.691  1.00  0.00     0.035 A 
HETATM   29  O   UNL     1      22.058  48.203  49.125  1.00  0.00    -0.267 OA
HETATM   30  C   UNL     1      25.529  48.965  48.926  1.00  0.00     0.061 A 
HETATM   31  N   UNL     1      26.050  47.914  49.655  1.00  0.00    -0.067 NA
HETATM   32  C   UNL     1      26.585  49.932  48.452  1.00  0.00     0.072 C 
BRANCH  28  33
HETATM   33  C   UNL     1      23.574  50.243  47.889  1.00  0.00     0.042 C 
HETATM   34  C   UNL     1      22.959  51.312  48.780  1.00  0.00     0.010 C 
ENDBRANCH  28  33
ENDBRANCH   1  24
TORSDOF 5
ENDMDL
MODEL 10
REMARK VINA RESULT:      -8.5      4.393      8.822
REMARK  5 active torsions:
REMARK  status: ('A' for Active; 'I' for Inactive)
REMARK    1  A    between atoms: C_2  and  C_3 
REMARK    2  A    between atoms: C_7  and  N_8 
REMARK    3  A    between atoms: C_13  and  N_14 
REMARK       I    between atoms: N_14  and  C_15 
REMARK    4  A    between atoms: C_15  and  C_16 
REMARK       I    between atoms: C_16  and  N_17 
REMARK    5  A    between atoms: N_17  and  C_18 
ROOT
HETATM    1  N   UNL     1      25.254  46.671  50.927  1.00  0.00    -0.045 N 
HETATM    2  N   UNL     1      25.188  47.924  50.375  1.00  0.00    -0.156 NA
HETATM    3  C   UNL     1      24.242  47.821  49.433  1.00  0.00     0.055 C 
HETATM    4  C   UNL     1      23.832  49.006  48.637  1.00  0.00     0.072 C 
HETATM    5  C   UNL     1      23.752  46.500  49.314  1.00  0.00     0.079 C 
HETATM    6  C   UNL     1      24.505  45.762  50.196  1.00  0.00     0.152 C 
ENDROOT
BRANCH   6   7
HETATM    7  N   UNL     1      24.440  44.384  50.278  1.00  0.00    -0.303 N 
HETATM    8  C   UNL     1      25.508  43.551  49.794  1.00  0.00     0.315 C 
HETATM    9  O   UNL     1      26.481  43.995  49.213  1.00  0.00    -0.262 OA
HETATM   10  H   UNL     1      23.572  43.917  50.524  1.00  0.00     0.171 HD
BRANCH   8  11
HETATM   11  C   UNL     1      25.131  42.060  49.809  1.00  0.00     0.310 C 
HETATM   12  N   UNL     1      26.197  41.177  49.817  1.00  0.00    -0.348 N 
HETATM   13  H   UNL     1      27.135  41.563  49.896  1.00  0.00     0.163 HD
HETATM   14  O   UNL     1      23.954  41.771  49.629  1.00  0.00    -0.262 OA
BRANCH  12  15
HETATM   15  C   UNL     1      26.029  39.823  49.305  1.00  0.00     0.085 C 
HETATM   16  C   UNL     1      26.104  39.776  47.767  1.00  0.00     0.034 C 
HETATM   17  C   UNL     1      27.525  39.907  47.170  1.00  0.00    -0.045 C 
HETATM   18  C   UNL     1      28.096  41.330  47.322  1.00  0.00     0.015 C 
HETATM   19  C   UNL     1      27.441  39.615  45.657  1.00  0.00     0.015 C 
HETATM   20  C   UNL     1      28.453  38.870  47.835  1.00  0.00     0.013 C 
HETATM   21  C   UNL     1      28.444  38.934  49.373  1.00  0.00    -0.016 C 
HETATM   22  C   UNL     1      29.316  37.811  49.942  1.00  0.00     0.010 C 
HETATM   23  C   UNL     1      27.017  38.835  49.938  1.00  0.00     0.029 C 
ENDBRANCH  12  15
ENDBRANCH   8  11
ENDBRANCH   6   7
BRANCH   1  24
HETATM   24  C   UNL     1      25.867  46.492  52.178  1.00  0.00     0.732 A 
HETATM   25  N   UNL     1      26.586  45.335  52.226  1.00  0.00    -0.152 N 
HETATM   26  C   UNL     1      27.308  44.995  53.325  1.00  0.00     0.268 A 
HETATM   27  H   UNL     1      26.628  44.728  51.414  1.00  0.00     0.188 HD
HETATM   28  C   UNL     1      27.245  45.964  54.458  1.00  0.00     0.035 A 
HETATM   29  O   UNL     1      27.973  43.969  53.369  1.00  0.00    -0.267 OA
HETATM   30  C   UNL     1      26.496  47.074  54.288  1.00  0.00     0.061 A 
HETATM   31  N   UNL     1      25.790  47.357  53.135  1.00  0.00    -0.067 NA
HETATM   32  C   UNL     1      26.382  48.160  55.328  1.00  0.00     0.072 C 
BRANCH  28  33
HETATM   33  C   UNL     1      28.021  45.579  55.691  1.00  0.00     0.042 C 
HETATM   34  C   UNL     1      29.446  46.112  55.657  1.00  0.00     0.010 C 
ENDBRANCH  28  33
ENDBRANCH   1  24
TORSDOF 5
ENDMDL
