MODEL 1
REMARK VINA RESULT:      -7.8      0.000      0.000
REMARK  9 active torsions:
REMARK  status: ('A' for Active; 'I' for Inactive)
REMARK    1  A    between atoms: C_6  and  C_7 
REMARK    2  A    between atoms: C_7  and  C_8 
REMARK       I    between atoms: C_8  and  N_9 
REMARK    3  A    between atoms: N_9  and  C_10 
REMARK    4  A    between atoms: C_10  and  C_11 
REMARK    5  A    between atoms: C_11  and  N_12 
REMARK    6  A    between atoms: C_17  and  C_18 
REMARK    7  A    between atoms: C_21  and  C_22 
REMARK    8  A    between atoms: C_29  and  C_30 
REMARK       I    between atoms: C_30  and  N_31 
REMARK    9  A    between atoms: N_31  and  C_32 
ROOT
HETATM    1  C   UNL     1      27.280  48.066  49.504  1.00  0.00     0.071 C 
HETATM    2  C   UNL     1      26.590  46.728  49.400  1.00  0.00     0.047 C 
HETATM    3  N   UNL     1      27.448  45.630  49.609  1.00  0.00    -0.229 NA
HETATM    4  C   UNL     1      26.920  44.565  50.132  1.00  0.00     0.170 C 
HETATM    5  N   UNL     1      25.341  44.421  50.348  1.00  0.00    -0.319 N 
HETATM    6  C   UNL     1      25.297  44.258  51.639  1.00  0.00     0.011 C 
HETATM    7  C   UNL     1      24.777  45.170  49.214  1.00  0.00     0.165 C 
HETATM    8  S   UNL     1      27.763  43.366  51.060  1.00  0.00    -0.086 SA
HETATM    9  C   UNL     1      26.218  43.105  52.050  1.00  0.00     0.135 C 
HETATM   10  C   UNL     1      25.243  46.578  49.287  1.00  0.00     0.062 C 
ENDROOT
BRANCH   6  11
HETATM   11  C   UNL     1      25.109  45.444  52.553  1.00  0.00     0.156 C 
BRANCH  11  12
HETATM   12  C   UNL     1      26.291  46.047  53.251  1.00  0.00     0.223 C 
HETATM   13  N   UNL     1      26.709  45.306  54.342  1.00  0.00    -0.359 N 
HETATM   14  H   UNL     1      26.677  44.287  54.209  1.00  0.00     0.162 HD
HETATM   15  O   UNL     1      26.726  47.148  52.953  1.00  0.00    -0.273 OA
BRANCH  13  16
HETATM   16  C   UNL     1      27.778  45.771  55.227  1.00  0.00     0.150 C 
BRANCH  16  17
HETATM   17  C   UNL     1      29.072  44.940  55.094  1.00  0.00     0.253 C 
BRANCH  17  18
HETATM   18  N   UNL     1      30.114  45.368  56.128  1.00  0.00    -0.077 N 
HETATM   19  H   UNL     1      30.663  46.110  55.678  1.00  0.00     0.279 HD
HETATM   20  C   UNL     1      29.529  45.949  57.387  1.00  0.00     0.269 C 
HETATM   21  C   UNL     1      31.066  44.244  56.455  1.00  0.00     0.269 C 
ENDBRANCH  17  18
ENDBRANCH  16  17
ENDBRANCH  13  16
ENDBRANCH  11  12
ENDBRANCH   6  11
BRANCH   7  22
HETATM   22  C   UNL     1      23.479  44.732  48.569  1.00  0.00    -0.030 A 
HETATM   23  C   UNL     1      23.288  44.570  47.194  1.00  0.00     0.010 A 
HETATM   24  C   UNL     1      21.984  44.511  46.666  1.00  0.00     0.008 A 
HETATM   25  C   UNL     1      20.849  44.593  47.492  1.00  0.00    -0.055 A 
HETATM   26  C   UNL     1      21.042  44.632  48.871  1.00  0.00     0.008 A 
HETATM   27  C   UNL     1      22.329  44.719  49.398  1.00  0.00     0.010 A 
BRANCH  25  28
HETATM   28  C   UNL     1      19.456  44.683  46.881  1.00  0.00     0.010 C 
HETATM   29  C   UNL     1      18.512  45.483  47.776  1.00  0.00     0.015 C 
HETATM   30  C   UNL     1      19.454  45.265  45.458  1.00  0.00     0.015 C 
ENDBRANCH  25  28
ENDBRANCH   7  22
BRANCH  10  31
HETATM   31  C   UNL     1      24.321  47.649  49.755  1.00  0.00     0.256 C 
HETATM   32  N   UNL     1      23.413  48.111  48.840  1.00  0.00    -0.323 N 
HETATM   33  H   UNL     1      23.439  47.772  47.886  1.00  0.00     0.169 HD
HETATM   34  O   UNL     1      24.323  47.887  50.964  1.00  0.00    -0.267 OA
BRANCH  32  35
HETATM   35  C   UNL     1      22.307  48.952  49.111  1.00  0.00     0.035 A 
HETATM   36  C   UNL     1      22.420  50.305  49.438  1.00  0.00     0.029 A 
HETATM   37  C   UNL     1      21.278  51.064  49.714  1.00  0.00     0.002 A 
HETATM   38  C   UNL     1      20.017  50.476  49.671  1.00  0.00     0.000 A 
HETATM   39  C   UNL     1      19.894  49.131  49.335  1.00  0.00     0.002 A 
HETATM   40  C   UNL     1      21.032  48.374  49.044  1.00  0.00     0.029 A 
ENDBRANCH  32  35
ENDBRANCH  10  31
TORSDOF 9
ENDMDL
MODEL 2
REMARK VINA RESULT:      -7.4      4.687      9.079
REMARK  9 active torsions:
REMARK  status: ('A' for Active; 'I' for Inactive)
REMARK    1  A    between atoms: C_6  and  C_7 
REMARK    2  A    between atoms: C_7  and  C_8 
REMARK       I    between atoms: C_8  and  N_9 
REMARK    3  A    between atoms: N_9  and  C_10 
REMARK    4  A    between atoms: C_10  and  C_11 
REMARK    5  A    between atoms: C_11  and  N_12 
REMARK    6  A    between atoms: C_17  and  C_18 
REMARK    7  A    between atoms: C_21  and  C_22 
REMARK    8  A    between atoms: C_29  and  C_30 
REMARK       I    between atoms: C_30  and  N_31 
REMARK    9  A    between atoms: N_31  and  C_32 
ROOT
HETATM    1  C   UNL     1      19.874  50.009  50.216  1.00  0.00     0.071 C 
HETATM    2  C   UNL     1      19.504  48.682  49.602  1.00  0.00     0.047 C 
HETATM    3  N   UNL     1      18.115  48.485  49.470  1.00  0.00    -0.229 NA
HETATM    4  C   UNL     1      17.719  47.750  48.477  1.00  0.00     0.170 C 
HETATM    5  N   UNL     1      18.749  46.938  47.560  1.00  0.00    -0.319 N 
HETATM    6  C   UNL     1      18.489  47.463  46.397  1.00  0.00     0.011 C 
HETATM    7  C   UNL     1      19.822  46.576  48.500  1.00  0.00     0.165 C 
HETATM    8  S   UNL     1      16.171  47.844  47.699  1.00  0.00    -0.086 SA
HETATM    9  C   UNL     1      16.988  47.366  46.106  1.00  0.00     0.135 C 
HETATM   10  C   UNL     1      20.407  47.819  49.064  1.00  0.00     0.062 C 
ENDROOT
BRANCH   6  11
HETATM   11  C   UNL     1      19.287  48.642  45.896  1.00  0.00     0.156 C 
BRANCH  11  12
HETATM   12  C   UNL     1      18.610  49.961  45.669  1.00  0.00     0.223 C 
HETATM   13  N   UNL     1      18.461  50.698  46.830  1.00  0.00    -0.359 N 
HETATM   14  H   UNL     1      19.261  50.654  47.474  1.00  0.00     0.162 HD
HETATM   15  O   UNL     1      18.125  50.261  44.590  1.00  0.00    -0.273 OA
BRANCH  13  16
HETATM   16  C   UNL     1      17.731  51.966  46.851  1.00  0.00     0.150 C 
BRANCH  16  17
HETATM   17  C   UNL     1      16.388  51.875  47.605  1.00  0.00     0.253 C 
BRANCH  17  18
HETATM   18  N   UNL     1      16.300  52.925  48.712  1.00  0.00    -0.077 N 
HETATM   19  H   UNL     1      16.572  53.814  48.274  1.00  0.00     0.279 HD
HETATM   20  C   UNL     1      14.915  53.112  49.272  1.00  0.00     0.269 C 
HETATM   21  C   UNL     1      17.287  52.652  49.818  1.00  0.00     0.269 C 
ENDBRANCH  17  18
ENDBRANCH  16  17
ENDBRANCH  13  16
ENDBRANCH  11  12
ENDBRANCH   6  11
BRANCH   7  22
HETATM   22  C   UNL     1      20.573  45.270  48.348  1.00  0.00    -0.030 A 
HETATM   23  C   UNL     1      21.534  44.796  49.244  1.00  0.00     0.010 A 
HETATM   24  C   UNL     1      22.421  43.775  48.852  1.00  0.00     0.008 A 
HETATM   25  C   UNL     1      22.359  43.196  47.572  1.00  0.00    -0.055 A 
HETATM   26  C   UNL     1      21.324  43.585  46.725  1.00  0.00     0.008 A 
HETATM   27  C   UNL     1      20.461  44.614  47.096  1.00  0.00     0.010 A 
BRANCH  25  28
HETATM   28  C   UNL     1      23.427  42.206  47.122  1.00  0.00     0.010 C 
HETATM   29  C   UNL     1      23.116  40.796  47.622  1.00  0.00     0.015 C 
HETATM   30  C   UNL     1      23.637  42.191  45.598  1.00  0.00     0.015 C 
ENDBRANCH  25  28
ENDBRANCH   7  22
BRANCH  10  31
HETATM   31  C   UNL     1      21.729  48.309  48.585  1.00  0.00     0.256 C 
HETATM   32  N   UNL     1      22.709  48.435  49.533  1.00  0.00    -0.323 N 
HETATM   33  H   UNL     1      22.496  48.263  50.508  1.00  0.00     0.169 HD
HETATM   34  O   UNL     1      21.883  48.372  47.364  1.00  0.00    -0.267 OA
BRANCH  32  35
HETATM   35  C   UNL     1      24.085  48.664  49.288  1.00  0.00     0.035 A 
HETATM   36  C   UNL     1      24.572  49.717  48.511  1.00  0.00     0.029 A 
HETATM   37  C   UNL     1      25.947  49.862  48.298  1.00  0.00     0.002 A 
HETATM   38  C   UNL     1      26.843  48.953  48.853  1.00  0.00     0.000 A 
HETATM   39  C   UNL     1      26.368  47.907  49.638  1.00  0.00     0.002 A 
HETATM   40  C   UNL     1      24.995  47.769  49.865  1.00  0.00     0.029 A 
ENDBRANCH  32  35
ENDBRANCH  10  31
TORSDOF 9
ENDMDL
MODEL 3
REMARK VINA RESULT:      -7.4      6.439     10.966
REMARK  9 active torsions:
REMARK  status: ('A' for Active; 'I' for Inactive)
REMARK    1  A    between atoms: C_6  and  C_7 
REMARK    2  A    between atoms: C_7  and  C_8 
REMARK       I    between atoms: C_8  and  N_9 
REMARK    3  A    between atoms: N_9  and  C_10 
REMARK    4  A    between atoms: C_10  and  C_11 
REMARK    5  A    between atoms: C_11  and  N_12 
REMARK    6  A    between atoms: C_17  and  C_18 
REMARK    7  A    between atoms: C_21  and  C_22 
REMARK    8  A    between atoms: C_29  and  C_30 
REMARK       I    between atoms: C_30  and  N_31 
REMARK    9  A    between atoms: N_31  and  C_32 
ROOT
HETATM    1  C   UNL     1      18.266  50.887  43.380  1.00  0.00     0.071 C 
HETATM    2  C   UNL     1      17.035  51.104  44.225  1.00  0.00     0.047 C 
HETATM    3  N   UNL     1      15.826  50.906  43.530  1.00  0.00    -0.229 NA
HETATM    4  C   UNL     1      14.817  50.474  44.222  1.00  0.00     0.170 C 
HETATM    5  N   UNL     1      14.870  50.359  45.816  1.00  0.00    -0.319 N 
HETATM    6  C   UNL     1      14.654  49.084  45.966  1.00  0.00     0.011 C 
HETATM    7  C   UNL     1      15.738  51.482  46.206  1.00  0.00     0.165 C 
HETATM    8  S   UNL     1      13.476  49.565  43.600  1.00  0.00    -0.086 SA
HETATM    9  C   UNL     1      13.373  48.683  45.227  1.00  0.00     0.135 C 
HETATM   10  C   UNL     1      17.068  51.305  45.570  1.00  0.00     0.062 C 
ENDROOT
BRANCH   6  11
HETATM   11  C   UNL     1      15.811  48.119  46.061  1.00  0.00     0.156 C 
BRANCH  11  12
HETATM   12  C   UNL     1      16.344  47.720  47.404  1.00  0.00     0.223 C 
HETATM   13  N   UNL     1      17.579  47.102  47.333  1.00  0.00    -0.359 N 
HETATM   14  H   UNL     1      18.224  47.508  46.643  1.00  0.00     0.162 HD
HETATM   15  O   UNL     1      15.672  47.811  48.420  1.00  0.00    -0.273 OA
BRANCH  13  16
HETATM   16  C   UNL     1      18.230  46.537  48.516  1.00  0.00     0.150 C 
BRANCH  16  17
HETATM   17  C   UNL     1      19.307  45.489  48.167  1.00  0.00     0.253 C 
BRANCH  17  18
HETATM   18  N   UNL     1      20.623  45.785  48.886  1.00  0.00    -0.077 N 
HETATM   19  H   UNL     1      20.383  45.868  49.882  1.00  0.00     0.279 HD
HETATM   20  C   UNL     1      21.649  44.690  48.767  1.00  0.00     0.269 C 
HETATM   21  C   UNL     1      21.207  47.107  48.456  1.00  0.00     0.269 C 
ENDBRANCH  17  18
ENDBRANCH  16  17
ENDBRANCH  13  16
ENDBRANCH  11  12
ENDBRANCH   6  11
BRANCH   7  22
HETATM   22  C   UNL     1      15.503  52.225  47.504  1.00  0.00    -0.030 A 
HETATM   23  C   UNL     1      15.664  51.672  48.777  1.00  0.00     0.010 A 
HETATM   24  C   UNL     1      15.092  52.305  49.898  1.00  0.00     0.008 A 
HETATM   25  C   UNL     1      14.367  53.504  49.777  1.00  0.00    -0.055 A 
HETATM   26  C   UNL     1      14.312  54.115  48.527  1.00  0.00     0.008 A 
HETATM   27  C   UNL     1      14.851  53.480  47.410  1.00  0.00     0.010 A 
BRANCH  25  28
HETATM   28  C   UNL     1      13.630  54.082  50.979  1.00  0.00     0.010 C 
HETATM   29  C   UNL     1      14.567  54.916  51.851  1.00  0.00     0.015 C 
HETATM   30  C   UNL     1      12.393  54.909  50.592  1.00  0.00     0.015 C 
ENDBRANCH  25  28
ENDBRANCH   7  22
BRANCH  10  31
HETATM   31  C   UNL     1      18.227  50.834  46.377  1.00  0.00     0.256 C 
HETATM   32  N   UNL     1      18.729  51.720  47.292  1.00  0.00    -0.323 N 
HETATM   33  H   UNL     1      18.356  52.660  47.346  1.00  0.00     0.169 HD
HETATM   34  O   UNL     1      18.508  49.637  46.291  1.00  0.00    -0.267 OA
BRANCH  32  35
HETATM   35  C   UNL     1      19.667  51.428  48.311  1.00  0.00     0.035 A 
HETATM   36  C   UNL     1      19.360  51.419  49.674  1.00  0.00     0.029 A 
HETATM   37  C   UNL     1      20.351  51.141  50.621  1.00  0.00     0.002 A 
HETATM   38  C   UNL     1      21.656  50.877  50.215  1.00  0.00     0.000 A 
HETATM   39  C   UNL     1      21.969  50.872  48.859  1.00  0.00     0.002 A 
HETATM   40  C   UNL     1      20.977  51.134  47.910  1.00  0.00     0.029 A 
ENDBRANCH  32  35
ENDBRANCH  10  31
TORSDOF 9
ENDMDL
MODEL 4
REMARK VINA RESULT:      -7.3      6.431     10.808
REMARK  9 active torsions:
REMARK  status: ('A' for Active; 'I' for Inactive)
REMARK    1  A    between atoms: C_6  and  C_7 
REMARK    2  A    between atoms: C_7  and  C_8 
REMARK       I    between atoms: C_8  and  N_9 
REMARK    3  A    between atoms: N_9  and  C_10 
REMARK    4  A    between atoms: C_10  and  C_11 
REMARK    5  A    between atoms: C_11  and  N_12 
REMARK    6  A    between atoms: C_17  and  C_18 
REMARK    7  A    between atoms: C_21  and  C_22 
REMARK    8  A    between atoms: C_29  and  C_30 
REMARK       I    between atoms: C_30  and  N_31 
REMARK    9  A    between atoms: N_31  and  C_32 
ROOT
HETATM    1  C   UNL     1      16.334  49.094  46.488  1.00  0.00     0.071 C 
HETATM    2  C   UNL     1      16.411  49.785  47.827  1.00  0.00     0.047 C 
HETATM    3  N   UNL     1      17.011  49.004  48.835  1.00  0.00    -0.229 NA
HETATM    4  C   UNL     1      17.656  49.642  49.763  1.00  0.00     0.170 C 
HETATM    5  N   UNL     1      17.613  51.237  49.882  1.00  0.00    -0.319 N 
HETATM    6  C   UNL     1      18.878  51.515  49.752  1.00  0.00     0.011 C 
HETATM    7  C   UNL     1      16.257  51.572  49.418  1.00  0.00     0.165 C 
HETATM    8  S   UNL     1      18.966  49.006  50.708  1.00  0.00    -0.086 SA
HETATM    9  C   UNL     1      19.696  50.709  50.766  1.00  0.00     0.135 C 
HETATM   10  C   UNL     1      16.095  51.093  48.022  1.00  0.00     0.062 C 
ENDROOT
BRANCH   6  11
HETATM   11  C   UNL     1      19.453  51.835  48.394  1.00  0.00     0.156 C 
BRANCH  11  12
HETATM   12  C   UNL     1      20.387  50.868  47.729  1.00  0.00     0.223 C 
HETATM   13  N   UNL     1      21.679  50.943  48.217  1.00  0.00    -0.359 N 
HETATM   14  H   UNL     1      21.749  51.082  49.233  1.00  0.00     0.162 HD
HETATM   15  O   UNL     1      20.047  50.201  46.765  1.00  0.00    -0.273 OA
BRANCH  13  16
HETATM   16  C   UNL     1      22.771  50.163  47.632  1.00  0.00     0.150 C 
BRANCH  16  17
HETATM   17  C   UNL     1      23.772  49.647  48.687  1.00  0.00     0.253 C 
BRANCH  17  18
HETATM   18  N   UNL     1      23.199  48.461  49.463  1.00  0.00    -0.077 N 
HETATM   19  H   UNL     1      22.693  48.869  50.259  1.00  0.00     0.279 HD
HETATM   20  C   UNL     1      22.210  47.637  48.683  1.00  0.00     0.269 C 
HETATM   21  C   UNL     1      24.290  47.586  50.027  1.00  0.00     0.269 C 
ENDBRANCH  17  18
ENDBRANCH  16  17
ENDBRANCH  13  16
ENDBRANCH  11  12
ENDBRANCH   6  11
BRANCH   7  22
HETATM   22  C   UNL     1      15.505  52.744  50.013  1.00  0.00    -0.030 A 
HETATM   23  C   UNL     1      14.183  52.696  50.460  1.00  0.00     0.010 A 
HETATM   24  C   UNL     1      13.463  53.889  50.661  1.00  0.00     0.008 A 
HETATM   25  C   UNL     1      14.047  55.149  50.438  1.00  0.00    -0.055 A 
HETATM   26  C   UNL     1      15.400  55.197  50.110  1.00  0.00     0.008 A 
HETATM   27  C   UNL     1      16.109  54.019  49.883  1.00  0.00     0.010 A 
BRANCH  25  28
HETATM   28  C   UNL     1      13.201  56.415  50.512  1.00  0.00     0.010 C 
HETATM   29  C   UNL     1      12.639  56.782  49.140  1.00  0.00     0.015 C 
HETATM   30  C   UNL     1      12.063  56.324  51.542  1.00  0.00     0.015 C 
ENDBRANCH  25  28
ENDBRANCH   7  22
BRANCH  10  31
HETATM   31  C   UNL     1      16.137  52.059  46.889  1.00  0.00     0.256 C 
HETATM   32  N   UNL     1      14.936  52.581  46.492  1.00  0.00    -0.323 N 
HETATM   33  H   UNL     1      14.077  52.257  46.918  1.00  0.00     0.169 HD
HETATM   34  O   UNL     1      17.253  52.448  46.540  1.00  0.00    -0.267 OA
BRANCH  32  35
HETATM   35  C   UNL     1      14.750  53.666  45.602  1.00  0.00     0.035 A 
HETATM   36  C   UNL     1      15.178  53.665  44.273  1.00  0.00     0.029 A 
HETATM   37  C   UNL     1      14.976  54.787  43.462  1.00  0.00     0.002 A 
HETATM   38  C   UNL     1      14.350  55.920  43.976  1.00  0.00     0.000 A 
HETATM   39  C   UNL     1      13.909  55.926  45.297  1.00  0.00     0.002 A 
HETATM   40  C   UNL     1      14.097  54.800  46.103  1.00  0.00     0.029 A 
ENDBRANCH  32  35
ENDBRANCH  10  31
TORSDOF 9
ENDMDL
MODEL 5
REMARK VINA RESULT:      -7.1      5.915     10.436
REMARK  9 active torsions:
REMARK  status: ('A' for Active; 'I' for Inactive)
REMARK    1  A    between atoms: C_6  and  C_7 
REMARK    2  A    between atoms: C_7  and  C_8 
REMARK       I    between atoms: C_8  and  N_9 
REMARK    3  A    between atoms: N_9  and  C_10 
REMARK    4  A    between atoms: C_10  and  C_11 
REMARK    5  A    between atoms: C_11  and  N_12 
REMARK    6  A    between atoms: C_17  and  C_18 
REMARK    7  A    between atoms: C_21  and  C_22 
REMARK    8  A    between atoms: C_29  and  C_30 
REMARK       I    between atoms: C_30  and  N_31 
REMARK    9  A    between atoms: N_31  and  C_32 
ROOT
HETATM    1  C   UNL     1      16.444  47.789  46.604  1.00  0.00     0.071 C 
HETATM    2  C   UNL     1      16.412  48.826  47.699  1.00  0.00     0.047 C 
HETATM    3  N   UNL     1      17.011  48.400  48.901  1.00  0.00    -0.229 NA
HETATM    4  C   UNL     1      17.568  49.315  49.634  1.00  0.00     0.170 C 
HETATM    5  N   UNL     1      17.418  50.873  49.303  1.00  0.00    -0.319 N 
HETATM    6  C   UNL     1      18.668  51.198  49.137  1.00  0.00     0.011 C 
HETATM    7  C   UNL     1      16.068  50.966  48.725  1.00  0.00     0.165 C 
HETATM    8  S   UNL     1      18.868  49.063  50.756  1.00  0.00    -0.086 SA
HETATM    9  C   UNL     1      19.485  50.765  50.359  1.00  0.00     0.135 C 
HETATM   10  C   UNL     1      16.004  50.110  47.513  1.00  0.00     0.062 C 
ENDROOT
BRANCH   6  11
HETATM   11  C   UNL     1      19.287  51.173  47.761  1.00  0.00     0.156 C 
BRANCH  11  12
HETATM   12  C   UNL     1      20.402  50.217  47.458  1.00  0.00     0.223 C 
HETATM   13  N   UNL     1      19.970  48.911  47.316  1.00  0.00    -0.359 N 
HETATM   14  H   UNL     1      19.077  48.805  46.820  1.00  0.00     0.162 HD
HETATM   15  O   UNL     1      21.573  50.561  47.485  1.00  0.00    -0.273 OA
BRANCH  13  16
HETATM   16  C   UNL     1      20.908  47.804  47.125  1.00  0.00     0.150 C 
BRANCH  16  17
HETATM   17  C   UNL     1      20.741  46.686  48.176  1.00  0.00     0.253 C 
BRANCH  17  18
HETATM   18  N   UNL     1      22.041  46.447  48.944  1.00  0.00    -0.077 N 
HETATM   19  H   UNL     1      21.762  46.294  49.921  1.00  0.00     0.279 HD
HETATM   20  C   UNL     1      22.800  45.224  48.502  1.00  0.00     0.269 C 
HETATM   21  C   UNL     1      22.933  47.662  48.920  1.00  0.00     0.269 C 
ENDBRANCH  17  18
ENDBRANCH  16  17
ENDBRANCH  13  16
ENDBRANCH  11  12
ENDBRANCH   6  11
BRANCH   7  22
HETATM   22  C   UNL     1      15.216  52.197  48.948  1.00  0.00    -0.030 A 
HETATM   23  C   UNL     1      14.954  53.169  47.980  1.00  0.00     0.010 A 
HETATM   24  C   UNL     1      14.463  54.432  48.363  1.00  0.00     0.008 A 
HETATM   25  C   UNL     1      14.207  54.746  49.710  1.00  0.00    -0.055 A 
HETATM   26  C   UNL     1      14.354  53.736  50.659  1.00  0.00     0.008 A 
HETATM   27  C   UNL     1      14.866  52.494  50.289  1.00  0.00     0.010 A 
BRANCH  25  28
HETATM   28  C   UNL     1      13.825  56.166  50.112  1.00  0.00     0.010 C 
HETATM   29  C   UNL     1      12.827  56.161  51.268  1.00  0.00     0.015 C 
HETATM   30  C   UNL     1      15.038  57.043  50.463  1.00  0.00     0.015 C 
ENDBRANCH  25  28
ENDBRANCH   7  22
BRANCH  10  31
HETATM   31  C   UNL     1      16.040  50.727  46.158  1.00  0.00     0.256 C 
HETATM   32  N   UNL     1      17.268  51.127  45.706  1.00  0.00    -0.323 N 
HETATM   33  H   UNL     1      18.078  51.058  46.310  1.00  0.00     0.169 HD
HETATM   34  O   UNL     1      15.007  50.647  45.491  1.00  0.00    -0.267 OA
BRANCH  32  35
HETATM   35  C   UNL     1      17.583  51.528  44.386  1.00  0.00     0.035 A 
HETATM   36  C   UNL     1      17.058  52.668  43.772  1.00  0.00     0.029 A 
HETATM   37  C   UNL     1      17.402  52.984  42.453  1.00  0.00     0.002 A 
HETATM   38  C   UNL     1      18.266  52.162  41.737  1.00  0.00     0.000 A 
HETATM   39  C   UNL     1      18.804  51.030  42.344  1.00  0.00     0.002 A 
HETATM   40  C   UNL     1      18.473  50.721  43.666  1.00  0.00     0.029 A 
ENDBRANCH  32  35
ENDBRANCH  10  31
TORSDOF 9
ENDMDL
MODEL 6
REMARK VINA RESULT:      -7.0      5.957     10.037
REMARK  9 active torsions:
REMARK  status: ('A' for Active; 'I' for Inactive)
REMARK    1  A    between atoms: C_6  and  C_7 
REMARK    2  A    between atoms: C_7  and  C_8 
REMARK       I    between atoms: C_8  and  N_9 
REMARK    3  A    between atoms: N_9  and  C_10 
REMARK    4  A    between atoms: C_10  and  C_11 
REMARK    5  A    between atoms: C_11  and  N_12 
REMARK    6  A    between atoms: C_17  and  C_18 
REMARK    7  A    between atoms: C_21  and  C_22 
REMARK    8  A    between atoms: C_29  and  C_30 
REMARK       I    between atoms: C_30  and  N_31 
REMARK    9  A    between atoms: N_31  and  C_32 
ROOT
HETATM    1  C   UNL     1      17.580  48.278  45.597  1.00  0.00     0.071 C 
HETATM    2  C   UNL     1      17.200  48.985  46.874  1.00  0.00     0.047 C 
HETATM    3  N   UNL     1      17.431  48.222  48.036  1.00  0.00    -0.229 NA
HETATM    4  C   UNL     1      17.723  48.877  49.118  1.00  0.00     0.170 C 
HETATM    5  N   UNL     1      17.633  50.472  49.193  1.00  0.00    -0.319 N 
HETATM    6  C   UNL     1      18.868  50.761  49.491  1.00  0.00     0.011 C 
HETATM    7  C   UNL     1      16.511  50.789  48.296  1.00  0.00     0.165 C 
HETATM    8  S   UNL     1      18.643  48.265  50.456  1.00  0.00    -0.086 SA
HETATM    9  C   UNL     1      19.302  49.975  50.732  1.00  0.00     0.135 C 
HETATM   10  C   UNL     1      16.829  50.292  46.933  1.00  0.00     0.062 C 
ENDROOT
BRANCH   6  11
HETATM   11  C   UNL     1      19.864  51.072  48.400  1.00  0.00     0.156 C 
BRANCH  11  12
HETATM   12  C   UNL     1      20.891  50.051  48.012  1.00  0.00     0.223 C 
HETATM   13  N   UNL     1      22.176  50.414  48.372  1.00  0.00    -0.359 N 
HETATM   14  H   UNL     1      22.253  50.872  49.289  1.00  0.00     0.162 HD
HETATM   15  O   UNL     1      20.611  49.082  47.324  1.00  0.00    -0.273 OA
BRANCH  13  16
HETATM   16  C   UNL     1      23.340  49.612  47.992  1.00  0.00     0.150 C 
BRANCH  16  17
HETATM   17  C   UNL     1      24.179  49.158  49.205  1.00  0.00     0.253 C 
BRANCH  17  18
HETATM   18  N   UNL     1      23.617  47.876  49.821  1.00  0.00    -0.077 N 
HETATM   19  H   UNL     1      22.888  48.180  50.476  1.00  0.00     0.279 HD
HETATM   20  C   UNL     1      22.965  46.953  48.827  1.00  0.00     0.269 C 
HETATM   21  C   UNL     1      24.661  47.141  50.622  1.00  0.00     0.269 C 
ENDBRANCH  17  18
ENDBRANCH  16  17
ENDBRANCH  13  16
ENDBRANCH  11  12
ENDBRANCH   6  11
BRANCH   7  22
HETATM   22  C   UNL     1      15.596  51.960  48.588  1.00  0.00    -0.030 A 
HETATM   23  C   UNL     1      15.052  52.805  47.617  1.00  0.00     0.010 A 
HETATM   24  C   UNL     1      14.518  54.053  47.989  1.00  0.00     0.008 A 
HETATM   25  C   UNL     1      14.500  54.478  49.329  1.00  0.00    -0.055 A 
HETATM   26  C   UNL     1      14.932  53.585  50.307  1.00  0.00     0.008 A 
HETATM   27  C   UNL     1      15.487  52.360  49.943  1.00  0.00     0.010 A 
BRANCH  25  28
HETATM   28  C   UNL     1      14.060  55.894  49.684  1.00  0.00     0.010 C 
HETATM   29  C   UNL     1      12.828  55.878  50.586  1.00  0.00     0.015 C 
HETATM   30  C   UNL     1      15.176  56.733  50.327  1.00  0.00     0.015 C 
ENDBRANCH  25  28
ENDBRANCH   7  22
BRANCH  10  31
HETATM   31  C   UNL     1      17.244  51.245  45.867  1.00  0.00     0.256 C 
HETATM   32  N   UNL     1      16.524  51.205  44.704  1.00  0.00    -0.323 N 
HETATM   33  H   UNL     1      15.800  50.508  44.579  1.00  0.00     0.169 HD
HETATM   34  O   UNL     1      18.061  52.109  46.190  1.00  0.00    -0.267 OA
BRANCH  32  35
HETATM   35  C   UNL     1      16.585  52.149  43.650  1.00  0.00     0.035 A 
HETATM   36  C   UNL     1      15.770  53.280  43.570  1.00  0.00     0.029 A 
HETATM   37  C   UNL     1      15.877  54.154  42.482  1.00  0.00     0.002 A 
HETATM   38  C   UNL     1      16.793  53.900  41.466  1.00  0.00     0.000 A 
HETATM   39  C   UNL     1      17.618  52.781  41.543  1.00  0.00     0.002 A 
HETATM   40  C   UNL     1      17.523  51.915  42.636  1.00  0.00     0.029 A 
ENDBRANCH  32  35
ENDBRANCH  10  31
TORSDOF 9
ENDMDL
MODEL 7
REMARK VINA RESULT:      -7.0      7.132     11.026
REMARK  9 active torsions:
REMARK  status: ('A' for Active; 'I' for Inactive)
REMARK    1  A    between atoms: C_6  and  C_7 
REMARK    2  A    between atoms: C_7  and  C_8 
REMARK       I    between atoms: C_8  and  N_9 
REMARK    3  A    between atoms: N_9  and  C_10 
REMARK    4  A    between atoms: C_10  and  C_11 
REMARK    5  A    between atoms: C_11  and  N_12 
REMARK    6  A    between atoms: C_17  and  C_18 
REMARK    7  A    between atoms: C_21  and  C_22 
REMARK    8  A    between atoms: C_29  and  C_30 
REMARK       I    between atoms: C_30  and  N_31 
REMARK    9  A    between atoms: N_31  and  C_32 
ROOT
HETATM    1  C   UNL     1      18.927  52.092  48.482  1.00  0.00     0.071 C 
HETATM    2  C   UNL     1      18.048  51.696  47.322  1.00  0.00     0.047 C 
HETATM    3  N   UNL     1      18.658  50.793  46.430  1.00  0.00    -0.229 NA
HETATM    4  C   UNL     1      17.876  49.960  45.813  1.00  0.00     0.170 C 
HETATM    5  N   UNL     1      16.282  50.074  45.898  1.00  0.00    -0.319 N 
HETATM    6  C   UNL     1      15.994  48.913  46.414  1.00  0.00     0.011 C 
HETATM    7  C   UNL     1      16.053  51.523  46.002  1.00  0.00     0.165 C 
HETATM    8  S   UNL     1      18.334  48.403  45.199  1.00  0.00    -0.086 SA
HETATM    9  C   UNL     1      16.623  47.798  45.574  1.00  0.00     0.135 C 
HETATM   10  C   UNL     1      16.733  52.031  47.221  1.00  0.00     0.062 C 
ENDROOT
BRANCH   6  11
HETATM   11  C   UNL     1      15.859  48.755  47.909  1.00  0.00     0.156 C 
BRANCH  11  12
HETATM   12  C   UNL     1      16.865  47.944  48.670  1.00  0.00     0.223 C 
HETATM   13  N   UNL     1      18.002  48.662  48.996  1.00  0.00    -0.359 N 
HETATM   14  H   UNL     1      17.830  49.634  49.281  1.00  0.00     0.162 HD
HETATM   15  O   UNL     1      16.730  46.743  48.842  1.00  0.00    -0.273 OA
BRANCH  13  16
HETATM   16  C   UNL     1      19.153  48.032  49.643  1.00  0.00     0.150 C 
BRANCH  16  17
HETATM   17  C   UNL     1      20.374  47.905  48.708  1.00  0.00     0.253 C 
BRANCH  17  18
HETATM   18  N   UNL     1      21.657  48.356  49.406  1.00  0.00    -0.077 N 
HETATM   19  H   UNL     1      21.518  48.150  50.403  1.00  0.00     0.279 HD
HETATM   20  C   UNL     1      22.890  47.612  48.966  1.00  0.00     0.269 C 
HETATM   21  C   UNL     1      21.864  49.845  49.282  1.00  0.00     0.269 C 
ENDBRANCH  17  18
ENDBRANCH  16  17
ENDBRANCH  13  16
ENDBRANCH  11  12
ENDBRANCH   6  11
BRANCH   7  22
HETATM   22  C   UNL     1      14.827  52.158  45.380  1.00  0.00    -0.030 A 
HETATM   23  C   UNL     1      13.748  51.448  44.846  1.00  0.00     0.010 A 
HETATM   24  C   UNL     1      12.839  52.091  43.986  1.00  0.00     0.008 A 
HETATM   25  C   UNL     1      12.973  53.451  43.654  1.00  0.00    -0.055 A 
HETATM   26  C   UNL     1      13.976  54.185  44.283  1.00  0.00     0.008 A 
HETATM   27  C   UNL     1      14.896  53.548  45.113  1.00  0.00     0.010 A 
BRANCH  25  28
HETATM   28  C   UNL     1      12.068  54.081  42.601  1.00  0.00     0.010 C 
HETATM   29  C   UNL     1      12.352  55.574  42.453  1.00  0.00     0.015 C 
HETATM   30  C   UNL     1      12.157  53.387  41.232  1.00  0.00     0.015 C 
ENDBRANCH  25  28
ENDBRANCH   7  22
BRANCH  10  31
HETATM   31  C   UNL     1      15.942  52.365  48.437  1.00  0.00     0.256 C 
HETATM   32  N   UNL     1      15.632  53.686  48.616  1.00  0.00    -0.323 N 
HETATM   33  H   UNL     1      15.995  54.382  47.977  1.00  0.00     0.169 HD
HETATM   34  O   UNL     1      15.473  51.414  49.065  1.00  0.00    -0.267 OA
BRANCH  32  35
HETATM   35  C   UNL     1      14.717  54.209  49.560  1.00  0.00     0.035 A 
HETATM   36  C   UNL     1      13.355  54.391  49.306  1.00  0.00     0.029 A 
HETATM   37  C   UNL     1      12.519  54.936  50.287  1.00  0.00     0.002 A 
HETATM   38  C   UNL     1      13.038  55.308  51.524  1.00  0.00     0.000 A 
HETATM   39  C   UNL     1      14.391  55.121  51.790  1.00  0.00     0.002 A 
HETATM   40  C   UNL     1      15.225  54.562  50.817  1.00  0.00     0.029 A 
ENDBRANCH  32  35
ENDBRANCH  10  31
TORSDOF 9
ENDMDL
MODEL 8
REMARK VINA RESULT:      -6.9      9.497     11.764
REMARK  9 active torsions:
REMARK  status: ('A' for Active; 'I' for Inactive)
REMARK    1  A    between atoms: C_6  and  C_7 
REMARK    2  A    between atoms: C_7  and  C_8 
REMARK       I    between atoms: C_8  and  N_9 
REMARK    3  A    between atoms: N_9  and  C_10 
REMARK    4  A    between atoms: C_10  and  C_11 
REMARK    5  A    between atoms: C_11  and  N_12 
REMARK    6  A    between atoms: C_17  and  C_18 
REMARK    7  A    between atoms: C_21  and  C_22 
REMARK    8  A    between atoms: C_29  and  C_30 
REMARK       I    between atoms: C_30  and  N_31 
REMARK    9  A    between atoms: N_31  and  C_32 
ROOT
HETATM    1  C   UNL     1      26.087  48.494  36.374  1.00  0.00     0.071 C 
HETATM    2  C   UNL     1      26.224  47.331  37.325  1.00  0.00     0.047 C 
HETATM    3  N   UNL     1      26.649  46.139  36.707  1.00  0.00    -0.229 NA
HETATM    4  C   UNL     1      27.353  45.323  37.430  1.00  0.00     0.170 C 
HETATM    5  N   UNL     1      27.565  45.550  39.000  1.00  0.00    -0.319 N 
HETATM    6  C   UNL     1      28.863  45.644  39.048  1.00  0.00     0.011 C 
HETATM    7  C   UNL     1      26.301  46.173  39.424  1.00  0.00     0.165 C 
HETATM    8  S   UNL     1      28.504  44.171  36.831  1.00  0.00    -0.086 SA
HETATM    9  C   UNL     1      29.499  44.424  38.374  1.00  0.00     0.135 C 
HETATM   10  C   UNL     1      26.117  47.443  38.677  1.00  0.00     0.062 C 
ENDROOT
BRANCH   6  11
HETATM   11  C   UNL     1      29.535  46.993  38.969  1.00  0.00     0.156 C 
BRANCH  11  12
HETATM   12  C   UNL     1      30.231  47.555  40.172  1.00  0.00     0.223 C 
HETATM   13  N   UNL     1      31.610  47.524  40.061  1.00  0.00    -0.359 N 
HETATM   14  H   UNL     1      31.972  47.752  39.127  1.00  0.00     0.162 HD
HETATM   15  O   UNL     1      29.624  47.864  41.185  1.00  0.00    -0.273 OA
BRANCH  13  16
HETATM   16  C   UNL     1      32.482  47.925  41.166  1.00  0.00     0.150 C 
BRANCH  16  17
HETATM   17  C   UNL     1      32.964  49.386  41.053  1.00  0.00     0.253 C 
BRANCH  17  18
HETATM   18  N   UNL     1      33.203  50.001  42.432  1.00  0.00    -0.077 N 
HETATM   19  H   UNL     1      33.773  49.318  42.945  1.00  0.00     0.279 HD
HETATM   20  C   UNL     1      33.976  51.292  42.403  1.00  0.00     0.269 C 
HETATM   21  C   UNL     1      31.914  50.172  43.196  1.00  0.00     0.269 C 
ENDBRANCH  17  18
ENDBRANCH  16  17
ENDBRANCH  13  16
ENDBRANCH  11  12
ENDBRANCH   6  11
BRANCH   7  22
HETATM   22  C   UNL     1      25.728  45.898  40.798  1.00  0.00    -0.030 A 
HETATM   23  C   UNL     1      26.380  45.179  41.802  1.00  0.00     0.010 A 
HETATM   24  C   UNL     1      25.649  44.674  42.895  1.00  0.00     0.008 A 
HETATM   25  C   UNL     1      24.265  44.888  43.019  1.00  0.00    -0.055 A 
HETATM   26  C   UNL     1      23.641  45.708  42.081  1.00  0.00     0.008 A 
HETATM   27  C   UNL     1      24.353  46.187  40.983  1.00  0.00     0.010 A 
BRANCH  25  28
HETATM   28  C   UNL     1      23.475  44.201  44.126  1.00  0.00     0.010 C 
HETATM   29  C   UNL     1      22.207  44.983  44.464  1.00  0.00     0.015 C 
HETATM   30  C   UNL     1      23.124  42.739  43.804  1.00  0.00     0.015 C 
ENDBRANCH  25  28
ENDBRANCH   7  22
BRANCH  10  31
HETATM   31  C   UNL     1      26.360  48.749  39.349  1.00  0.00     0.256 C 
HETATM   32  N   UNL     1      27.613  49.282  39.206  1.00  0.00    -0.323 N 
HETATM   33  H   UNL     1      28.333  48.760  38.724  1.00  0.00     0.169 HD
HETATM   34  O   UNL     1      25.370  49.325  39.806  1.00  0.00    -0.267 OA
BRANCH  32  35
HETATM   35  C   UNL     1      28.008  50.594  39.560  1.00  0.00     0.035 A 
HETATM   36  C   UNL     1      28.441  51.551  38.639  1.00  0.00     0.029 A 
HETATM   37  C   UNL     1      28.836  52.822  39.072  1.00  0.00     0.002 A 
HETATM   38  C   UNL     1      28.809  53.141  40.427  1.00  0.00     0.000 A 
HETATM   39  C   UNL     1      28.369  52.198  41.351  1.00  0.00     0.002 A 
HETATM   40  C   UNL     1      27.959  50.934  40.919  1.00  0.00     0.029 A 
ENDBRANCH  32  35
ENDBRANCH  10  31
TORSDOF 9
ENDMDL
MODEL 9
REMARK VINA RESULT:      -6.9      4.157      8.993
REMARK  9 active torsions:
REMARK  status: ('A' for Active; 'I' for Inactive)
REMARK    1  A    between atoms: C_6  and  C_7 
REMARK    2  A    between atoms: C_7  and  C_8 
REMARK       I    between atoms: C_8  and  N_9 
REMARK    3  A    between atoms: N_9  and  C_10 
REMARK    4  A    between atoms: C_10  and  C_11 
REMARK    5  A    between atoms: C_11  and  N_12 
REMARK    6  A    between atoms: C_17  and  C_18 
REMARK    7  A    between atoms: C_21  and  C_22 
REMARK    8  A    between atoms: C_29  and  C_30 
REMARK       I    between atoms: C_30  and  N_31 
REMARK    9  A    between atoms: N_31  and  C_32 
ROOT
HETATM    1  C   UNL     1      19.456  48.626  49.010  1.00  0.00     0.071 C 
HETATM    2  C   UNL     1      19.727  47.163  48.762  1.00  0.00     0.047 C 
HETATM    3  N   UNL     1      18.574  46.417  48.448  1.00  0.00    -0.229 NA
HETATM    4  C   UNL     1      18.733  45.395  47.664  1.00  0.00     0.170 C 
HETATM    5  N   UNL     1      20.183  44.878  47.230  1.00  0.00    -0.319 N 
HETATM    6  C   UNL     1      20.098  45.003  45.937  1.00  0.00     0.011 C 
HETATM    7  C   UNL     1      21.012  45.169  48.411  1.00  0.00     0.165 C 
HETATM    8  S   UNL     1      17.519  44.712  46.629  1.00  0.00    -0.086 SA
HETATM    9  C   UNL     1      18.855  44.269  45.423  1.00  0.00     0.135 C 
HETATM   10  C   UNL     1      20.975  46.630  48.676  1.00  0.00     0.062 C 
ENDROOT
BRANCH   6  11
HETATM   11  C   UNL     1      20.569  46.267  45.259  1.00  0.00     0.156 C 
BRANCH  11  12
HETATM   12  C   UNL     1      19.575  47.189  44.619  1.00  0.00     0.223 C 
HETATM   13  N   UNL     1      18.969  48.041  45.524  1.00  0.00    -0.359 N 
HETATM   14  H   UNL     1      19.593  48.412  46.251  1.00  0.00     0.162 HD
HETATM   15  O   UNL     1      19.251  47.076  43.448  1.00  0.00    -0.273 OA
BRANCH  13  16
HETATM   16  C   UNL     1      17.890  48.948  45.127  1.00  0.00     0.150 C 
BRANCH  16  17
HETATM   17  C   UNL     1      16.926  49.278  46.286  1.00  0.00     0.253 C 
BRANCH  17  18
HETATM   18  N   UNL     1      16.806  50.788  46.494  1.00  0.00    -0.077 N 
HETATM   19  H   UNL     1      16.115  50.911  47.245  1.00  0.00     0.279 HD
HETATM   20  C   UNL     1      18.080  51.448  46.951  1.00  0.00     0.269 C 
HETATM   21  C   UNL     1      16.261  51.477  45.269  1.00  0.00     0.269 C 
ENDBRANCH  17  18
ENDBRANCH  16  17
ENDBRANCH  13  16
ENDBRANCH  11  12
ENDBRANCH   6  11
BRANCH   7  22
HETATM   22  C   UNL     1      22.161  44.259  48.791  1.00  0.00    -0.030 A 
HETATM   23  C   UNL     1      22.395  43.768  50.078  1.00  0.00     0.010 A 
HETATM   24  C   UNL     1      23.656  43.236  50.410  1.00  0.00     0.008 A 
HETATM   25  C   UNL     1      24.698  43.166  49.470  1.00  0.00    -0.055 A 
HETATM   26  C   UNL     1      24.424  43.543  48.157  1.00  0.00     0.008 A 
HETATM   27  C   UNL     1      23.188  44.096  47.828  1.00  0.00     0.010 A 
BRANCH  25  28
HETATM   28  C   UNL     1      26.095  42.731  49.898  1.00  0.00     0.010 C 
HETATM   29  C   UNL     1      26.756  41.870  48.824  1.00  0.00     0.015 C 
HETATM   30  C   UNL     1      27.010  43.910  50.268  1.00  0.00     0.015 C 
ENDBRANCH  25  28
ENDBRANCH   7  22
BRANCH  10  31
HETATM   31  C   UNL     1      22.141  47.484  48.318  1.00  0.00     0.256 C 
HETATM   32  N   UNL     1      23.037  47.739  49.321  1.00  0.00    -0.323 N 
HETATM   33  H   UNL     1      22.854  47.408  50.260  1.00  0.00     0.169 HD
HETATM   34  O   UNL     1      22.300  47.725  47.120  1.00  0.00    -0.267 OA
BRANCH  32  35
HETATM   35  C   UNL     1      24.315  48.329  49.170  1.00  0.00     0.035 A 
HETATM   36  C   UNL     1      24.539  49.543  48.517  1.00  0.00     0.029 A 
HETATM   37  C   UNL     1      25.838  50.049  48.391  1.00  0.00     0.002 A 
HETATM   38  C   UNL     1      26.919  49.344  48.910  1.00  0.00     0.000 A 
HETATM   39  C   UNL     1      26.705  48.139  49.572  1.00  0.00     0.002 A 
HETATM   40  C   UNL     1      25.407  47.639  49.713  1.00  0.00     0.029 A 
ENDBRANCH  32  35
ENDBRANCH  10  31
TORSDOF 9
ENDMDL
MODEL 10
REMARK VINA RESULT:      -6.8      4.162      8.394
REMARK  9 active torsions:
REMARK  status: ('A' for Active; 'I' for Inactive)
REMARK    1  A    between atoms: C_6  and  C_7 
REMARK    2  A    between atoms: C_7  and  C_8 
REMARK       I    between atoms: C_8  and  N_9 
REMARK    3  A    between atoms: N_9  and  C_10 
REMARK    4  A    between atoms: C_10  and  C_11 
REMARK    5  A    between atoms: C_11  and  N_12 
REMARK    6  A    between atoms: C_17  and  C_18 
REMARK    7  A    between atoms: C_21  and  C_22 
REMARK    8  A    between atoms: C_29  and  C_30 
REMARK       I    between atoms: C_30  and  N_31 
REMARK    9  A    between atoms: N_31  and  C_32 
ROOT
HETATM    1  C   UNL     1      18.964  45.146  46.684  1.00  0.00     0.071 C 
HETATM    2  C   UNL     1      20.183  44.341  47.059  1.00  0.00     0.047 C 
HETATM    3  N   UNL     1      20.158  43.016  46.581  1.00  0.00    -0.229 NA
HETATM    4  C   UNL     1      21.304  42.470  46.308  1.00  0.00     0.170 C 
HETATM    5  N   UNL     1      22.689  43.179  46.677  1.00  0.00    -0.319 N 
HETATM    6  C   UNL     1      23.220  43.287  45.493  1.00  0.00     0.011 C 
HETATM    7  C   UNL     1      22.377  43.900  47.921  1.00  0.00     0.165 C 
HETATM    8  S   UNL     1      21.571  41.191  45.166  1.00  0.00    -0.086 SA
HETATM    9  C   UNL     1      23.237  41.918  44.804  1.00  0.00     0.135 C 
HETATM   10  C   UNL     1      21.286  44.871  47.653  1.00  0.00     0.062 C 
ENDROOT
BRANCH   6  11
HETATM   11  C   UNL     1      23.026  44.544  44.681  1.00  0.00     0.156 C 
BRANCH  11  12
HETATM   12  C   UNL     1      23.333  44.543  43.213  1.00  0.00     0.223 C 
HETATM   13  N   UNL     1      24.667  44.787  42.940  1.00  0.00    -0.359 N 
HETATM   14  H   UNL     1      25.328  44.337  43.586  1.00  0.00     0.162 HD
HETATM   15  O   UNL     1      22.454  44.475  42.369  1.00  0.00    -0.273 OA
BRANCH  13  16
HETATM   16  C   UNL     1      25.160  44.935  41.570  1.00  0.00     0.150 C 
BRANCH  16  17
HETATM   17  C   UNL     1      26.296  45.972  41.449  1.00  0.00     0.253 C 
BRANCH  17  18
HETATM   18  N   UNL     1      25.741  47.384  41.262  1.00  0.00    -0.077 N 
HETATM   19  H   UNL     1      25.604  47.757  42.210  1.00  0.00     0.279 HD
HETATM   20  C   UNL     1      26.676  48.322  40.547  1.00  0.00     0.269 C 
HETATM   21  C   UNL     1      24.391  47.367  40.590  1.00  0.00     0.269 C 
ENDBRANCH  17  18
ENDBRANCH  16  17
ENDBRANCH  13  16
ENDBRANCH  11  12
ENDBRANCH   6  11
BRANCH   7  22
HETATM   22  C   UNL     1      23.427  44.070  49.000  1.00  0.00    -0.030 A 
HETATM   23  C   UNL     1      23.201  43.881  50.365  1.00  0.00     0.010 A 
HETATM   24  C   UNL     1      24.112  44.396  51.307  1.00  0.00     0.008 A 
HETATM   25  C   UNL     1      25.268  45.091  50.912  1.00  0.00    -0.055 A 
HETATM   26  C   UNL     1      25.553  45.172  49.551  1.00  0.00     0.008 A 
HETATM   27  C   UNL     1      24.642  44.689  48.613  1.00  0.00     0.010 A 
BRANCH  25  28
HETATM   28  C   UNL     1      26.153  45.770  51.951  1.00  0.00     0.010 C 
HETATM   29  C   UNL     1      26.073  47.291  51.833  1.00  0.00     0.015 C 
HETATM   30  C   UNL     1      25.840  45.335  53.392  1.00  0.00     0.015 C 
ENDBRANCH  25  28
ENDBRANCH   7  22
BRANCH  10  31
HETATM   31  C   UNL     1      21.590  46.323  47.524  1.00  0.00     0.256 C 
HETATM   32  N   UNL     1      21.749  47.016  48.694  1.00  0.00    -0.323 N 
HETATM   33  H   UNL     1      21.594  46.554  49.581  1.00  0.00     0.169 HD
HETATM   34  O   UNL     1      21.862  46.730  46.393  1.00  0.00    -0.267 OA
BRANCH  32  35
HETATM   35  C   UNL     1      22.253  48.332  48.824  1.00  0.00     0.035 A 
HETATM   36  C   UNL     1      23.604  48.664  48.701  1.00  0.00     0.029 A 
HETATM   37  C   UNL     1      24.026  49.988  48.865  1.00  0.00     0.002 A 
HETATM   38  C   UNL     1      23.103  50.987  49.160  1.00  0.00     0.000 A 
HETATM   39  C   UNL     1      21.753  50.668  49.274  1.00  0.00     0.002 A 
HETATM   40  C   UNL     1      21.328  49.349  49.095  1.00  0.00     0.029 A 
ENDBRANCH  32  35
ENDBRANCH  10  31
TORSDOF 9
ENDMDL
