MODEL 1
REMARK VINA RESULT:      -9.6      0.000      0.000
REMARK  9 active torsions:
REMARK  status: ('A' for Active; 'I' for Inactive)
REMARK    1  A    between atoms: O_2  and  C_3 
REMARK    2  A    between atoms: C_6  and  C_7 
REMARK    3  A    between atoms: C_8  and  C_9 
REMARK    4  A    between atoms: C_9  and  O_10 
REMARK    5  A    between atoms: O_10  and  C_11 
REMARK    6  A    between atoms: C_14  and  C_15 
REMARK    7  A    between atoms: C_17  and  O_18 
REMARK    8  A    between atoms: N_26  and  C_28 
REMARK    9  A    between atoms: C_28  and  C_29 
ROOT
HETATM    1  C   UNL     1      22.741  44.820  48.133  1.00  0.00     0.243 C 
HETATM    2  N   UNL     1      22.362  43.670  48.997  1.00  0.00    -0.235 NA
HETATM    3  C   UNL     1      23.090  43.548  50.049  1.00  0.00     0.173 C 
HETATM    4  C   UNL     1      24.243  44.359  50.354  1.00  0.00     0.057 A 
HETATM    5  C   UNL     1      24.779  45.067  49.305  1.00  0.00     0.087 A 
HETATM    6  S   UNL     1      26.153  45.958  49.735  1.00  0.00    -0.074 SA
HETATM    7  C   UNL     1      25.990  45.495  51.366  1.00  0.00     0.018 A 
HETATM    8  C   UNL     1      24.933  44.621  51.573  1.00  0.00    -0.024 A 
HETATM    9  C   UNL     1      24.598  44.103  52.938  1.00  0.00     0.068 C 
HETATM   10  C   UNL     1      25.272  44.946  54.035  1.00  0.00     0.240 C 
HETATM   11  N   UNL     1      26.742  45.234  53.722  1.00  0.00    -0.063 N 
HETATM   12  H   UNL     1      27.083  45.835  54.478  1.00  0.00     0.280 HD
HETATM   13  C   UNL     1      26.872  46.040  52.436  1.00  0.00     0.282 C 
HETATM   14  N   UNL     1      24.193  45.052  48.089  1.00  0.00    -0.357 N 
HETATM   15  H   UNL     1      24.496  45.718  47.388  1.00  0.00     0.162 HD
ENDROOT
BRANCH   1  16
HETATM   16  C   UNL     1      22.022  46.118  48.561  1.00  0.00    -0.014 A 
HETATM   17  C   UNL     1      22.747  47.297  48.839  1.00  0.00     0.014 A 
HETATM   18  C   UNL     1      22.095  48.515  49.031  1.00  0.00     0.038 A 
HETATM   19  C   UNL     1      20.709  48.559  48.950  1.00  0.00     0.079 A 
HETATM   20  C   UNL     1      19.960  47.395  48.807  1.00  0.00     0.038 A 
HETATM   21  C   UNL     1      20.616  46.179  48.622  1.00  0.00     0.014 A 
BRANCH  19  22
HETATM   22  O   UNL     1      20.024  49.770  49.026  1.00  0.00    -0.276 OA
BRANCH  22  23
HETATM   23  C   UNL     1      19.086  49.777  50.044  1.00  0.00     0.288 C 
HETATM   24  O   UNL     1      19.179  49.270  51.156  1.00  0.00    -0.260 OA
BRANCH  23  25
HETATM   25  C   UNL     1      17.878  50.537  49.652  1.00  0.00     0.083 C 
HETATM   26  C   UNL     1      17.829  51.873  49.545  1.00  0.00     0.017 C 
BRANCH  26  27
HETATM   27  C   UNL     1      16.581  52.600  49.285  1.00  0.00    -0.036 A 
HETATM   28  C   UNL     1      15.986  52.483  48.025  1.00  0.00     0.014 A 
HETATM   29  C   UNL     1      14.801  53.165  47.737  1.00  0.00     0.037 A 
HETATM   30  C   UNL     1      14.184  53.960  48.704  1.00  0.00     0.068 A 
HETATM   31  C   UNL     1      14.764  54.068  49.967  1.00  0.00     0.037 A 
HETATM   32  C   UNL     1      15.955  53.388  50.258  1.00  0.00     0.014 A 
BRANCH  30  33
HETATM   33  O   UNL     1      13.035  54.571  48.289  1.00  0.00    -0.356 OA
HETATM   34  C   UNL     1      12.119  54.977  49.298  1.00  0.00     0.210 C 
ENDBRANCH  30  33
ENDBRANCH  26  27
ENDBRANCH  23  25
ENDBRANCH  22  23
ENDBRANCH  19  22
ENDBRANCH   1  16
BRANCH   3  35
HETATM   35  O   UNL     1      22.775  42.594  50.944  1.00  0.00    -0.344 OA
HETATM   36  H   UNL     1      22.865  43.000  51.824  1.00  0.00     0.219 HD
ENDBRANCH   3  35
BRANCH  11  37
HETATM   37  C   UNL     1      27.643  44.019  53.717  1.00  0.00     0.273 C 
BRANCH  37  38
HETATM   38  C   UNL     1      28.833  44.155  54.626  1.00  0.00    -0.033 A 
HETATM   39  C   UNL     1      29.779  43.121  54.710  1.00  0.00     0.009 A 
HETATM   40  C   UNL     1      30.865  43.225  55.579  1.00  0.00     0.001 A 
HETATM   41  C   UNL     1      31.019  44.361  56.371  1.00  0.00     0.000 A 
HETATM   42  C   UNL     1      30.093  45.398  56.289  1.00  0.00     0.001 A 
HETATM   43  C   UNL     1      29.005  45.300  55.419  1.00  0.00     0.009 A 
ENDBRANCH  37  38
ENDBRANCH  11  37
TORSDOF 9
ENDMDL
MODEL 2
REMARK VINA RESULT:      -9.3      4.863     12.545
REMARK  9 active torsions:
REMARK  status: ('A' for Active; 'I' for Inactive)
REMARK    1  A    between atoms: O_2  and  C_3 
REMARK    2  A    between atoms: C_6  and  C_7 
REMARK    3  A    between atoms: C_8  and  C_9 
REMARK    4  A    between atoms: C_9  and  O_10 
REMARK    5  A    between atoms: O_10  and  C_11 
REMARK    6  A    between atoms: C_14  and  C_15 
REMARK    7  A    between atoms: C_17  and  O_18 
REMARK    8  A    between atoms: N_26  and  C_28 
REMARK    9  A    between atoms: C_28  and  C_29 
ROOT
HETATM    1  C   UNL     1      19.065  49.807  50.458  1.00  0.00     0.243 C 
HETATM    2  N   UNL     1      18.410  48.472  50.427  1.00  0.00    -0.235 NA
HETATM    3  C   UNL     1      17.712  48.260  49.369  1.00  0.00     0.173 C 
HETATM    4  C   UNL     1      17.470  49.232  48.331  1.00  0.00     0.057 A 
HETATM    5  C   UNL     1      17.718  50.543  48.661  1.00  0.00     0.087 A 
HETATM    6  S   UNL     1      17.368  51.624  47.404  1.00  0.00    -0.074 SA
HETATM    7  C   UNL     1      16.979  50.339  46.356  1.00  0.00     0.018 A 
HETATM    8  C   UNL     1      17.056  49.099  46.974  1.00  0.00    -0.024 A 
HETATM    9  C   UNL     1      16.773  47.832  46.228  1.00  0.00     0.068 C 
HETATM   10  C   UNL     1      16.801  48.061  44.707  1.00  0.00     0.240 C 
HETATM   11  N   UNL     1      16.029  49.317  44.298  1.00  0.00    -0.063 N 
HETATM   12  H   UNL     1      16.148  49.409  43.284  1.00  0.00     0.280 HD
HETATM   13  C   UNL     1      16.652  50.561  44.920  1.00  0.00     0.282 C 
HETATM   14  N   UNL     1      18.237  50.868  49.864  1.00  0.00    -0.357 N 
HETATM   15  H   UNL     1      18.580  51.810  50.014  1.00  0.00     0.162 HD
ENDROOT
BRANCH   1  16
HETATM   16  C   UNL     1      20.447  49.782  49.771  1.00  0.00    -0.014 A 
HETATM   17  C   UNL     1      20.895  48.640  49.073  1.00  0.00     0.014 A 
HETATM   18  C   UNL     1      22.048  48.682  48.288  1.00  0.00     0.038 A 
HETATM   19  C   UNL     1      22.763  49.871  48.201  1.00  0.00     0.079 A 
HETATM   20  C   UNL     1      22.420  50.974  48.976  1.00  0.00     0.038 A 
HETATM   21  C   UNL     1      21.271  50.925  49.765  1.00  0.00     0.014 A 
BRANCH  19  22
HETATM   22  O   UNL     1      23.856  49.989  47.345  1.00  0.00    -0.276 OA
BRANCH  22  23
HETATM   23  C   UNL     1      25.056  49.757  47.993  1.00  0.00     0.288 C 
HETATM   24  O   UNL     1      26.155  50.232  47.734  1.00  0.00    -0.260 OA
BRANCH  23  25
HETATM   25  C   UNL     1      24.876  48.835  49.137  1.00  0.00     0.083 C 
HETATM   26  C   UNL     1      25.811  47.977  49.569  1.00  0.00     0.017 C 
BRANCH  26  27
HETATM   27  C   UNL     1      25.552  46.986  50.618  1.00  0.00    -0.036 A 
HETATM   28  C   UNL     1      26.117  47.183  51.882  1.00  0.00     0.014 A 
HETATM   29  C   UNL     1      25.899  46.259  52.907  1.00  0.00     0.037 A 
HETATM   30  C   UNL     1      25.102  45.133  52.692  1.00  0.00     0.068 A 
HETATM   31  C   UNL     1      24.522  44.939  51.439  1.00  0.00     0.037 A 
HETATM   32  C   UNL     1      24.743  45.863  50.409  1.00  0.00     0.014 A 
BRANCH  30  33
HETATM   33  O   UNL     1      24.974  44.312  53.776  1.00  0.00    -0.356 OA
HETATM   34  C   UNL     1      26.156  44.032  54.516  1.00  0.00     0.210 C 
ENDBRANCH  30  33
ENDBRANCH  26  27
ENDBRANCH  23  25
ENDBRANCH  22  23
ENDBRANCH  19  22
ENDBRANCH   1  16
BRANCH   3  35
HETATM   35  O   UNL     1      17.150  47.049  49.198  1.00  0.00    -0.344 OA
HETATM   36  H   UNL     1      16.219  47.136  49.468  1.00  0.00     0.219 HD
ENDBRANCH   3  35
BRANCH  11  37
HETATM   37  C   UNL     1      14.538  49.256  44.538  1.00  0.00     0.273 C 
BRANCH  37  38
HETATM   38  C   UNL     1      13.878  48.063  43.903  1.00  0.00    -0.033 A 
HETATM   39  C   UNL     1      13.140  47.163  44.687  1.00  0.00     0.009 A 
HETATM   40  C   UNL     1      12.558  46.034  44.110  1.00  0.00     0.001 A 
HETATM   41  C   UNL     1      12.706  45.794  42.746  1.00  0.00     0.000 A 
HETATM   42  C   UNL     1      13.427  46.685  41.954  1.00  0.00     0.001 A 
HETATM   43  C   UNL     1      14.009  47.817  42.527  1.00  0.00     0.009 A 
ENDBRANCH  37  38
ENDBRANCH  11  37
TORSDOF 9
ENDMDL
MODEL 3
REMARK VINA RESULT:      -9.3      3.896     12.823
REMARK  9 active torsions:
REMARK  status: ('A' for Active; 'I' for Inactive)
REMARK    1  A    between atoms: O_2  and  C_3 
REMARK    2  A    between atoms: C_6  and  C_7 
REMARK    3  A    between atoms: C_8  and  C_9 
REMARK    4  A    between atoms: C_9  and  O_10 
REMARK    5  A    between atoms: O_10  and  C_11 
REMARK    6  A    between atoms: C_14  and  C_15 
REMARK    7  A    between atoms: C_17  and  O_18 
REMARK    8  A    between atoms: N_26  and  C_28 
REMARK    9  A    between atoms: C_28  and  C_29 
ROOT
HETATM    1  C   UNL     1      20.078  49.778  50.167  1.00  0.00     0.243 C 
HETATM    2  N   UNL     1      19.182  48.643  49.821  1.00  0.00    -0.235 NA
HETATM    3  C   UNL     1      18.339  48.911  48.889  1.00  0.00     0.173 C 
HETATM    4  C   UNL     1      18.167  50.206  48.279  1.00  0.00     0.057 A 
HETATM    5  C   UNL     1      18.696  51.273  48.965  1.00  0.00     0.087 A 
HETATM    6  S   UNL     1      18.415  52.761  48.205  1.00  0.00    -0.074 SA
HETATM    7  C   UNL     1      17.670  51.987  46.883  1.00  0.00     0.018 A 
HETATM    8  C   UNL     1      17.582  50.613  47.044  1.00  0.00    -0.024 A 
HETATM    9  C   UNL     1      16.978  49.736  45.991  1.00  0.00     0.068 C 
HETATM   10  C   UNL     1      16.873  50.473  44.645  1.00  0.00     0.240 C 
HETATM   11  N   UNL     1      16.312  51.888  44.803  1.00  0.00    -0.063 N 
HETATM   12  H   UNL     1      16.327  52.308  43.868  1.00  0.00     0.280 HD
HETATM   13  C   UNL     1      17.227  52.738  45.675  1.00  0.00     0.282 C 
HETATM   14  N   UNL     1      19.403  51.084  50.100  1.00  0.00    -0.357 N 
HETATM   15  H   UNL     1      19.934  51.857  50.483  1.00  0.00     0.162 HD
ENDROOT
BRANCH   1  16
HETATM   16  C   UNL     1      21.341  49.802  49.279  1.00  0.00    -0.014 A 
HETATM   17  C   UNL     1      22.049  51.000  49.047  1.00  0.00     0.014 A 
HETATM   18  C   UNL     1      23.293  50.992  48.414  1.00  0.00     0.038 A 
HETATM   19  C   UNL     1      23.833  49.779  48.005  1.00  0.00     0.079 A 
HETATM   20  C   UNL     1      23.105  48.598  48.102  1.00  0.00     0.038 A 
HETATM   21  C   UNL     1      21.859  48.613  48.729  1.00  0.00     0.014 A 
BRANCH  19  22
HETATM   22  O   UNL     1      25.117  49.711  47.469  1.00  0.00    -0.276 OA
BRANCH  22  23
HETATM   23  C   UNL     1      26.085  49.560  48.446  1.00  0.00     0.288 C 
HETATM   24  O   UNL     1      27.173  50.120  48.519  1.00  0.00    -0.260 OA
BRANCH  23  25
HETATM   25  C   UNL     1      25.644  48.612  49.493  1.00  0.00     0.083 C 
HETATM   26  C   UNL     1      26.479  47.915  50.279  1.00  0.00     0.017 C 
BRANCH  26  27
HETATM   27  C   UNL     1      26.011  46.886  51.214  1.00  0.00    -0.036 A 
HETATM   28  C   UNL     1      26.313  47.026  52.572  1.00  0.00     0.014 A 
HETATM   29  C   UNL     1      25.890  46.065  53.493  1.00  0.00     0.037 A 
HETATM   30  C   UNL     1      25.147  44.959  53.077  1.00  0.00     0.068 A 
HETATM   31  C   UNL     1      24.828  44.822  51.727  1.00  0.00     0.037 A 
HETATM   32  C   UNL     1      25.254  45.784  50.801  1.00  0.00     0.014 A 
BRANCH  30  33
HETATM   33  O   UNL     1      24.802  44.097  54.080  1.00  0.00    -0.356 OA
HETATM   34  C   UNL     1      25.826  43.727  54.994  1.00  0.00     0.210 C 
ENDBRANCH  30  33
ENDBRANCH  26  27
ENDBRANCH  23  25
ENDBRANCH  22  23
ENDBRANCH  19  22
ENDBRANCH   1  16
BRANCH   3  35
HETATM   35  O   UNL     1      17.541  47.926  48.437  1.00  0.00    -0.344 OA
HETATM   36  H   UNL     1      17.190  47.473  49.223  1.00  0.00     0.219 HD
ENDBRANCH   3  35
BRANCH  11  37
HETATM   37  C   UNL     1      14.874  51.955  45.266  1.00  0.00     0.273 C 
BRANCH  37  38
HETATM   38  C   UNL     1      14.431  53.344  45.639  1.00  0.00    -0.033 A 
HETATM   39  C   UNL     1      14.224  53.681  46.985  1.00  0.00     0.009 A 
HETATM   40  C   UNL     1      13.776  54.956  47.334  1.00  0.00     0.001 A 
HETATM   41  C   UNL     1      13.532  55.905  46.344  1.00  0.00     0.000 A 
HETATM   42  C   UNL     1      13.744  55.586  45.005  1.00  0.00     0.001 A 
HETATM   43  C   UNL     1      14.193  54.312  44.651  1.00  0.00     0.009 A 
ENDBRANCH  37  38
ENDBRANCH  11  37
TORSDOF 9
ENDMDL
MODEL 4
REMARK VINA RESULT:      -9.2      4.699      8.048
REMARK  9 active torsions:
REMARK  status: ('A' for Active; 'I' for Inactive)
REMARK    1  A    between atoms: O_2  and  C_3 
REMARK    2  A    between atoms: C_6  and  C_7 
REMARK    3  A    between atoms: C_8  and  C_9 
REMARK    4  A    between atoms: C_9  and  O_10 
REMARK    5  A    between atoms: O_10  and  C_11 
REMARK    6  A    between atoms: C_14  and  C_15 
REMARK    7  A    between atoms: C_17  and  O_18 
REMARK    8  A    between atoms: N_26  and  C_28 
REMARK    9  A    between atoms: C_28  and  C_29 
ROOT
HETATM    1  C   UNL     1      15.838  49.569  47.355  1.00  0.00     0.243 C 
HETATM    2  N   UNL     1      16.091  48.657  48.502  1.00  0.00    -0.235 NA
HETATM    3  C   UNL     1      17.327  48.593  48.853  1.00  0.00     0.173 C 
HETATM    4  C   UNL     1      18.415  49.242  48.163  1.00  0.00     0.057 A 
HETATM    5  C   UNL     1      18.152  49.667  46.883  1.00  0.00     0.087 A 
HETATM    6  S   UNL     1      19.491  50.379  46.129  1.00  0.00    -0.074 SA
HETATM    7  C   UNL     1      20.420  50.226  47.549  1.00  0.00     0.018 A 
HETATM    8  C   UNL     1      19.736  49.585  48.571  1.00  0.00    -0.024 A 
HETATM    9  C   UNL     1      20.361  49.364  49.914  1.00  0.00     0.068 C 
HETATM   10  C   UNL     1      21.600  50.255  50.107  1.00  0.00     0.240 C 
HETATM   11  N   UNL     1      22.518  50.240  48.882  1.00  0.00    -0.063 N 
HETATM   12  H   UNL     1      23.280  50.894  49.087  1.00  0.00     0.280 HD
HETATM   13  C   UNL     1      21.795  50.789  47.658  1.00  0.00     0.282 C 
HETATM   14  N   UNL     1      16.916  49.547  46.354  1.00  0.00    -0.357 N 
HETATM   15  H   UNL     1      16.702  50.029  45.488  1.00  0.00     0.162 HD
ENDROOT
BRANCH   1  16
HETATM   16  C   UNL     1      15.594  51.020  47.821  1.00  0.00    -0.014 A 
HETATM   17  C   UNL     1      15.204  52.025  46.909  1.00  0.00     0.014 A 
HETATM   18  C   UNL     1      14.792  53.282  47.354  1.00  0.00     0.038 A 
HETATM   19  C   UNL     1      14.773  53.541  48.719  1.00  0.00     0.079 A 
HETATM   20  C   UNL     1      15.272  52.620  49.634  1.00  0.00     0.038 A 
HETATM   21  C   UNL     1      15.690  51.367  49.183  1.00  0.00     0.014 A 
BRANCH  19  22
HETATM   22  O   UNL     1      14.267  54.742  49.214  1.00  0.00    -0.276 OA
BRANCH  22  23
HETATM   23  C   UNL     1      13.419  54.548  50.290  1.00  0.00     0.288 C 
HETATM   24  O   UNL     1      12.539  53.704  50.412  1.00  0.00    -0.260 OA
BRANCH  23  25
HETATM   25  C   UNL     1      13.710  55.507  51.379  1.00  0.00     0.083 C 
HETATM   26  C   UNL     1      14.606  56.501  51.289  1.00  0.00     0.017 C 
BRANCH  26  27
HETATM   27  C   UNL     1      14.966  57.348  52.432  1.00  0.00    -0.036 A 
HETATM   28  C   UNL     1      15.510  56.744  53.569  1.00  0.00     0.014 A 
HETATM   29  C   UNL     1      15.860  57.515  54.680  1.00  0.00     0.037 A 
HETATM   30  C   UNL     1      15.687  58.900  54.668  1.00  0.00     0.068 A 
HETATM   31  C   UNL     1      15.160  59.510  53.531  1.00  0.00     0.037 A 
HETATM   32  C   UNL     1      14.805  58.738  52.417  1.00  0.00     0.014 A 
BRANCH  30  33
HETATM   33  O   UNL     1      16.067  59.530  55.820  1.00  0.00    -0.356 OA
HETATM   34  C   UNL     1      16.614  60.837  55.690  1.00  0.00     0.210 C 
ENDBRANCH  30  33
ENDBRANCH  26  27
ENDBRANCH  23  25
ENDBRANCH  22  23
ENDBRANCH  19  22
ENDBRANCH   1  16
BRANCH   3  35
HETATM   35  O   UNL     1      17.653  47.866  49.936  1.00  0.00    -0.344 OA
HETATM   36  H   UNL     1      17.850  46.968  49.618  1.00  0.00     0.219 HD
ENDBRANCH   3  35
BRANCH  11  37
HETATM   37  C   UNL     1      23.178  48.910  48.595  1.00  0.00     0.273 C 
BRANCH  37  38
HETATM   38  C   UNL     1      24.669  48.927  48.794  1.00  0.00    -0.033 A 
HETATM   39  C   UNL     1      25.283  47.966  49.613  1.00  0.00     0.009 A 
HETATM   40  C   UNL     1      26.660  48.000  49.832  1.00  0.00     0.001 A 
HETATM   41  C   UNL     1      27.437  48.991  49.235  1.00  0.00     0.000 A 
HETATM   42  C   UNL     1      26.841  49.943  48.412  1.00  0.00     0.001 A 
HETATM   43  C   UNL     1      25.463  49.913  48.188  1.00  0.00     0.009 A 
ENDBRANCH  37  38
ENDBRANCH  11  37
TORSDOF 9
ENDMDL
MODEL 5
REMARK VINA RESULT:      -9.1      6.782      9.992
REMARK  9 active torsions:
REMARK  status: ('A' for Active; 'I' for Inactive)
REMARK    1  A    between atoms: O_2  and  C_3 
REMARK    2  A    between atoms: C_6  and  C_7 
REMARK    3  A    between atoms: C_8  and  C_9 
REMARK    4  A    between atoms: C_9  and  O_10 
REMARK    5  A    between atoms: O_10  and  C_11 
REMARK    6  A    between atoms: C_14  and  C_15 
REMARK    7  A    between atoms: C_17  and  O_18 
REMARK    8  A    between atoms: N_26  and  C_28 
REMARK    9  A    between atoms: C_28  and  C_29 
ROOT
HETATM    1  C   UNL     1      24.070  45.313  49.361  1.00  0.00     0.243 C 
HETATM    2  N   UNL     1      25.392  45.799  48.883  1.00  0.00    -0.235 NA
HETATM    3  C   UNL     1      26.348  45.618  49.724  1.00  0.00     0.173 C 
HETATM    4  C   UNL     1      26.185  45.094  51.057  1.00  0.00     0.057 A 
HETATM    5  C   UNL     1      24.907  45.110  51.562  1.00  0.00     0.087 A 
HETATM    6  S   UNL     1      24.808  44.519  53.146  1.00  0.00    -0.074 SA
HETATM    7  C   UNL     1      26.467  44.129  53.145  1.00  0.00     0.018 A 
HETATM    8  C   UNL     1      27.105  44.500  51.970  1.00  0.00    -0.024 A 
HETATM    9  C   UNL     1      28.562  44.233  51.751  1.00  0.00     0.068 C 
HETATM   10  C   UNL     1      29.096  43.195  52.753  1.00  0.00     0.240 C 
HETATM   11  N   UNL     1      28.631  43.481  54.183  1.00  0.00    -0.063 N 
HETATM   12  H   UNL     1      28.993  42.716  54.760  1.00  0.00     0.280 HD
HETATM   13  C   UNL     1      27.112  43.413  54.281  1.00  0.00     0.282 C 
HETATM   14  N   UNL     1      23.868  45.520  50.803  1.00  0.00    -0.357 N 
HETATM   15  H   UNL     1      22.924  45.351  51.129  1.00  0.00     0.162 HD
ENDROOT
BRANCH   1  16
HETATM   16  C   UNL     1      23.850  43.824  49.015  1.00  0.00    -0.014 A 
HETATM   17  C   UNL     1      22.841  43.069  49.651  1.00  0.00     0.014 A 
HETATM   18  C   UNL     1      22.510  41.789  49.204  1.00  0.00     0.038 A 
HETATM   19  C   UNL     1      23.192  41.256  48.116  1.00  0.00     0.079 A 
HETATM   20  C   UNL     1      24.275  41.921  47.551  1.00  0.00     0.038 A 
HETATM   21  C   UNL     1      24.607  43.197  48.007  1.00  0.00     0.014 A 
BRANCH  19  22
HETATM   22  O   UNL     1      22.821  40.030  47.568  1.00  0.00    -0.276 OA
BRANCH  22  23
HETATM   23  C   UNL     1      21.582  40.084  46.955  1.00  0.00     0.288 C 
HETATM   24  O   UNL     1      21.036  41.056  46.446  1.00  0.00    -0.260 OA
BRANCH  23  25
HETATM   25  C   UNL     1      20.935  38.753  46.940  1.00  0.00     0.083 C 
HETATM   26  C   UNL     1      19.677  38.521  47.341  1.00  0.00     0.017 C 
BRANCH  26  27
HETATM   27  C   UNL     1      19.113  37.171  47.438  1.00  0.00    -0.036 A 
HETATM   28  C   UNL     1      19.448  36.231  46.458  1.00  0.00     0.014 A 
HETATM   29  C   UNL     1      18.928  34.936  46.512  1.00  0.00     0.037 A 
HETATM   30  C   UNL     1      18.078  34.553  47.551  1.00  0.00     0.068 A 
HETATM   31  C   UNL     1      17.753  35.480  48.540  1.00  0.00     0.037 A 
HETATM   32  C   UNL     1      18.271  36.781  48.486  1.00  0.00     0.014 A 
BRANCH  30  33
HETATM   33  O   UNL     1      17.640  33.261  47.480  1.00  0.00    -0.356 OA
HETATM   34  C   UNL     1      18.443  32.272  48.111  1.00  0.00     0.210 C 
ENDBRANCH  30  33
ENDBRANCH  26  27
ENDBRANCH  23  25
ENDBRANCH  22  23
ENDBRANCH  19  22
ENDBRANCH   1  16
BRANCH   3  35
HETATM   35  O   UNL     1      27.601  45.940  49.355  1.00  0.00    -0.344 OA
HETATM   36  H   UNL     1      27.685  46.902  49.473  1.00  0.00     0.219 HD
ENDBRANCH   3  35
BRANCH  11  37
HETATM   37  C   UNL     1      29.176  44.755  54.789  1.00  0.00     0.273 C 
BRANCH  37  38
HETATM   38  C   UNL     1      30.120  44.515  55.935  1.00  0.00    -0.033 A 
HETATM   39  C   UNL     1      31.000  43.421  55.909  1.00  0.00     0.009 A 
HETATM   40  C   UNL     1      31.851  43.172  56.986  1.00  0.00     0.001 A 
HETATM   41  C   UNL     1      31.833  44.011  58.097  1.00  0.00     0.000 A 
HETATM   42  C   UNL     1      30.972  45.106  58.132  1.00  0.00     0.001 A 
HETATM   43  C   UNL     1      30.120  45.361  57.055  1.00  0.00     0.009 A 
ENDBRANCH  37  38
ENDBRANCH  11  37
TORSDOF 9
ENDMDL
MODEL 6
REMARK VINA RESULT:      -9.0      6.714     10.948
REMARK  9 active torsions:
REMARK  status: ('A' for Active; 'I' for Inactive)
REMARK    1  A    between atoms: O_2  and  C_3 
REMARK    2  A    between atoms: C_6  and  C_7 
REMARK    3  A    between atoms: C_8  and  C_9 
REMARK    4  A    between atoms: C_9  and  O_10 
REMARK    5  A    between atoms: O_10  and  C_11 
REMARK    6  A    between atoms: C_14  and  C_15 
REMARK    7  A    between atoms: C_17  and  O_18 
REMARK    8  A    between atoms: N_26  and  C_28 
REMARK    9  A    between atoms: C_28  and  C_29 
ROOT
HETATM    1  C   UNL     1      23.880  45.383  49.198  1.00  0.00     0.243 C 
HETATM    2  N   UNL     1      25.172  45.977  48.764  1.00  0.00    -0.235 NA
HETATM    3  C   UNL     1      26.136  45.787  49.593  1.00  0.00     0.173 C 
HETATM    4  C   UNL     1      26.003  45.157  50.883  1.00  0.00     0.057 A 
HETATM    5  C   UNL     1      24.726  45.063  51.382  1.00  0.00     0.087 A 
HETATM    6  S   UNL     1      24.661  44.350  52.917  1.00  0.00    -0.074 SA
HETATM    7  C   UNL     1      26.339  44.055  52.894  1.00  0.00     0.018 A 
HETATM    8  C   UNL     1      26.955  44.548  51.753  1.00  0.00    -0.024 A 
HETATM    9  C   UNL     1      28.425  44.380  51.520  1.00  0.00     0.068 C 
HETATM   10  C   UNL     1      29.016  43.302  52.444  1.00  0.00     0.240 C 
HETATM   11  N   UNL     1      28.536  43.453  53.889  1.00  0.00    -0.063 N 
HETATM   12  H   UNL     1      28.941  42.668  54.409  1.00  0.00     0.280 HD
HETATM   13  C   UNL     1      27.023  43.293  53.975  1.00  0.00     0.282 C 
HETATM   14  N   UNL     1      23.666  45.470  50.652  1.00  0.00    -0.357 N 
HETATM   15  H   UNL     1      22.733  45.224  50.960  1.00  0.00     0.162 HD
ENDROOT
BRANCH   1  16
HETATM   16  C   UNL     1      23.743  43.914  48.742  1.00  0.00    -0.014 A 
HETATM   17  C   UNL     1      23.429  42.890  49.660  1.00  0.00     0.014 A 
HETATM   18  C   UNL     1      23.111  41.603  49.223  1.00  0.00     0.038 A 
HETATM   19  C   UNL     1      23.110  41.334  47.860  1.00  0.00     0.079 A 
HETATM   20  C   UNL     1      23.539  42.285  46.940  1.00  0.00     0.038 A 
HETATM   21  C   UNL     1      23.863  43.567  47.382  1.00  0.00     0.014 A 
BRANCH  19  22
HETATM   22  O   UNL     1      22.694  40.097  47.374  1.00  0.00    -0.276 OA
BRANCH  22  23
HETATM   23  C   UNL     1      23.671  39.477  46.616  1.00  0.00     0.288 C 
HETATM   24  O   UNL     1      23.675  39.286  45.405  1.00  0.00    -0.260 OA
BRANCH  23  25
HETATM   25  C   UNL     1      24.815  39.059  47.456  1.00  0.00     0.083 C 
HETATM   26  C   UNL     1      26.049  39.576  47.362  1.00  0.00     0.017 C 
BRANCH  26  27
HETATM   27  C   UNL     1      27.189  39.045  48.116  1.00  0.00    -0.036 A 
HETATM   28  C   UNL     1      27.029  37.846  48.818  1.00  0.00     0.014 A 
HETATM   29  C   UNL     1      28.089  37.310  49.553  1.00  0.00     0.037 A 
HETATM   30  C   UNL     1      29.328  37.953  49.588  1.00  0.00     0.068 A 
HETATM   31  C   UNL     1      29.499  39.140  48.877  1.00  0.00     0.037 A 
HETATM   32  C   UNL     1      28.435  39.681  48.142  1.00  0.00     0.014 A 
BRANCH  30  33
HETATM   33  O   UNL     1      30.274  37.323  50.347  1.00  0.00    -0.356 OA
HETATM   34  C   UNL     1      29.833  36.719  51.556  1.00  0.00     0.210 C 
ENDBRANCH  30  33
ENDBRANCH  26  27
ENDBRANCH  23  25
ENDBRANCH  22  23
ENDBRANCH  19  22
ENDBRANCH   1  16
BRANCH   3  35
HETATM   35  O   UNL     1      27.369  46.206  49.255  1.00  0.00    -0.344 OA
HETATM   36  H   UNL     1      27.358  47.177  49.317  1.00  0.00     0.219 HD
ENDBRANCH   3  35
BRANCH  11  37
HETATM   37  C   UNL     1      29.009  44.706  54.591  1.00  0.00     0.273 C 
BRANCH  37  38
HETATM   38  C   UNL     1      29.925  44.432  55.752  1.00  0.00    -0.033 A 
HETATM   39  C   UNL     1      30.015  45.346  56.813  1.00  0.00     0.009 A 
HETATM   40  C   UNL     1      30.892  45.116  57.873  1.00  0.00     0.001 A 
HETATM   41  C   UNL     1      31.685  43.971  57.886  1.00  0.00     0.000 A 
HETATM   42  C   UNL     1      31.598  43.050  56.844  1.00  0.00     0.001 A 
HETATM   43  C   UNL     1      30.721  43.276  55.782  1.00  0.00     0.009 A 
ENDBRANCH  37  38
ENDBRANCH  11  37
TORSDOF 9
ENDMDL
MODEL 7
REMARK VINA RESULT:      -8.9      6.527     11.283
REMARK  9 active torsions:
REMARK  status: ('A' for Active; 'I' for Inactive)
REMARK    1  A    between atoms: O_2  and  C_3 
REMARK    2  A    between atoms: C_6  and  C_7 
REMARK    3  A    between atoms: C_8  and  C_9 
REMARK    4  A    between atoms: C_9  and  O_10 
REMARK    5  A    between atoms: O_10  and  C_11 
REMARK    6  A    between atoms: C_14  and  C_15 
REMARK    7  A    between atoms: C_17  and  O_18 
REMARK    8  A    between atoms: N_26  and  C_28 
REMARK    9  A    between atoms: C_28  and  C_29 
ROOT
HETATM    1  C   UNL     1      26.490  40.868  50.616  1.00  0.00     0.243 C 
HETATM    2  N   UNL     1      27.928  40.672  50.292  1.00  0.00    -0.235 NA
HETATM    3  C   UNL     1      28.157  40.463  49.045  1.00  0.00     0.173 C 
HETATM    4  C   UNL     1      27.140  40.316  48.033  1.00  0.00     0.057 A 
HETATM    5  C   UNL     1      25.869  40.053  48.485  1.00  0.00     0.087 A 
HETATM    6  S   UNL     1      24.744  39.853  47.235  1.00  0.00    -0.074 SA
HETATM    7  C   UNL     1      25.924  40.223  46.063  1.00  0.00     0.018 A 
HETATM    8  C   UNL     1      27.178  40.440  46.613  1.00  0.00    -0.024 A 
HETATM    9  C   UNL     1      28.357  40.798  45.762  1.00  0.00     0.068 C 
HETATM   10  C   UNL     1      27.915  41.270  44.366  1.00  0.00     0.240 C 
HETATM   11  N   UNL     1      26.848  40.355  43.759  1.00  0.00    -0.063 N 
HETATM   12  H   UNL     1      26.587  40.777  42.862  1.00  0.00     0.280 HD
HETATM   13  C   UNL     1      25.589  40.349  44.617  1.00  0.00     0.282 C 
HETATM   14  N   UNL     1      25.599  40.021  49.807  1.00  0.00    -0.357 N 
HETATM   15  H   UNL     1      24.632  40.009  50.112  1.00  0.00     0.162 HD
ENDROOT
BRANCH   1  16
HETATM   16  C   UNL     1      26.068  42.346  50.475  1.00  0.00    -0.014 A 
HETATM   17  C   UNL     1      26.977  43.326  50.023  1.00  0.00     0.014 A 
HETATM   18  C   UNL     1      26.549  44.616  49.707  1.00  0.00     0.038 A 
HETATM   19  C   UNL     1      25.204  44.933  49.847  1.00  0.00     0.079 A 
HETATM   20  C   UNL     1      24.307  44.032  50.411  1.00  0.00     0.038 A 
HETATM   21  C   UNL     1      24.741  42.746  50.732  1.00  0.00     0.014 A 
BRANCH  19  22
HETATM   22  O   UNL     1      24.713  46.173  49.441  1.00  0.00    -0.276 OA
BRANCH  22  23
HETATM   23  C   UNL     1      24.876  47.144  50.413  1.00  0.00     0.288 C 
HETATM   24  O   UNL     1      24.299  48.221  50.504  1.00  0.00    -0.260 OA
BRANCH  23  25
HETATM   25  C   UNL     1      25.864  46.721  51.431  1.00  0.00     0.083 C 
HETATM   26  C   UNL     1      25.632  46.721  52.752  1.00  0.00     0.017 C 
BRANCH  26  27
HETATM   27  C   UNL     1      26.676  46.424  53.739  1.00  0.00    -0.036 A 
HETATM   28  C   UNL     1      27.306  45.177  53.694  1.00  0.00     0.014 A 
HETATM   29  C   UNL     1      28.302  44.854  54.620  1.00  0.00     0.037 A 
HETATM   30  C   UNL     1      28.694  45.775  55.593  1.00  0.00     0.068 A 
HETATM   31  C   UNL     1      28.082  47.026  55.632  1.00  0.00     0.037 A 
HETATM   32  C   UNL     1      27.080  47.351  54.707  1.00  0.00     0.014 A 
BRANCH  30  33
HETATM   33  O   UNL     1      29.674  45.329  56.434  1.00  0.00    -0.356 OA
HETATM   34  C   UNL     1      30.613  44.404  55.899  1.00  0.00     0.210 C 
ENDBRANCH  30  33
ENDBRANCH  26  27
ENDBRANCH  23  25
ENDBRANCH  22  23
ENDBRANCH  19  22
ENDBRANCH   1  16
BRANCH   3  35
HETATM   35  O   UNL     1      29.433  40.362  48.631  1.00  0.00    -0.344 OA
HETATM   36  H   UNL     1      29.419  40.467  47.663  1.00  0.00     0.219 HD
ENDBRANCH   3  35
BRANCH  11  37
HETATM   37  C   UNL     1      27.317  38.953  43.439  1.00  0.00     0.273 C 
BRANCH  37  38
HETATM   38  C   UNL     1      28.617  38.915  42.685  1.00  0.00    -0.033 A 
HETATM   39  C   UNL     1      28.674  39.355  41.353  1.00  0.00     0.009 A 
HETATM   40  C   UNL     1      29.869  39.286  40.636  1.00  0.00     0.001 A 
HETATM   41  C   UNL     1      31.017  38.780  41.241  1.00  0.00     0.000 A 
HETATM   42  C   UNL     1      30.976  38.350  42.565  1.00  0.00     0.001 A 
HETATM   43  C   UNL     1      29.783  38.418  43.287  1.00  0.00     0.009 A 
ENDBRANCH  37  38
ENDBRANCH  11  37
TORSDOF 9
ENDMDL
MODEL 8
REMARK VINA RESULT:      -8.9     21.566     25.849
REMARK  9 active torsions:
REMARK  status: ('A' for Active; 'I' for Inactive)
REMARK    1  A    between atoms: O_2  and  C_3 
REMARK    2  A    between atoms: C_6  and  C_7 
REMARK    3  A    between atoms: C_8  and  C_9 
REMARK    4  A    between atoms: C_9  and  O_10 
REMARK    5  A    between atoms: O_10  and  C_11 
REMARK    6  A    between atoms: C_14  and  C_15 
REMARK    7  A    between atoms: C_17  and  O_18 
REMARK    8  A    between atoms: N_26  and  C_28 
REMARK    9  A    between atoms: C_28  and  C_29 
ROOT
HETATM    1  C   UNL     1      38.896  42.328  62.829  1.00  0.00     0.243 C 
HETATM    2  N   UNL     1      39.738  43.545  62.681  1.00  0.00    -0.235 NA
HETATM    3  C   UNL     1      39.395  44.512  63.456  1.00  0.00     0.173 C 
HETATM    4  C   UNL     1      38.245  44.504  64.326  1.00  0.00     0.057 A 
HETATM    5  C   UNL     1      37.291  43.552  64.059  1.00  0.00     0.087 A 
HETATM    6  S   UNL     1      35.956  43.637  65.098  1.00  0.00    -0.074 SA
HETATM    7  C   UNL     1      36.686  44.888  65.995  1.00  0.00     0.018 A 
HETATM    8  C   UNL     1      37.910  45.279  65.474  1.00  0.00    -0.024 A 
HETATM    9  C   UNL     1      38.732  46.351  66.121  1.00  0.00     0.068 C 
HETATM   10  C   UNL     1      38.258  46.625  67.559  1.00  0.00     0.240 C 
HETATM   11  N   UNL     1      36.735  46.739  67.654  1.00  0.00    -0.063 N 
HETATM   12  H   UNL     1      36.519  46.871  68.647  1.00  0.00     0.280 HD
HETATM   13  C   UNL     1      36.069  45.434  67.237  1.00  0.00     0.282 C 
HETATM   14  N   UNL     1      37.480  42.636  63.086  1.00  0.00    -0.357 N 
HETATM   15  H   UNL     1      36.855  41.840  63.030  1.00  0.00     0.162 HD
ENDROOT
BRANCH   1  16
HETATM   16  C   UNL     1      39.431  41.393  63.935  1.00  0.00    -0.014 A 
HETATM   17  C   UNL     1      38.737  40.219  64.298  1.00  0.00     0.014 A 
HETATM   18  C   UNL     1      39.313  39.275  65.150  1.00  0.00     0.038 A 
HETATM   19  C   UNL     1      40.590  39.506  65.648  1.00  0.00     0.079 A 
HETATM   20  C   UNL     1      41.246  40.710  65.413  1.00  0.00     0.038 A 
HETATM   21  C   UNL     1      40.663  41.653  64.567  1.00  0.00     0.014 A 
BRANCH  19  22
HETATM   22  O   UNL     1      41.246  38.543  66.412  1.00  0.00    -0.276 OA
BRANCH  22  23
HETATM   23  C   UNL     1      41.805  37.547  65.631  1.00  0.00     0.288 C 
HETATM   24  O   UNL     1      42.696  37.656  64.797  1.00  0.00    -0.260 OA
BRANCH  23  25
HETATM   25  C   UNL     1      41.206  36.229  65.938  1.00  0.00     0.083 C 
HETATM   26  C   UNL     1      39.986  36.059  66.468  1.00  0.00     0.017 C 
BRANCH  26  27
HETATM   27  C   UNL     1      39.479  34.747  66.883  1.00  0.00    -0.036 A 
HETATM   28  C   UNL     1      40.070  33.599  66.347  1.00  0.00     0.014 A 
HETATM   29  C   UNL     1      39.612  32.331  66.713  1.00  0.00     0.037 A 
HETATM   30  C   UNL     1      38.569  32.188  67.629  1.00  0.00     0.068 A 
HETATM   31  C   UNL     1      37.986  33.328  68.180  1.00  0.00     0.037 A 
HETATM   32  C   UNL     1      38.442  34.602  67.811  1.00  0.00     0.014 A 
BRANCH  30  33
HETATM   33  O   UNL     1      38.219  30.894  67.895  1.00  0.00    -0.356 OA
HETATM   34  C   UNL     1      38.517  29.927  66.896  1.00  0.00     0.210 C 
ENDBRANCH  30  33
ENDBRANCH  26  27
ENDBRANCH  23  25
ENDBRANCH  22  23
ENDBRANCH  19  22
ENDBRANCH   1  16
BRANCH   3  35
HETATM   35  O   UNL     1      40.147  45.627  63.466  1.00  0.00    -0.344 OA
HETATM   36  H   UNL     1      40.222  45.918  62.541  1.00  0.00     0.219 HD
ENDBRANCH   3  35
BRANCH  11  37
HETATM   37  C   UNL     1      36.138  47.929  66.936  1.00  0.00     0.273 C 
BRANCH  37  38
HETATM   38  C   UNL     1      36.915  49.200  67.138  1.00  0.00    -0.033 A 
HETATM   39  C   UNL     1      36.903  49.846  68.384  1.00  0.00     0.009 A 
HETATM   40  C   UNL     1      37.591  51.045  68.566  1.00  0.00     0.001 A 
HETATM   41  C   UNL     1      38.299  51.611  67.508  1.00  0.00     0.000 A 
HETATM   42  C   UNL     1      38.328  50.975  66.269  1.00  0.00     0.001 A 
HETATM   43  C   UNL     1      37.642  49.774  66.082  1.00  0.00     0.009 A 
ENDBRANCH  37  38
ENDBRANCH  11  37
TORSDOF 9
ENDMDL
MODEL 9
REMARK VINA RESULT:      -8.9      2.318      3.020
REMARK  9 active torsions:
REMARK  status: ('A' for Active; 'I' for Inactive)
REMARK    1  A    between atoms: O_2  and  C_3 
REMARK    2  A    between atoms: C_6  and  C_7 
REMARK    3  A    between atoms: C_8  and  C_9 
REMARK    4  A    between atoms: C_9  and  O_10 
REMARK    5  A    between atoms: O_10  and  C_11 
REMARK    6  A    between atoms: C_14  and  C_15 
REMARK    7  A    between atoms: C_17  and  O_18 
REMARK    8  A    between atoms: N_26  and  C_28 
REMARK    9  A    between atoms: C_28  and  C_29 
ROOT
HETATM    1  C   UNL     1      22.837  44.387  47.923  1.00  0.00     0.243 C 
HETATM    2  N   UNL     1      22.366  43.359  48.889  1.00  0.00    -0.235 NA
HETATM    3  C   UNL     1      23.055  43.311  49.973  1.00  0.00     0.173 C 
HETATM    4  C   UNL     1      24.245  44.084  50.230  1.00  0.00     0.057 A 
HETATM    5  C   UNL     1      24.852  44.644  49.132  1.00  0.00     0.087 A 
HETATM    6  S   UNL     1      26.263  45.499  49.514  1.00  0.00    -0.074 SA
HETATM    7  C   UNL     1      26.026  45.223  51.178  1.00  0.00     0.018 A 
HETATM    8  C   UNL     1      24.914  44.436  51.439  1.00  0.00    -0.024 A 
HETATM    9  C   UNL     1      24.510  44.087  52.838  1.00  0.00     0.068 C 
HETATM   10  C   UNL     1      25.200  45.004  53.863  1.00  0.00     0.240 C 
HETATM   11  N   UNL     1      26.693  45.175  53.572  1.00  0.00    -0.063 N 
HETATM   12  H   UNL     1      27.047  45.834  54.272  1.00  0.00     0.280 HD
HETATM   13  C   UNL     1      26.908  45.830  52.214  1.00  0.00     0.282 C 
HETATM   14  N   UNL     1      24.301  44.532  47.904  1.00  0.00    -0.357 N 
HETATM   15  H   UNL     1      24.663  45.102  47.148  1.00  0.00     0.162 HD
ENDROOT
BRANCH   1  16
HETATM   16  C   UNL     1      22.184  45.762  48.186  1.00  0.00    -0.014 A 
HETATM   17  C   UNL     1      20.805  45.875  48.461  1.00  0.00     0.014 A 
HETATM   18  C   UNL     1      20.252  47.081  48.892  1.00  0.00     0.038 A 
HETATM   19  C   UNL     1      21.081  48.186  49.047  1.00  0.00     0.079 A 
HETATM   20  C   UNL     1      22.417  48.142  48.662  1.00  0.00     0.038 A 
HETATM   21  C   UNL     1      22.963  46.935  48.225  1.00  0.00     0.014 A 
BRANCH  19  22
HETATM   22  O   UNL     1      20.594  49.378  49.579  1.00  0.00    -0.276 OA
BRANCH  22  23
HETATM   23  C   UNL     1      19.222  49.490  49.443  1.00  0.00     0.288 C 
HETATM   24  O   UNL     1      18.354  49.016  50.167  1.00  0.00    -0.260 OA
BRANCH  23  25
HETATM   25  C   UNL     1      18.866  50.324  48.274  1.00  0.00     0.083 C 
HETATM   26  C   UNL     1      18.169  49.882  47.217  1.00  0.00     0.017 C 
BRANCH  26  27
HETATM   27  C   UNL     1      17.950  50.697  46.017  1.00  0.00    -0.036 A 
HETATM   28  C   UNL     1      18.351  50.188  44.778  1.00  0.00     0.014 A 
HETATM   29  C   UNL     1      18.166  50.936  43.612  1.00  0.00     0.037 A 
HETATM   30  C   UNL     1      17.563  52.194  43.662  1.00  0.00     0.068 A 
HETATM   31  C   UNL     1      17.146  52.700  44.893  1.00  0.00     0.037 A 
HETATM   32  C   UNL     1      17.335  51.953  46.063  1.00  0.00     0.014 A 
BRANCH  30  33
HETATM   33  O   UNL     1      17.446  52.817  42.452  1.00  0.00    -0.356 OA
HETATM   34  C   UNL     1      16.173  52.767  41.821  1.00  0.00     0.210 C 
ENDBRANCH  30  33
ENDBRANCH  26  27
ENDBRANCH  23  25
ENDBRANCH  22  23
ENDBRANCH  19  22
ENDBRANCH   1  16
BRANCH   3  35
HETATM   35  O   UNL     1      22.659  42.477  50.952  1.00  0.00    -0.344 OA
HETATM   36  H   UNL     1      22.568  41.597  50.546  1.00  0.00     0.219 HD
ENDBRANCH   3  35
BRANCH  11  37
HETATM   37  C   UNL     1      27.520  43.918  53.727  1.00  0.00     0.273 C 
BRANCH  37  38
HETATM   38  C   UNL     1      28.710  44.093  54.630  1.00  0.00    -0.033 A 
HETATM   39  C   UNL     1      28.858  45.269  55.383  1.00  0.00     0.009 A 
HETATM   40  C   UNL     1      29.979  45.453  56.193  1.00  0.00     0.001 A 
HETATM   41  C   UNL     1      30.961  44.467  56.261  1.00  0.00     0.000 A 
HETATM   42  C   UNL     1      30.821  43.292  55.526  1.00  0.00     0.001 A 
HETATM   43  C   UNL     1      29.700  43.102  54.716  1.00  0.00     0.009 A 
ENDBRANCH  37  38
ENDBRANCH  11  37
TORSDOF 9
ENDMDL
MODEL 10
REMARK VINA RESULT:      -8.8      6.474      9.038
REMARK  9 active torsions:
REMARK  status: ('A' for Active; 'I' for Inactive)
REMARK    1  A    between atoms: O_2  and  C_3 
REMARK    2  A    between atoms: C_6  and  C_7 
REMARK    3  A    between atoms: C_8  and  C_9 
REMARK    4  A    between atoms: C_9  and  O_10 
REMARK    5  A    between atoms: O_10  and  C_11 
REMARK    6  A    between atoms: C_14  and  C_15 
REMARK    7  A    between atoms: C_17  and  O_18 
REMARK    8  A    between atoms: N_26  and  C_28 
REMARK    9  A    between atoms: C_28  and  C_29 
ROOT
HETATM    1  C   UNL     1      22.088  42.549  46.998  1.00  0.00     0.243 C 
HETATM    2  N   UNL     1      21.740  43.749  47.805  1.00  0.00    -0.235 NA
HETATM    3  C   UNL     1      22.620  44.053  48.691  1.00  0.00     0.173 C 
HETATM    4  C   UNL     1      23.797  43.275  48.986  1.00  0.00     0.057 A 
HETATM    5  C   UNL     1      23.795  41.978  48.530  1.00  0.00     0.087 A 
HETATM    6  S   UNL     1      25.193  41.120  48.954  1.00  0.00    -0.074 SA
HETATM    7  C   UNL     1      25.876  42.509  49.666  1.00  0.00     0.018 A 
HETATM    8  C   UNL     1      25.024  43.603  49.635  1.00  0.00    -0.024 A 
HETATM    9  C   UNL     1      25.433  44.932  50.190  1.00  0.00     0.068 C 
HETATM   10  C   UNL     1      26.956  45.008  50.390  1.00  0.00     0.240 C 
HETATM   11  N   UNL     1      27.514  43.752  51.063  1.00  0.00    -0.063 N 
HETATM   12  H   UNL     1      28.530  43.877  51.107  1.00  0.00     0.280 HD
HETATM   13  C   UNL     1      27.266  42.521  50.200  1.00  0.00     0.282 C 
HETATM   14  N   UNL     1      22.774  41.510  47.781  1.00  0.00    -0.357 N 
HETATM   15  H   UNL     1      22.879  40.620  47.307  1.00  0.00     0.162 HD
ENDROOT
BRANCH   1  16
HETATM   16  C   UNL     1      22.941  42.916  45.765  1.00  0.00    -0.014 A 
HETATM   17  C   UNL     1      23.725  41.946  45.104  1.00  0.00     0.014 A 
HETATM   18  C   UNL     1      24.336  42.225  43.881  1.00  0.00     0.038 A 
HETATM   19  C   UNL     1      24.168  43.482  43.314  1.00  0.00     0.079 A 
HETATM   20  C   UNL     1      23.511  44.498  43.999  1.00  0.00     0.038 A 
HETATM   21  C   UNL     1      22.908  44.217  45.225  1.00  0.00     0.014 A 
BRANCH  19  22
HETATM   22  O   UNL     1      24.668  43.769  42.045  1.00  0.00    -0.276 OA
BRANCH  22  23
HETATM   23  C   UNL     1      26.002  44.132  42.078  1.00  0.00     0.288 C 
HETATM   24  O   UNL     1      26.972  43.415  42.299  1.00  0.00    -0.260 OA
BRANCH  23  25
HETATM   25  C   UNL     1      26.174  45.569  41.770  1.00  0.00     0.083 C 
HETATM   26  C   UNL     1      27.169  46.066  41.022  1.00  0.00     0.017 C 
BRANCH  26  27
HETATM   27  C   UNL     1      27.385  47.507  40.847  1.00  0.00    -0.036 A 
HETATM   28  C   UNL     1      26.518  48.219  40.012  1.00  0.00     0.014 A 
HETATM   29  C   UNL     1      26.693  49.591  39.816  1.00  0.00     0.037 A 
HETATM   30  C   UNL     1      27.725  50.276  40.461  1.00  0.00     0.068 A 
HETATM   31  C   UNL     1      28.582  49.575  41.308  1.00  0.00     0.037 A 
HETATM   32  C   UNL     1      28.410  48.198  41.503  1.00  0.00     0.014 A 
BRANCH  30  33
HETATM   33  O   UNL     1      27.783  51.611  40.178  1.00  0.00    -0.356 OA
HETATM   34  C   UNL     1      27.989  52.495  41.273  1.00  0.00     0.210 C 
ENDBRANCH  30  33
ENDBRANCH  26  27
ENDBRANCH  23  25
ENDBRANCH  22  23
ENDBRANCH  19  22
ENDBRANCH   1  16
BRANCH   3  35
HETATM   35  O   UNL     1      22.447  45.174  49.414  1.00  0.00    -0.344 OA
HETATM   36  H   UNL     1      23.115  45.153  50.122  1.00  0.00     0.219 HD
ENDBRANCH   3  35
BRANCH  11  37
HETATM   37  C   UNL     1      27.059  43.537  52.490  1.00  0.00     0.273 C 
BRANCH  37  38
HETATM   38  C   UNL     1      28.159  43.715  53.500  1.00  0.00    -0.033 A 
HETATM   39  C   UNL     1      28.131  44.800  54.391  1.00  0.00     0.009 A 
HETATM   40  C   UNL     1      29.168  44.992  55.304  1.00  0.00     0.001 A 
HETATM   41  C   UNL     1      30.239  44.103  55.340  1.00  0.00     0.000 A 
HETATM   42  C   UNL     1      30.274  43.016  54.469  1.00  0.00     0.001 A 
HETATM   43  C   UNL     1      29.238  42.819  53.554  1.00  0.00     0.009 A 
ENDBRANCH  37  38
ENDBRANCH  11  37
TORSDOF 9
ENDMDL
