MODEL 1
REMARK VINA RESULT:      -8.4      0.000      0.000
REMARK  4 active torsions:
REMARK  status: ('A' for Active; 'I' for Inactive)
REMARK    1  A    between atoms: C_8  and  N_9 
REMARK       I    between atoms: N_9  and  C_10 
REMARK       I    between atoms: C_10  and  N_11 
REMARK    2  A    between atoms: N_11  and  C_12 
REMARK    3  A    between atoms: C_14  and  C_15 
REMARK       I    between atoms: C_15  and  N_16 
REMARK    4  A    between atoms: N_16  and  C_17 
ROOT
HETATM    1  C   UNL     1      25.473  46.836  50.213  1.00  0.00     0.037 A 
HETATM    2  C   UNL     1      24.173  46.915  49.712  1.00  0.00     0.048 A 
HETATM    3  C   UNL     1      23.748  48.038  48.978  1.00  0.00     0.055 A 
HETATM    4  C   UNL     1      24.645  49.074  48.706  1.00  0.00     0.049 A 
HETATM    5 CL   UNL     1      24.203  50.518  47.872  1.00  0.00    -0.083 Cl
HETATM    6  C   UNL     1      25.959  48.980  49.174  1.00  0.00     0.027 A 
HETATM    7  C   UNL     1      26.370  47.870  49.922  1.00  0.00     0.031 A 
ENDROOT
BRANCH   1   8
HETATM    8  N   UNL     1      25.943  45.772  51.013  1.00  0.00    -0.309 N 
HETATM    9  C   UNL     1      26.677  44.668  50.589  1.00  0.00     0.325 C 
HETATM   10  N   UNL     1      26.936  43.816  51.646  1.00  0.00    -0.305 N 
HETATM   11  O   UNL     1      27.016  44.476  49.430  1.00  0.00    -0.247 OA
HETATM   12  H   UNL     1      26.673  44.124  52.567  1.00  0.00     0.171 HD
HETATM   13  H   UNL     1      25.609  45.750  51.964  1.00  0.00     0.170 HD
BRANCH  10  14
HETATM   14  C   UNL     1      27.567  42.580  51.596  1.00  0.00     0.086 A 
HETATM   15  C   UNL     1      28.802  42.379  52.188  1.00  0.00     0.052 A 
HETATM   16  C   UNL     1      29.708  43.266  52.954  1.00  0.00     0.072 C 
HETATM   17  N   UNL     1      29.119  41.071  51.960  1.00  0.00    -0.280 N 
HETATM   18  H   UNL     1      29.949  40.566  52.250  1.00  0.00     0.189 HD
HETATM   19  N   UNL     1      28.192  40.403  51.272  1.00  0.00    -0.177 NA
HETATM   20  C   UNL     1      27.230  41.309  51.038  1.00  0.00     0.079 A 
HETATM   21  C   UNL     1      26.035  40.861  50.277  1.00  0.00     0.075 C 
ENDBRANCH  10  14
ENDBRANCH   1   8
BRANCH   3  22
HETATM   22  C   UNL     1      22.344  48.065  48.503  1.00  0.00     0.253 C 
HETATM   23  N   UNL     1      21.412  48.375  49.477  1.00  0.00    -0.352 N 
HETATM   24  H   UNL     1      21.723  48.597  50.416  1.00  0.00     0.163 HD
HETATM   25  O   UNL     1      22.074  47.804  47.338  1.00  0.00    -0.268 OA
BRANCH  23  26
HETATM   26  C   UNL     1      20.008  48.365  49.221  1.00  0.00     0.084 A 
HETATM   27  C   UNL     1      19.031  48.631  50.333  1.00  0.00     0.027 A 
HETATM   28  C   UNL     1      19.220  49.648  49.245  1.00  0.00     0.027 A 
ENDBRANCH  23  26
ENDBRANCH   3  22
TORSDOF 4
ENDMDL
MODEL 2
REMARK VINA RESULT:      -8.4      3.577      9.111
REMARK  4 active torsions:
REMARK  status: ('A' for Active; 'I' for Inactive)
REMARK    1  A    between atoms: C_8  and  N_9 
REMARK       I    between atoms: N_9  and  C_10 
REMARK       I    between atoms: C_10  and  N_11 
REMARK    2  A    between atoms: N_11  and  C_12 
REMARK    3  A    between atoms: C_14  and  C_15 
REMARK       I    between atoms: C_15  and  N_16 
REMARK    4  A    between atoms: N_16  and  C_17 
ROOT
HETATM    1  C   UNL     1      26.706  44.485  51.822  1.00  0.00     0.037 A 
HETATM    2  C   UNL     1      27.930  44.463  52.492  1.00  0.00     0.048 A 
HETATM    3  C   UNL     1      28.508  43.247  52.903  1.00  0.00     0.055 A 
HETATM    4  C   UNL     1      27.875  42.038  52.605  1.00  0.00     0.049 A 
HETATM    5 CL   UNL     1      28.470  40.503  53.121  1.00  0.00    -0.083 Cl
HETATM    6  C   UNL     1      26.668  42.055  51.900  1.00  0.00     0.027 A 
HETATM    7  C   UNL     1      26.088  43.269  51.513  1.00  0.00     0.031 A 
ENDROOT
BRANCH   1   8
HETATM    8  N   UNL     1      26.039  45.670  51.443  1.00  0.00    -0.309 N 
HETATM    9  C   UNL     1      26.223  46.393  50.268  1.00  0.00     0.325 C 
HETATM   10  N   UNL     1      25.419  47.516  50.252  1.00  0.00    -0.305 N 
HETATM   11  O   UNL     1      27.013  46.080  49.389  1.00  0.00    -0.247 OA
HETATM   12  H   UNL     1      24.752  47.622  50.999  1.00  0.00     0.171 HD
HETATM   13  H   UNL     1      25.461  46.100  52.148  1.00  0.00     0.170 HD
BRANCH  10  14
HETATM   14  C   UNL     1      25.386  48.516  49.289  1.00  0.00     0.086 A 
HETATM   15  C   UNL     1      24.204  48.875  48.665  1.00  0.00     0.052 A 
HETATM   16  C   UNL     1      22.808  48.399  48.802  1.00  0.00     0.072 C 
HETATM   17  N   UNL     1      24.528  49.877  47.797  1.00  0.00    -0.280 N 
HETATM   18  H   UNL     1      23.915  50.389  47.171  1.00  0.00     0.189 HD
HETATM   19  N   UNL     1      25.821  50.203  47.805  1.00  0.00    -0.177 NA
HETATM   20  C   UNL     1      26.368  49.380  48.714  1.00  0.00     0.079 A 
HETATM   21  C   UNL     1      27.828  49.501  48.960  1.00  0.00     0.075 C 
ENDBRANCH  10  14
ENDBRANCH   1   8
BRANCH   3  22
HETATM   22  C   UNL     1      29.795  43.304  53.636  1.00  0.00     0.253 C 
HETATM   23  N   UNL     1      29.725  43.908  54.879  1.00  0.00    -0.352 N 
HETATM   24  H   UNL     1      28.831  44.232  55.228  1.00  0.00     0.163 HD
HETATM   25  O   UNL     1      30.820  42.862  53.133  1.00  0.00    -0.268 OA
BRANCH  23  26
HETATM   26  C   UNL     1      30.880  44.126  55.688  1.00  0.00     0.084 A 
HETATM   27  C   UNL     1      30.736  44.628  57.098  1.00  0.00     0.027 A 
HETATM   28  C   UNL     1      31.179  43.216  56.849  1.00  0.00     0.027 A 
ENDBRANCH  23  26
ENDBRANCH   3  22
TORSDOF 4
ENDMDL
MODEL 3
REMARK VINA RESULT:      -8.1      5.421      7.958
REMARK  4 active torsions:
REMARK  status: ('A' for Active; 'I' for Inactive)
REMARK    1  A    between atoms: C_8  and  N_9 
REMARK       I    between atoms: N_9  and  C_10 
REMARK       I    between atoms: C_10  and  N_11 
REMARK    2  A    between atoms: N_11  and  C_12 
REMARK    3  A    between atoms: C_14  and  C_15 
REMARK       I    between atoms: C_15  and  N_16 
REMARK    4  A    between atoms: N_16  and  C_17 
ROOT
HETATM    1  C   UNL     1      27.209  42.806  52.954  1.00  0.00     0.037 A 
HETATM    2  C   UNL     1      28.194  43.303  53.807  1.00  0.00     0.048 A 
HETATM    3  C   UNL     1      28.159  44.637  54.253  1.00  0.00     0.055 A 
HETATM    4  C   UNL     1      27.105  45.472  53.874  1.00  0.00     0.049 A 
HETATM    5 CL   UNL     1      27.008  47.137  54.316  1.00  0.00    -0.083 Cl
HETATM    6  C   UNL     1      26.096  44.966  53.051  1.00  0.00     0.027 A 
HETATM    7  C   UNL     1      26.147  43.643  52.594  1.00  0.00     0.031 A 
ENDROOT
BRANCH   1   8
HETATM    8  N   UNL     1      27.220  41.501  52.416  1.00  0.00    -0.309 N 
HETATM    9  C   UNL     1      27.750  41.106  51.192  1.00  0.00     0.325 C 
HETATM   10  N   UNL     1      27.552  39.753  50.985  1.00  0.00    -0.305 N 
HETATM   11  O   UNL     1      28.291  41.867  50.403  1.00  0.00    -0.247 OA
HETATM   12  H   UNL     1      27.165  39.218  51.744  1.00  0.00     0.171 HD
HETATM   13  H   UNL     1      26.681  40.810  52.916  1.00  0.00     0.170 HD
BRANCH  10  14
HETATM   14  C   UNL     1      27.870  39.020  49.850  1.00  0.00     0.086 A 
HETATM   15  C   UNL     1      28.964  38.173  49.823  1.00  0.00     0.052 A 
HETATM   16  C   UNL     1      29.987  37.817  50.834  1.00  0.00     0.072 C 
HETATM   17  N   UNL     1      28.976  37.613  48.579  1.00  0.00    -0.280 N 
HETATM   18  H   UNL     1      29.631  36.939  48.199  1.00  0.00     0.189 HD
HETATM   19  N   UNL     1      27.978  38.023  47.793  1.00  0.00    -0.177 NA
HETATM   20  C   UNL     1      27.287  38.886  48.553  1.00  0.00     0.079 A 
HETATM   21  C   UNL     1      26.089  39.525  47.948  1.00  0.00     0.075 C 
ENDBRANCH  10  14
ENDBRANCH   1   8
BRANCH   3  22
HETATM   22  C   UNL     1      29.257  45.103  55.134  1.00  0.00     0.253 C 
HETATM   23  N   UNL     1      30.195  44.135  55.447  1.00  0.00    -0.352 N 
HETATM   24  H   UNL     1      30.111  43.208  55.046  1.00  0.00     0.163 HD
HETATM   25  O   UNL     1      29.280  46.254  55.549  1.00  0.00    -0.268 OA
BRANCH  23  26
HETATM   26  C   UNL     1      31.273  44.381  56.349  1.00  0.00     0.084 A 
HETATM   27  C   UNL     1      31.044  44.345  57.835  1.00  0.00     0.027 A 
HETATM   28  C   UNL     1      31.845  43.260  57.176  1.00  0.00     0.027 A 
ENDBRANCH  23  26
ENDBRANCH   3  22
TORSDOF 4
ENDMDL
MODEL 4
REMARK VINA RESULT:      -7.9      3.862      6.068
REMARK  4 active torsions:
REMARK  status: ('A' for Active; 'I' for Inactive)
REMARK    1  A    between atoms: C_8  and  N_9 
REMARK       I    between atoms: N_9  and  C_10 
REMARK       I    between atoms: C_10  and  N_11 
REMARK    2  A    between atoms: N_11  and  C_12 
REMARK    3  A    between atoms: C_14  and  C_15 
REMARK       I    between atoms: C_15  and  N_16 
REMARK    4  A    between atoms: N_16  and  C_17 
ROOT
HETATM    1  C   UNL     1      28.880  42.892  52.692  1.00  0.00     0.037 A 
HETATM    2  C   UNL     1      27.882  43.847  52.493  1.00  0.00     0.048 A 
HETATM    3  C   UNL     1      27.615  44.828  53.467  1.00  0.00     0.055 A 
HETATM    4  C   UNL     1      28.382  44.880  54.633  1.00  0.00     0.049 A 
HETATM    5 CL   UNL     1      28.090  46.001  55.911  1.00  0.00    -0.083 Cl
HETATM    6  C   UNL     1      29.407  43.948  54.818  1.00  0.00     0.027 A 
HETATM    7  C   UNL     1      29.654  42.962  53.855  1.00  0.00     0.031 A 
ENDROOT
BRANCH   1   8
HETATM    8  N   UNL     1      29.153  41.842  51.789  1.00  0.00    -0.309 N 
HETATM    9  C   UNL     1      28.267  40.862  51.354  1.00  0.00     0.325 C 
HETATM   10  N   UNL     1      28.895  39.980  50.494  1.00  0.00    -0.305 N 
HETATM   11  O   UNL     1      27.101  40.786  51.711  1.00  0.00    -0.247 OA
HETATM   12  H   UNL     1      29.837  40.194  50.214  1.00  0.00     0.171 HD
HETATM   13  H   UNL     1      30.121  41.720  51.531  1.00  0.00     0.170 HD
BRANCH  10  14
HETATM   14  C   UNL     1      28.358  38.833  49.925  1.00  0.00     0.086 A 
HETATM   15  C   UNL     1      28.830  37.575  50.259  1.00  0.00     0.052 A 
HETATM   16  C   UNL     1      29.884  37.110  51.191  1.00  0.00     0.072 C 
HETATM   17  N   UNL     1      28.086  36.690  49.535  1.00  0.00    -0.280 N 
HETATM   18  H   UNL     1      28.147  35.678  49.525  1.00  0.00     0.189 HD
HETATM   19  N   UNL     1      27.167  37.266  48.758  1.00  0.00    -0.177 NA
HETATM   20  C   UNL     1      27.315  38.580  48.982  1.00  0.00     0.079 A 
HETATM   21  C   UNL     1      26.415  39.507  48.250  1.00  0.00     0.075 C 
ENDBRANCH  10  14
ENDBRANCH   1   8
BRANCH   3  22
HETATM   22  C   UNL     1      26.520  45.791  53.198  1.00  0.00     0.253 C 
HETATM   23  N   UNL     1      26.382  46.153  51.870  1.00  0.00    -0.352 N 
HETATM   24  H   UNL     1      26.984  45.732  51.172  1.00  0.00     0.163 HD
HETATM   25  O   UNL     1      25.832  46.224  54.113  1.00  0.00    -0.268 OA
BRANCH  23  26
HETATM   26  C   UNL     1      25.437  47.131  51.440  1.00  0.00     0.084 A 
HETATM   27  C   UNL     1      25.585  47.790  50.096  1.00  0.00     0.027 A 
HETATM   28  C   UNL     1      24.467  46.817  50.332  1.00  0.00     0.027 A 
ENDBRANCH  23  26
ENDBRANCH   3  22
TORSDOF 4
ENDMDL
MODEL 5
REMARK VINA RESULT:      -7.9      1.672      2.381
REMARK  4 active torsions:
REMARK  status: ('A' for Active; 'I' for Inactive)
REMARK    1  A    between atoms: C_8  and  N_9 
REMARK       I    between atoms: N_9  and  C_10 
REMARK       I    between atoms: C_10  and  N_11 
REMARK    2  A    between atoms: N_11  and  C_12 
REMARK    3  A    between atoms: C_14  and  C_15 
REMARK       I    between atoms: C_15  and  N_16 
REMARK    4  A    between atoms: N_16  and  C_17 
ROOT
HETATM    1  C   UNL     1      25.161  47.482  49.468  1.00  0.00     0.037 A 
HETATM    2  C   UNL     1      23.782  47.372  49.283  1.00  0.00     0.048 A 
HETATM    3  C   UNL     1      23.015  48.481  48.882  1.00  0.00     0.055 A 
HETATM    4  C   UNL     1      23.640  49.704  48.623  1.00  0.00     0.049 A 
HETATM    5 CL   UNL     1      22.780  51.135  48.189  1.00  0.00    -0.083 Cl
HETATM    6  C   UNL     1      25.026  49.807  48.770  1.00  0.00     0.027 A 
HETATM    7  C   UNL     1      25.780  48.705  49.190  1.00  0.00     0.031 A 
ENDROOT
BRANCH   1   8
HETATM    8  N   UNL     1      25.978  46.429  49.934  1.00  0.00    -0.309 N 
HETATM    9  C   UNL     1      25.871  45.764  51.151  1.00  0.00     0.325 C 
HETATM   10  N   UNL     1      26.863  44.809  51.277  1.00  0.00    -0.305 N 
HETATM   11  O   UNL     1      25.028  46.019  51.998  1.00  0.00    -0.247 OA
HETATM   12  H   UNL     1      27.449  44.639  50.477  1.00  0.00     0.171 HD
HETATM   13  H   UNL     1      26.795  46.222  49.379  1.00  0.00     0.170 HD
BRANCH  10  14
HETATM   14  C   UNL     1      27.125  44.009  52.381  1.00  0.00     0.086 A 
HETATM   15  C   UNL     1      27.063  42.628  52.299  1.00  0.00     0.052 A 
HETATM   16  C   UNL     1      26.756  41.698  51.187  1.00  0.00     0.072 C 
HETATM   17  N   UNL     1      27.382  42.163  53.542  1.00  0.00    -0.280 N 
HETATM   18  H   UNL     1      27.442  41.201  53.857  1.00  0.00     0.189 HD
HETATM   19  N   UNL     1      27.650  43.126  54.426  1.00  0.00    -0.177 NA
HETATM   20  C   UNL     1      27.499  44.267  53.735  1.00  0.00     0.079 A 
HETATM   21  C   UNL     1      27.736  45.543  54.457  1.00  0.00     0.075 C 
ENDBRANCH  10  14
ENDBRANCH   1   8
BRANCH   3  22
HETATM   22  C   UNL     1      21.551  48.296  48.734  1.00  0.00     0.253 C 
HETATM   23  N   UNL     1      20.800  48.778  49.791  1.00  0.00    -0.352 N 
HETATM   24  H   UNL     1      21.262  49.249  50.560  1.00  0.00     0.163 HD
HETATM   25  O   UNL     1      21.090  47.733  47.750  1.00  0.00    -0.268 OA
BRANCH  23  26
HETATM   26  C   UNL     1      19.384  48.612  49.859  1.00  0.00     0.084 A 
HETATM   27  C   UNL     1      18.674  48.680  51.183  1.00  0.00     0.027 A 
HETATM   28  C   UNL     1      18.494  49.783  50.180  1.00  0.00     0.027 A 
ENDBRANCH  23  26
ENDBRANCH   3  22
TORSDOF 4
ENDMDL
MODEL 6
REMARK VINA RESULT:      -7.7      3.304      8.730
REMARK  4 active torsions:
REMARK  status: ('A' for Active; 'I' for Inactive)
REMARK    1  A    between atoms: C_8  and  N_9 
REMARK       I    between atoms: N_9  and  C_10 
REMARK       I    between atoms: C_10  and  N_11 
REMARK    2  A    between atoms: N_11  and  C_12 
REMARK    3  A    between atoms: C_14  and  C_15 
REMARK       I    between atoms: C_15  and  N_16 
REMARK    4  A    between atoms: N_16  and  C_17 
ROOT
HETATM    1  C   UNL     1      24.680  45.377  50.232  1.00  0.00     0.037 A 
HETATM    2  C   UNL     1      25.013  45.353  51.587  1.00  0.00     0.048 A 
HETATM    3  C   UNL     1      26.085  44.571  52.055  1.00  0.00     0.055 A 
HETATM    4  C   UNL     1      26.857  43.835  51.154  1.00  0.00     0.049 A 
HETATM    5 CL   UNL     1      28.148  42.797  51.637  1.00  0.00    -0.083 Cl
HETATM    6  C   UNL     1      26.551  43.887  49.791  1.00  0.00     0.027 A 
HETATM    7  C   UNL     1      25.470  44.651  49.334  1.00  0.00     0.031 A 
ENDROOT
BRANCH   1   8
HETATM    8  N   UNL     1      23.579  46.085  49.705  1.00  0.00    -0.309 N 
HETATM    9  C   UNL     1      23.418  47.467  49.659  1.00  0.00     0.325 C 
HETATM   10  N   UNL     1      22.199  47.800  49.100  1.00  0.00    -0.305 N 
HETATM   11  O   UNL     1      24.239  48.266  50.085  1.00  0.00    -0.247 OA
HETATM   12  H   UNL     1      21.644  47.054  48.714  1.00  0.00     0.171 HD
HETATM   13  H   UNL     1      22.777  45.531  49.448  1.00  0.00     0.170 HD
BRANCH  10  14
HETATM   14  C   UNL     1      21.655  49.070  48.963  1.00  0.00     0.086 A 
HETATM   15  C   UNL     1      20.363  49.347  49.377  1.00  0.00     0.052 A 
HETATM   16  C   UNL     1      19.309  48.520  50.010  1.00  0.00     0.072 C 
HETATM   17  N   UNL     1      20.158  50.669  49.109  1.00  0.00    -0.280 N 
HETATM   18  H   UNL     1      19.327  51.224  49.281  1.00  0.00     0.189 HD
HETATM   19  N   UNL     1      21.209  51.277  48.556  1.00  0.00    -0.177 NA
HETATM   20  C   UNL     1      22.139  50.315  48.458  1.00  0.00     0.079 A 
HETATM   21  C   UNL     1      23.453  50.687  47.872  1.00  0.00     0.075 C 
ENDBRANCH  10  14
ENDBRANCH   1   8
BRANCH   3  22
HETATM   22  C   UNL     1      26.360  44.573  53.512  1.00  0.00     0.253 C 
HETATM   23  N   UNL     1      27.518  45.234  53.880  1.00  0.00    -0.352 N 
HETATM   24  H   UNL     1      28.076  45.697  53.172  1.00  0.00     0.163 HD
HETATM   25  O   UNL     1      25.607  44.001  54.290  1.00  0.00    -0.268 OA
BRANCH  23  26
HETATM   26  C   UNL     1      27.983  45.266  55.228  1.00  0.00     0.084 A 
HETATM   27  C   UNL     1      29.424  44.966  55.541  1.00  0.00     0.027 A 
HETATM   28  C   UNL     1      28.901  46.366  55.691  1.00  0.00     0.027 A 
ENDBRANCH  23  26
ENDBRANCH   3  22
TORSDOF 4
ENDMDL
MODEL 7
REMARK VINA RESULT:      -7.5      2.092      2.990
REMARK  4 active torsions:
REMARK  status: ('A' for Active; 'I' for Inactive)
REMARK    1  A    between atoms: C_8  and  N_9 
REMARK       I    between atoms: N_9  and  C_10 
REMARK       I    between atoms: C_10  and  N_11 
REMARK    2  A    between atoms: N_11  and  C_12 
REMARK    3  A    between atoms: C_14  and  C_15 
REMARK       I    between atoms: C_15  and  N_16 
REMARK    4  A    between atoms: N_16  and  C_17 
ROOT
HETATM    1  C   UNL     1      24.871  45.897  49.630  1.00  0.00     0.037 A 
HETATM    2  C   UNL     1      24.533  47.242  49.780  1.00  0.00     0.048 A 
HETATM    3  C   UNL     1      23.362  47.763  49.198  1.00  0.00     0.055 A 
HETATM    4  C   UNL     1      22.499  46.921  48.493  1.00  0.00     0.049 A 
HETATM    5 CL   UNL     1      21.077  47.476  47.691  1.00  0.00    -0.083 Cl
HETATM    6  C   UNL     1      22.815  45.565  48.374  1.00  0.00     0.027 A 
HETATM    7  C   UNL     1      23.992  45.057  48.938  1.00  0.00     0.031 A 
ENDROOT
BRANCH   1   8
HETATM    8  N   UNL     1      26.061  45.325  50.129  1.00  0.00    -0.309 N 
HETATM    9  C   UNL     1      26.215  44.621  51.319  1.00  0.00     0.325 C 
HETATM   10  N   UNL     1      27.531  44.236  51.495  1.00  0.00    -0.305 N 
HETATM   11  O   UNL     1      25.307  44.402  52.108  1.00  0.00    -0.247 OA
HETATM   12  H   UNL     1      28.171  44.405  50.736  1.00  0.00     0.171 HD
HETATM   13  H   UNL     1      26.908  45.557  49.632  1.00  0.00     0.170 HD
BRANCH  10  14
HETATM   14  C   UNL     1      28.080  43.591  52.595  1.00  0.00     0.086 A 
HETATM   15  C   UNL     1      28.400  42.244  52.554  1.00  0.00     0.052 A 
HETATM   16  C   UNL     1      28.291  41.216  51.493  1.00  0.00     0.072 C 
HETATM   17  N   UNL     1      28.919  41.944  53.780  1.00  0.00    -0.280 N 
HETATM   18  H   UNL     1      29.266  41.052  54.114  1.00  0.00     0.189 HD
HETATM   19  N   UNL     1      28.966  42.983  54.615  1.00  0.00    -0.177 NA
HETATM   20  C   UNL     1      28.457  44.004  53.909  1.00  0.00     0.079 A 
HETATM   21  C   UNL     1      28.375  45.328  54.578  1.00  0.00     0.075 C 
ENDBRANCH  10  14
ENDBRANCH   1   8
BRANCH   3  22
HETATM   22  C   UNL     1      23.084  49.209  49.375  1.00  0.00     0.253 C 
HETATM   23  N   UNL     1      21.784  49.506  49.741  1.00  0.00    -0.352 N 
HETATM   24  H   UNL     1      21.124  48.753  49.901  1.00  0.00     0.163 HD
HETATM   25  O   UNL     1      23.960  50.042  49.179  1.00  0.00    -0.268 OA
BRANCH  23  26
HETATM   26  C   UNL     1      21.315  50.847  49.874  1.00  0.00     0.084 A 
HETATM   27  C   UNL     1      20.562  51.504  48.750  1.00  0.00     0.027 A 
HETATM   28  C   UNL     1      19.843  51.130  50.013  1.00  0.00     0.027 A 
ENDBRANCH  23  26
ENDBRANCH   3  22
TORSDOF 4
ENDMDL
MODEL 8
REMARK VINA RESULT:      -7.5      2.812      9.149
REMARK  4 active torsions:
REMARK  status: ('A' for Active; 'I' for Inactive)
REMARK    1  A    between atoms: C_8  and  N_9 
REMARK       I    between atoms: N_9  and  C_10 
REMARK       I    between atoms: C_10  and  N_11 
REMARK    2  A    between atoms: N_11  and  C_12 
REMARK    3  A    between atoms: C_14  and  C_15 
REMARK       I    between atoms: C_15  and  N_16 
REMARK    4  A    between atoms: N_16  and  C_17 
ROOT
HETATM    1  C   UNL     1      23.621  49.072  48.343  1.00  0.00     0.037 A 
HETATM    2  C   UNL     1      24.165  48.180  49.268  1.00  0.00     0.048 A 
HETATM    3  C   UNL     1      25.539  48.201  49.573  1.00  0.00     0.055 A 
HETATM    4  C   UNL     1      26.370  49.153  48.977  1.00  0.00     0.049 A 
HETATM    5 CL   UNL     1      28.074  49.218  49.237  1.00  0.00    -0.083 Cl
HETATM    6  C   UNL     1      25.822  50.073  48.079  1.00  0.00     0.027 A 
HETATM    7  C   UNL     1      24.458  50.032  47.764  1.00  0.00     0.031 A 
ENDROOT
BRANCH   1   8
HETATM    8  N   UNL     1      22.268  49.060  47.941  1.00  0.00    -0.309 N 
HETATM    9  C   UNL     1      21.217  49.763  48.524  1.00  0.00     0.325 C 
HETATM   10  N   UNL     1      20.026  49.483  47.882  1.00  0.00    -0.305 N 
HETATM   11  O   UNL     1      21.341  50.502  49.489  1.00  0.00    -0.247 OA
HETATM   12  H   UNL     1      20.066  48.920  47.049  1.00  0.00     0.171 HD
HETATM   13  H   UNL     1      22.019  48.381  47.239  1.00  0.00     0.170 HD
BRANCH  10  14
HETATM   14  C   UNL     1      18.758  49.930  48.229  1.00  0.00     0.086 A 
HETATM   15  C   UNL     1      17.724  49.042  48.474  1.00  0.00     0.052 A 
HETATM   16  C   UNL     1      17.644  47.563  48.462  1.00  0.00     0.072 C 
HETATM   17  N   UNL     1      16.640  49.807  48.793  1.00  0.00    -0.280 N 
HETATM   18  H   UNL     1      15.704  49.500  49.037  1.00  0.00     0.189 HD
HETATM   19  N   UNL     1      16.881  51.119  48.777  1.00  0.00    -0.177 NA
HETATM   20  C   UNL     1      18.174  51.218  48.434  1.00  0.00     0.079 A 
HETATM   21  C   UNL     1      18.755  52.581  48.331  1.00  0.00     0.075 C 
ENDBRANCH  10  14
ENDBRANCH   1   8
BRANCH   3  22
HETATM   22  C   UNL     1      26.049  47.203  50.543  1.00  0.00     0.253 C 
HETATM   23  N   UNL     1      26.499  46.024  49.975  1.00  0.00    -0.352 N 
HETATM   24  H   UNL     1      26.494  45.921  48.967  1.00  0.00     0.163 HD
HETATM   25  O   UNL     1      26.033  47.436  51.745  1.00  0.00    -0.268 OA
BRANCH  23  26
HETATM   26  C   UNL     1      26.946  44.921  50.761  1.00  0.00     0.084 A 
HETATM   27  C   UNL     1      25.970  43.877  51.231  1.00  0.00     0.027 A 
HETATM   28  C   UNL     1      26.981  43.534  50.177  1.00  0.00     0.027 A 
ENDBRANCH  23  26
ENDBRANCH   3  22
TORSDOF 4
ENDMDL
MODEL 9
REMARK VINA RESULT:      -7.4      5.427      8.297
REMARK  4 active torsions:
REMARK  status: ('A' for Active; 'I' for Inactive)
REMARK    1  A    between atoms: C_8  and  N_9 
REMARK       I    between atoms: N_9  and  C_10 
REMARK       I    between atoms: C_10  and  N_11 
REMARK    2  A    between atoms: N_11  and  C_12 
REMARK    3  A    between atoms: C_14  and  C_15 
REMARK       I    between atoms: C_15  and  N_16 
REMARK    4  A    between atoms: N_16  and  C_17 
ROOT
HETATM    1  C   UNL     1      25.953  42.422  51.394  1.00  0.00     0.037 A 
HETATM    2  C   UNL     1      26.616  41.291  50.916  1.00  0.00     0.048 A 
HETATM    3  C   UNL     1      26.186  40.641  49.744  1.00  0.00     0.055 A 
HETATM    4  C   UNL     1      25.107  41.152  49.020  1.00  0.00     0.049 A 
HETATM    5 CL   UNL     1      24.466  40.392  47.610  1.00  0.00    -0.083 Cl
HETATM    6  C   UNL     1      24.465  42.307  49.474  1.00  0.00     0.027 A 
HETATM    7  C   UNL     1      24.885  42.937  50.652  1.00  0.00     0.031 A 
ENDROOT
BRANCH   1   8
HETATM    8  N   UNL     1      26.289  43.081  52.596  1.00  0.00    -0.309 N 
HETATM    9  C   UNL     1      27.497  43.702  52.899  1.00  0.00     0.325 C 
HETATM   10  N   UNL     1      27.476  44.216  54.182  1.00  0.00    -0.305 N 
HETATM   11  O   UNL     1      28.450  43.756  52.135  1.00  0.00    -0.247 OA
HETATM   12  H   UNL     1      26.604  44.178  54.684  1.00  0.00     0.171 HD
HETATM   13  H   UNL     1      25.631  42.985  53.354  1.00  0.00     0.170 HD
BRANCH  10  14
HETATM   14  C   UNL     1      28.520  44.829  54.861  1.00  0.00     0.086 A 
HETATM   15  C   UNL     1      28.456  46.163  55.226  1.00  0.00     0.052 A 
HETATM   16  C   UNL     1      27.418  47.206  55.053  1.00  0.00     0.072 C 
HETATM   17  N   UNL     1      29.626  46.432  55.874  1.00  0.00    -0.280 N 
HETATM   18  H   UNL     1      29.930  47.307  56.286  1.00  0.00     0.189 HD
HETATM   19  N   UNL     1      30.447  45.384  55.964  1.00  0.00    -0.177 NA
HETATM   20  C   UNL     1      29.788  44.389  55.349  1.00  0.00     0.079 A 
HETATM   21  C   UNL     1      30.454  43.062  55.284  1.00  0.00     0.075 C 
ENDBRANCH  10  14
ENDBRANCH   1   8
BRANCH   3  22
HETATM   22  C   UNL     1      26.922  39.427  49.315  1.00  0.00     0.253 C 
HETATM   23  N   UNL     1      27.863  38.973  50.221  1.00  0.00    -0.352 N 
HETATM   24  H   UNL     1      27.972  39.447  51.110  1.00  0.00     0.163 HD
HETATM   25  O   UNL     1      26.699  38.915  48.226  1.00  0.00    -0.268 OA
BRANCH  23  26
HETATM   26  C   UNL     1      28.722  37.868  49.940  1.00  0.00     0.084 A 
HETATM   27  C   UNL     1      30.130  38.102  49.466  1.00  0.00     0.027 A 
HETATM   28  C   UNL     1      29.885  37.559  50.844  1.00  0.00     0.027 A 
ENDBRANCH  23  26
ENDBRANCH   3  22
TORSDOF 4
ENDMDL
MODEL 10
REMARK VINA RESULT:      -7.4      4.082      8.540
REMARK  4 active torsions:
REMARK  status: ('A' for Active; 'I' for Inactive)
REMARK    1  A    between atoms: C_8  and  N_9 
REMARK       I    between atoms: N_9  and  C_10 
REMARK       I    between atoms: C_10  and  N_11 
REMARK    2  A    between atoms: N_11  and  C_12 
REMARK    3  A    between atoms: C_14  and  C_15 
REMARK       I    between atoms: C_15  and  N_16 
REMARK    4  A    between atoms: N_16  and  C_17 
ROOT
HETATM    1  C   UNL     1      26.464  45.776  52.645  1.00  0.00     0.037 A 
HETATM    2  C   UNL     1      27.351  44.797  53.095  1.00  0.00     0.048 A 
HETATM    3  C   UNL     1      27.986  44.915  54.345  1.00  0.00     0.055 A 
HETATM    4  C   UNL     1      27.701  46.004  55.172  1.00  0.00     0.049 A 
HETATM    5 CL   UNL     1      28.475  46.270  56.691  1.00  0.00    -0.083 Cl
HETATM    6  C   UNL     1      26.784  46.967  54.741  1.00  0.00     0.027 A 
HETATM    7  C   UNL     1      26.171  46.855  53.487  1.00  0.00     0.031 A 
ENDROOT
BRANCH   1   8
HETATM    8  N   UNL     1      25.846  45.754  51.377  1.00  0.00    -0.309 N 
HETATM    9  C   UNL     1      24.646  45.135  51.043  1.00  0.00     0.325 C 
HETATM   10  N   UNL     1      24.367  45.297  49.699  1.00  0.00    -0.305 N 
HETATM   11  O   UNL     1      23.954  44.510  51.834  1.00  0.00    -0.247 OA
HETATM   12  H   UNL     1      24.973  45.900  49.167  1.00  0.00     0.171 HD
HETATM   13  H   UNL     1      26.390  46.121  50.611  1.00  0.00     0.170 HD
BRANCH  10  14
HETATM   14  C   UNL     1      23.306  44.754  48.987  1.00  0.00     0.086 A 
HETATM   15  C   UNL     1      22.374  45.561  48.357  1.00  0.00     0.052 A 
HETATM   16  C   UNL     1      22.229  47.031  48.242  1.00  0.00     0.072 C 
HETATM   17  N   UNL     1      21.490  44.714  47.754  1.00  0.00    -0.280 N 
HETATM   18  H   UNL     1      20.676  44.948  47.197  1.00  0.00     0.189 HD
HETATM   19  N   UNL     1      21.770  43.422  47.936  1.00  0.00    -0.177 NA
HETATM   20  C   UNL     1      22.880  43.423  48.690  1.00  0.00     0.079 A 
HETATM   21  C   UNL     1      23.454  42.106  49.069  1.00  0.00     0.075 C 
ENDBRANCH  10  14
ENDBRANCH   1   8
BRANCH   3  22
HETATM   22  C   UNL     1      28.938  43.850  54.742  1.00  0.00     0.253 C 
HETATM   23  N   UNL     1      30.033  44.294  55.461  1.00  0.00    -0.352 N 
HETATM   24  H   UNL     1      30.109  45.275  55.704  1.00  0.00     0.163 HD
HETATM   25  O   UNL     1      28.744  42.686  54.417  1.00  0.00    -0.268 OA
BRANCH  23  26
HETATM   26  C   UNL     1      31.093  43.423  55.854  1.00  0.00     0.084 A 
HETATM   27  C   UNL     1      32.033  43.820  56.960  1.00  0.00     0.027 A 
HETATM   28  C   UNL     1      31.043  42.713  57.181  1.00  0.00     0.027 A 
ENDBRANCH  23  26
ENDBRANCH   3  22
TORSDOF 4
ENDMDL
