MODEL 1
REMARK VINA RESULT:      -9.6      0.000      0.000
REMARK  5 active torsions:
REMARK  status: ('A' for Active; 'I' for Inactive)
REMARK    1  A    between atoms: C_3  and  O_4 
REMARK    2  A    between atoms: O_4  and  C_5 
REMARK    3  A    between atoms: C_5  and  C_6 
REMARK       I    between atoms: C_6  and  N_7 
REMARK    4  A    between atoms: N_7  and  N_8 
REMARK    5  A    between atoms: C_9  and  C_10 
ROOT
HETATM    1  C   UNL     1      25.953  46.284  53.887  1.00  0.00     0.261 C 
HETATM    2  N   UNL     1      25.805  46.242  52.501  1.00  0.00    -0.246 N 
HETATM    3  O   UNL     1      25.741  47.265  54.598  1.00  0.00    -0.269 OA
HETATM    4  H   UNL     1      26.235  45.460  52.013  1.00  0.00     0.192 HD
ENDROOT
BRANCH   2   5
HETATM    5  N   UNL     1      25.607  47.357  51.719  1.00  0.00    -0.184 NA
HETATM    6  C   UNL     1      25.668  47.197  50.435  1.00  0.00     0.153 C 
BRANCH   6   7
HETATM    7  C   UNL     1      25.389  48.307  49.540  1.00  0.00     0.018 A 
HETATM    8  C   UNL     1      24.127  48.801  49.065  1.00  0.00     0.004 A 
HETATM    9  C   UNL     1      24.391  49.867  48.205  1.00  0.00     0.043 A 
HETATM   10  C   UNL     1      22.778  48.435  49.271  1.00  0.00     0.014 A 
HETATM   11  C   UNL     1      23.384  50.580  47.542  1.00  0.00     0.030 A 
HETATM   12  N   UNL     1      25.754  50.025  48.162  1.00  0.00    -0.358 N 
HETATM   13  C   UNL     1      22.060  50.194  47.764  1.00  0.00     0.002 A 
HETATM   14  C   UNL     1      21.758  49.137  48.617  1.00  0.00     0.001 A 
HETATM   15  H   UNL     1      26.226  50.728  47.610  1.00  0.00     0.166 HD
HETATM   16  C   UNL     1      26.376  49.093  48.954  1.00  0.00     0.018 A 
HETATM   17  C   UNL     1      27.857  49.046  49.074  1.00  0.00     0.069 C 
ENDBRANCH   6   7
ENDBRANCH   2   5
BRANCH   1  18
HETATM   18  C   UNL     1      26.520  44.990  54.466  1.00  0.00     0.280 C 
BRANCH  18  19
HETATM   19  O   UNL     1      27.746  44.646  53.826  1.00  0.00    -0.342 OA
BRANCH  19  20
HETATM   20  C   UNL     1      28.832  44.553  54.659  1.00  0.00     0.075 A 
HETATM   21  C   UNL     1      29.614  43.390  54.554  1.00  0.00    -0.029 A 
HETATM   22  C   UNL     1      29.234  42.265  53.631  1.00  0.00     0.051 C 
HETATM   23  C   UNL     1      30.733  43.240  55.388  1.00  0.00     0.009 A 
HETATM   24  C   UNL     1      31.092  44.246  56.284  1.00  0.00     0.001 A 
HETATM   25  C   UNL     1      30.334  45.410  56.361  1.00  0.00     0.003 A 
HETATM   26  C   UNL     1      29.208  45.566  55.549  1.00  0.00     0.037 A 
ENDBRANCH  19  20
ENDBRANCH  18  19
ENDBRANCH   1  18
TORSDOF 5
ENDMDL
MODEL 2
REMARK VINA RESULT:      -9.0      2.122      9.182
REMARK  5 active torsions:
REMARK  status: ('A' for Active; 'I' for Inactive)
REMARK    1  A    between atoms: C_3  and  O_4 
REMARK    2  A    between atoms: O_4  and  C_5 
REMARK    3  A    between atoms: C_5  and  C_6 
REMARK       I    between atoms: C_6  and  N_7 
REMARK    4  A    between atoms: N_7  and  N_8 
REMARK    5  A    between atoms: C_9  and  C_10 
ROOT
HETATM    1  C   UNL     1      26.078  45.124  51.668  1.00  0.00     0.261 C 
HETATM    2  N   UNL     1      26.143  45.272  53.053  1.00  0.00    -0.246 N 
HETATM    3  O   UNL     1      26.672  44.269  51.012  1.00  0.00    -0.269 OA
HETATM    4  H   UNL     1      25.804  46.148  53.441  1.00  0.00     0.192 HD
ENDROOT
BRANCH   2   5
HETATM    5  N   UNL     1      27.050  44.613  53.851  1.00  0.00    -0.184 NA
HETATM    6  C   UNL     1      28.280  45.018  53.805  1.00  0.00     0.153 C 
BRANCH   6   7
HETATM    7  C   UNL     1      29.282  44.428  54.678  1.00  0.00     0.018 A 
HETATM    8  C   UNL     1      29.715  44.847  55.982  1.00  0.00     0.004 A 
HETATM    9  C   UNL     1      30.719  43.969  56.391  1.00  0.00     0.043 A 
HETATM   10  C   UNL     1      29.362  45.901  56.853  1.00  0.00     0.014 A 
HETATM   11  C   UNL     1      31.386  44.090  57.617  1.00  0.00     0.030 A 
HETATM   12  N   UNL     1      30.886  43.048  55.386  1.00  0.00    -0.358 N 
HETATM   13  C   UNL     1      31.016  45.143  58.457  1.00  0.00     0.002 A 
HETATM   14  C   UNL     1      30.018  46.037  58.083  1.00  0.00     0.001 A 
HETATM   15  H   UNL     1      31.556  42.291  55.417  1.00  0.00     0.166 HD
HETATM   16  C   UNL     1      30.035  43.309  54.342  1.00  0.00     0.018 A 
HETATM   17  C   UNL     1      30.026  42.458  53.124  1.00  0.00     0.069 C 
ENDBRANCH   6   7
ENDBRANCH   2   5
BRANCH   1  18
HETATM   18  C   UNL     1      25.255  46.216  50.989  1.00  0.00     0.280 C 
BRANCH  18  19
HETATM   19  O   UNL     1      26.105  47.216  50.434  1.00  0.00    -0.342 OA
BRANCH  19  20
HETATM   20  C   UNL     1      25.480  48.121  49.613  1.00  0.00     0.075 A 
HETATM   21  C   UNL     1      26.306  49.018  48.915  1.00  0.00    -0.029 A 
HETATM   22  C   UNL     1      27.796  49.041  49.118  1.00  0.00     0.051 C 
HETATM   23  C   UNL     1      25.718  49.970  48.066  1.00  0.00     0.009 A 
HETATM   24  C   UNL     1      24.337  50.004  47.884  1.00  0.00     0.001 A 
HETATM   25  C   UNL     1      23.526  49.091  48.552  1.00  0.00     0.003 A 
HETATM   26  C   UNL     1      24.095  48.150  49.413  1.00  0.00     0.037 A 
ENDBRANCH  19  20
ENDBRANCH  18  19
ENDBRANCH   1  18
TORSDOF 5
ENDMDL
MODEL 3
REMARK VINA RESULT:      -8.9      2.044      8.514
REMARK  5 active torsions:
REMARK  status: ('A' for Active; 'I' for Inactive)
REMARK    1  A    between atoms: C_3  and  O_4 
REMARK    2  A    between atoms: O_4  and  C_5 
REMARK    3  A    between atoms: C_5  and  C_6 
REMARK       I    between atoms: C_6  and  N_7 
REMARK    4  A    between atoms: N_7  and  N_8 
REMARK    5  A    between atoms: C_9  and  C_10 
ROOT
HETATM    1  C   UNL     1      25.344  45.000  50.834  1.00  0.00     0.261 C 
HETATM    2  N   UNL     1      25.078  45.350  52.157  1.00  0.00    -0.246 N 
HETATM    3  O   UNL     1      26.286  44.305  50.455  1.00  0.00    -0.269 OA
HETATM    4  H   UNL     1      24.422  46.112  52.311  1.00  0.00     0.192 HD
ENDROOT
BRANCH   2   5
HETATM    5  N   UNL     1      25.958  45.143  53.195  1.00  0.00    -0.184 NA
HETATM    6  C   UNL     1      26.874  46.040  53.381  1.00  0.00     0.153 C 
BRANCH   6   7
HETATM    7  C   UNL     1      27.789  45.935  54.506  1.00  0.00     0.018 A 
HETATM    8  C   UNL     1      28.818  44.967  54.756  1.00  0.00     0.004 A 
HETATM    9  C   UNL     1      29.398  45.281  55.986  1.00  0.00     0.043 A 
HETATM   10  C   UNL     1      29.308  43.838  54.064  1.00  0.00     0.014 A 
HETATM   11  C   UNL     1      30.434  44.531  56.556  1.00  0.00     0.030 A 
HETATM   12  N   UNL     1      28.758  46.399  56.462  1.00  0.00    -0.358 N 
HETATM   13  C   UNL     1      30.896  43.419  55.847  1.00  0.00     0.002 A 
HETATM   14  C   UNL     1      30.344  43.075  54.618  1.00  0.00     0.001 A 
HETATM   15  H   UNL     1      28.977  46.846  57.342  1.00  0.00     0.166 HD
HETATM   16  C   UNL     1      27.781  46.807  55.590  1.00  0.00     0.018 A 
HETATM   17  C   UNL     1      26.934  47.994  55.879  1.00  0.00     0.069 C 
ENDBRANCH   6   7
ENDBRANCH   2   5
BRANCH   1  18
HETATM   18  C   UNL     1      24.390  45.656  49.840  1.00  0.00     0.280 C 
BRANCH  18  19
HETATM   19  O   UNL     1      24.136  47.010  50.203  1.00  0.00    -0.342 OA
BRANCH  19  20
HETATM   20  C   UNL     1      24.917  47.941  49.564  1.00  0.00     0.075 A 
HETATM   21  C   UNL     1      24.246  48.936  48.833  1.00  0.00    -0.029 A 
HETATM   22  C   UNL     1      22.749  48.936  48.689  1.00  0.00     0.051 C 
HETATM   23  C   UNL     1      24.997  49.910  48.155  1.00  0.00     0.009 A 
HETATM   24  C   UNL     1      26.388  49.917  48.233  1.00  0.00     0.001 A 
HETATM   25  C   UNL     1      27.046  48.949  48.985  1.00  0.00     0.003 A 
HETATM   26  C   UNL     1      26.313  47.964  49.652  1.00  0.00     0.037 A 
ENDBRANCH  19  20
ENDBRANCH  18  19
ENDBRANCH   1  18
TORSDOF 5
ENDMDL
MODEL 4
REMARK VINA RESULT:      -8.8      1.604      2.251
REMARK  5 active torsions:
REMARK  status: ('A' for Active; 'I' for Inactive)
REMARK    1  A    between atoms: C_3  and  O_4 
REMARK    2  A    between atoms: O_4  and  C_5 
REMARK    3  A    between atoms: C_5  and  C_6 
REMARK       I    between atoms: C_6  and  N_7 
REMARK    4  A    between atoms: N_7  and  N_8 
REMARK    5  A    between atoms: C_9  and  C_10 
ROOT
HETATM    1  C   UNL     1      26.579  43.985  50.936  1.00  0.00     0.261 C 
HETATM    2  N   UNL     1      27.301  44.895  50.166  1.00  0.00    -0.246 N 
HETATM    3  O   UNL     1      25.356  43.855  50.929  1.00  0.00    -0.269 OA
HETATM    4  H   UNL     1      28.266  45.067  50.436  1.00  0.00     0.192 HD
ENDROOT
BRANCH   2   5
HETATM    5  N   UNL     1      26.724  45.919  49.449  1.00  0.00    -0.184 NA
HETATM    6  C   UNL     1      26.321  46.953  50.117  1.00  0.00     0.153 C 
BRANCH   6   7
HETATM    7  C   UNL     1      25.777  48.110  49.425  1.00  0.00     0.018 A 
HETATM    8  C   UNL     1      24.420  48.392  49.050  1.00  0.00     0.004 A 
HETATM    9  C   UNL     1      24.417  49.616  48.379  1.00  0.00     0.043 A 
HETATM   10  C   UNL     1      23.189  47.718  49.200  1.00  0.00     0.014 A 
HETATM   11  C   UNL     1      23.256  50.196  47.855  1.00  0.00     0.030 A 
HETATM   12  N   UNL     1      25.714  50.067  48.354  1.00  0.00    -0.358 N 
HETATM   13  C   UNL     1      22.053  49.505  48.018  1.00  0.00     0.002 A 
HETATM   14  C   UNL     1      22.017  48.283  48.682  1.00  0.00     0.001 A 
HETATM   15  H   UNL     1      26.003  50.936  47.926  1.00  0.00     0.166 HD
HETATM   16  C   UNL     1      26.551  49.173  48.972  1.00  0.00     0.018 A 
HETATM   17  C   UNL     1      28.012  49.425  49.071  1.00  0.00     0.069 C 
ENDBRANCH   6   7
ENDBRANCH   2   5
BRANCH   1  18
HETATM   18  C   UNL     1      27.456  43.197  51.906  1.00  0.00     0.280 C 
BRANCH  18  19
HETATM   19  O   UNL     1      27.149  43.539  53.255  1.00  0.00    -0.342 OA
BRANCH  19  20
HETATM   20  C   UNL     1      28.236  43.785  54.056  1.00  0.00     0.075 A 
HETATM   21  C   UNL     1      28.260  45.019  54.728  1.00  0.00    -0.029 A 
HETATM   22  C   UNL     1      27.190  46.054  54.518  1.00  0.00     0.051 C 
HETATM   23  C   UNL     1      29.353  45.325  55.555  1.00  0.00     0.009 A 
HETATM   24  C   UNL     1      30.384  44.406  55.742  1.00  0.00     0.001 A 
HETATM   25  C   UNL     1      30.337  43.172  55.100  1.00  0.00     0.003 A 
HETATM   26  C   UNL     1      29.266  42.860  54.261  1.00  0.00     0.037 A 
ENDBRANCH  19  20
ENDBRANCH  18  19
ENDBRANCH   1  18
TORSDOF 5
ENDMDL
MODEL 5
REMARK VINA RESULT:      -8.8      2.103      8.909
REMARK  5 active torsions:
REMARK  status: ('A' for Active; 'I' for Inactive)
REMARK    1  A    between atoms: C_3  and  O_4 
REMARK    2  A    between atoms: O_4  and  C_5 
REMARK    3  A    between atoms: C_5  and  C_6 
REMARK       I    between atoms: C_6  and  N_7 
REMARK    4  A    between atoms: N_7  and  N_8 
REMARK    5  A    between atoms: C_9  and  C_10 
ROOT
HETATM    1  C   UNL     1      26.419  45.037  50.524  1.00  0.00     0.261 C 
HETATM    2  N   UNL     1      26.504  45.298  51.891  1.00  0.00    -0.246 N 
HETATM    3  O   UNL     1      27.280  44.476  49.849  1.00  0.00    -0.269 OA
HETATM    4  H   UNL     1      25.844  45.970  52.276  1.00  0.00     0.192 HD
ENDROOT
BRANCH   2   5
HETATM    5  N   UNL     1      27.658  45.154  52.627  1.00  0.00    -0.184 NA
HETATM    6  C   UNL     1      27.578  44.469  53.723  1.00  0.00     0.153 C 
BRANCH   6   7
HETATM    7  C   UNL     1      28.768  44.202  54.513  1.00  0.00     0.018 A 
HETATM    8  C   UNL     1      29.194  44.795  55.750  1.00  0.00     0.004 A 
HETATM    9  C   UNL     1      30.420  44.222  56.089  1.00  0.00     0.043 A 
HETATM   10  C   UNL     1      28.664  45.780  56.611  1.00  0.00     0.014 A 
HETATM   11  C   UNL     1      31.139  44.579  57.237  1.00  0.00     0.030 A 
HETATM   12  N   UNL     1      30.726  43.310  55.108  1.00  0.00    -0.358 N 
HETATM   13  C   UNL     1      30.589  45.558  58.069  1.00  0.00     0.002 A 
HETATM   14  C   UNL     1      29.369  46.151  57.764  1.00  0.00     0.001 A 
HETATM   15  H   UNL     1      31.565  42.747  55.101  1.00  0.00     0.166 HD
HETATM   16  C   UNL     1      29.748  43.286  54.146  1.00  0.00     0.018 A 
HETATM   17  C   UNL     1      29.848  42.386  52.968  1.00  0.00     0.069 C 
ENDBRANCH   6   7
ENDBRANCH   2   5
BRANCH   1  18
HETATM   18  C   UNL     1      25.160  45.617  49.883  1.00  0.00     0.280 C 
BRANCH  18  19
HETATM   19  O   UNL     1      24.882  46.914  50.403  1.00  0.00    -0.342 OA
BRANCH  19  20
HETATM   20  C   UNL     1      25.385  47.957  49.666  1.00  0.00     0.075 A 
HETATM   21  C   UNL     1      24.451  48.791  49.029  1.00  0.00    -0.029 A 
HETATM   22  C   UNL     1      22.975  48.508  49.082  1.00  0.00     0.051 C 
HETATM   23  C   UNL     1      24.912  49.869  48.257  1.00  0.00     0.009 A 
HETATM   24  C   UNL     1      26.276  50.137  48.152  1.00  0.00     0.001 A 
HETATM   25  C   UNL     1      27.194  49.328  48.813  1.00  0.00     0.003 A 
HETATM   26  C   UNL     1      26.752  48.242  49.570  1.00  0.00     0.037 A 
ENDBRANCH  19  20
ENDBRANCH  18  19
ENDBRANCH   1  18
TORSDOF 5
ENDMDL
MODEL 6
REMARK VINA RESULT:      -8.8      2.212      9.274
REMARK  5 active torsions:
REMARK  status: ('A' for Active; 'I' for Inactive)
REMARK    1  A    between atoms: C_3  and  O_4 
REMARK    2  A    between atoms: O_4  and  C_5 
REMARK    3  A    between atoms: C_5  and  C_6 
REMARK       I    between atoms: C_6  and  N_7 
REMARK    4  A    between atoms: N_7  and  N_8 
REMARK    5  A    between atoms: C_9  and  C_10 
ROOT
HETATM    1  C   UNL     1      25.004  47.027  50.192  1.00  0.00     0.261 C 
HETATM    2  N   UNL     1      25.119  46.351  51.406  1.00  0.00    -0.246 N 
HETATM    3  O   UNL     1      25.886  47.704  49.665  1.00  0.00    -0.269 OA
HETATM    4  H   UNL     1      24.257  46.033  51.842  1.00  0.00     0.192 HD
ENDROOT
BRANCH   2   5
HETATM    5  N   UNL     1      26.165  46.525  52.283  1.00  0.00    -0.184 NA
HETATM    6  C   UNL     1      26.179  45.780  53.341  1.00  0.00     0.153 C 
BRANCH   6   7
HETATM    7  C   UNL     1      27.293  45.846  54.274  1.00  0.00     0.018 A 
HETATM    8  C   UNL     1      28.377  44.924  54.465  1.00  0.00     0.004 A 
HETATM    9  C   UNL     1      29.170  45.421  55.500  1.00  0.00     0.043 A 
HETATM   10  C   UNL     1      28.757  43.702  53.869  1.00  0.00     0.014 A 
HETATM   11  C   UNL     1      30.315  44.763  55.967  1.00  0.00     0.030 A 
HETATM   12  N   UNL     1      28.601  46.600  55.917  1.00  0.00    -0.358 N 
HETATM   13  C   UNL     1      30.665  43.556  55.359  1.00  0.00     0.002 A 
HETATM   14  C   UNL     1      29.899  43.031  54.323  1.00  0.00     0.001 A 
HETATM   15  H   UNL     1      28.971  47.174  56.662  1.00  0.00     0.166 HD
HETATM   16  C   UNL     1      27.466  46.872  55.196  1.00  0.00     0.018 A 
HETATM   17  C   UNL     1      26.658  48.090  55.461  1.00  0.00     0.069 C 
ENDBRANCH   6   7
ENDBRANCH   2   5
BRANCH   1  18
HETATM   18  C   UNL     1      23.603  46.941  49.591  1.00  0.00     0.280 C 
BRANCH  18  19
HETATM   19  O   UNL     1      23.481  47.811  48.470  1.00  0.00    -0.342 OA
BRANCH  19  20
HETATM   20  C   UNL     1      22.600  48.851  48.633  1.00  0.00     0.075 A 
HETATM   21  C   UNL     1      23.069  50.135  48.307  1.00  0.00    -0.029 A 
HETATM   22  C   UNL     1      24.491  50.371  47.879  1.00  0.00     0.051 C 
HETATM   23  C   UNL     1      22.212  51.236  48.462  1.00  0.00     0.009 A 
HETATM   24  C   UNL     1      20.899  51.060  48.895  1.00  0.00     0.001 A 
HETATM   25  C   UNL     1      20.429  49.782  49.185  1.00  0.00     0.003 A 
HETATM   26  C   UNL     1      21.276  48.680  49.052  1.00  0.00     0.037 A 
ENDBRANCH  19  20
ENDBRANCH  18  19
ENDBRANCH   1  18
TORSDOF 5
ENDMDL
MODEL 7
REMARK VINA RESULT:      -8.6      2.187      9.233
REMARK  5 active torsions:
REMARK  status: ('A' for Active; 'I' for Inactive)
REMARK    1  A    between atoms: C_3  and  O_4 
REMARK    2  A    between atoms: O_4  and  C_5 
REMARK    3  A    between atoms: C_5  and  C_6 
REMARK       I    between atoms: C_6  and  N_7 
REMARK    4  A    between atoms: N_7  and  N_8 
REMARK    5  A    between atoms: C_9  and  C_10 
ROOT
HETATM    1  C   UNL     1      25.543  46.767  50.659  1.00  0.00     0.261 C 
HETATM    2  N   UNL     1      25.982  45.444  50.631  1.00  0.00    -0.246 N 
HETATM    3  O   UNL     1      26.178  47.720  51.109  1.00  0.00    -0.269 OA
HETATM    4  H   UNL     1      25.281  44.727  50.458  1.00  0.00     0.192 HD
ENDROOT
BRANCH   2   5
HETATM    5  N   UNL     1      27.097  44.993  51.299  1.00  0.00    -0.184 NA
HETATM    6  C   UNL     1      26.901  44.255  52.346  1.00  0.00     0.153 C 
BRANCH   6   7
HETATM    7  C   UNL     1      28.027  43.673  53.057  1.00  0.00     0.018 A 
HETATM    8  C   UNL     1      28.771  44.193  54.169  1.00  0.00     0.004 A 
HETATM    9  C   UNL     1      29.775  43.272  54.470  1.00  0.00     0.043 A 
HETATM   10  C   UNL     1      28.701  45.371  54.945  1.00  0.00     0.014 A 
HETATM   11  C   UNL     1      30.706  43.465  55.498  1.00  0.00     0.030 A 
HETATM   12  N   UNL     1      29.644  42.228  53.587  1.00  0.00    -0.358 N 
HETATM   13  C   UNL     1      30.612  44.641  56.247  1.00  0.00     0.002 A 
HETATM   14  C   UNL     1      29.624  45.582  55.977  1.00  0.00     0.001 A 
HETATM   15  H   UNL     1      30.246  41.416  53.577  1.00  0.00     0.166 HD
HETATM   16  C   UNL     1      28.602  42.451  52.723  1.00  0.00     0.018 A 
HETATM   17  C   UNL     1      28.257  41.470  51.661  1.00  0.00     0.069 C 
ENDBRANCH   6   7
ENDBRANCH   2   5
BRANCH   1  18
HETATM   18  C   UNL     1      24.111  46.932  50.157  1.00  0.00     0.280 C 
BRANCH  18  19
HETATM   19  O   UNL     1      24.095  47.550  48.874  1.00  0.00    -0.342 OA
BRANCH  19  20
HETATM   20  C   UNL     1      23.327  48.684  48.784  1.00  0.00     0.075 A 
HETATM   21  C   UNL     1      23.982  49.863  48.388  1.00  0.00    -0.029 A 
HETATM   22  C   UNL     1      25.467  49.900  48.154  1.00  0.00     0.051 C 
HETATM   23  C   UNL     1      23.245  51.054  48.286  1.00  0.00     0.009 A 
HETATM   24  C   UNL     1      21.874  51.065  48.534  1.00  0.00     0.001 A 
HETATM   25  C   UNL     1      21.224  49.888  48.893  1.00  0.00     0.003 A 
HETATM   26  C   UNL     1      21.947  48.700  49.015  1.00  0.00     0.037 A 
ENDBRANCH  19  20
ENDBRANCH  18  19
ENDBRANCH   1  18
TORSDOF 5
ENDMDL
MODEL 8
REMARK VINA RESULT:      -8.6      2.075      3.068
REMARK  5 active torsions:
REMARK  status: ('A' for Active; 'I' for Inactive)
REMARK    1  A    between atoms: C_3  and  O_4 
REMARK    2  A    between atoms: O_4  and  C_5 
REMARK    3  A    between atoms: C_5  and  C_6 
REMARK       I    between atoms: C_6  and  N_7 
REMARK    4  A    between atoms: N_7  and  N_8 
REMARK    5  A    between atoms: C_9  and  C_10 
ROOT
HETATM    1  C   UNL     1      26.746  46.872  54.868  1.00  0.00     0.261 C 
HETATM    2  N   UNL     1      26.592  45.873  53.908  1.00  0.00    -0.246 N 
HETATM    3  O   UNL     1      25.909  47.730  55.147  1.00  0.00    -0.269 OA
HETATM    4  H   UNL     1      27.433  45.385  53.609  1.00  0.00     0.192 HD
ENDROOT
BRANCH   2   5
HETATM    5  N   UNL     1      25.566  45.844  52.992  1.00  0.00    -0.184 NA
HETATM    6  C   UNL     1      25.879  45.585  51.762  1.00  0.00     0.153 C 
BRANCH   6   7
HETATM    7  C   UNL     1      24.843  45.455  50.750  1.00  0.00     0.018 A 
HETATM    8  C   UNL     1      24.210  46.472  49.958  1.00  0.00     0.004 A 
HETATM    9  C   UNL     1      23.259  45.844  49.153  1.00  0.00     0.043 A 
HETATM   10  C   UNL     1      24.340  47.874  49.856  1.00  0.00     0.014 A 
HETATM   11  C   UNL     1      22.437  46.540  48.258  1.00  0.00     0.030 A 
HETATM   12  N   UNL     1      23.315  44.500  49.433  1.00  0.00    -0.358 N 
HETATM   13  C   UNL     1      22.588  47.926  48.181  1.00  0.00     0.002 A 
HETATM   14  C   UNL     1      23.526  48.587  48.967  1.00  0.00     0.001 A 
HETATM   15  H   UNL     1      22.729  43.805  48.991  1.00  0.00     0.166 HD
HETATM   16  C   UNL     1      24.258  44.244  50.396  1.00  0.00     0.018 A 
HETATM   17  C   UNL     1      24.507  42.862  50.884  1.00  0.00     0.069 C 
ENDBRANCH   6   7
ENDBRANCH   2   5
BRANCH   1  18
HETATM   18  C   UNL     1      28.133  46.879  55.505  1.00  0.00     0.280 C 
BRANCH  18  19
HETATM   19  O   UNL     1      28.946  45.847  54.954  1.00  0.00    -0.342 OA
BRANCH  19  20
HETATM   20  C   UNL     1      29.754  45.199  55.854  1.00  0.00     0.075 A 
HETATM   21  C   UNL     1      30.292  43.966  55.448  1.00  0.00    -0.029 A 
HETATM   22  C   UNL     1      29.936  43.346  54.125  1.00  0.00     0.051 C 
HETATM   23  C   UNL     1      31.120  43.256  56.333  1.00  0.00     0.009 A 
HETATM   24  C   UNL     1      31.439  43.781  57.584  1.00  0.00     0.001 A 
HETATM   25  C   UNL     1      30.930  45.018  57.967  1.00  0.00     0.003 A 
HETATM   26  C   UNL     1      30.092  45.727  57.105  1.00  0.00     0.037 A 
ENDBRANCH  19  20
ENDBRANCH  18  19
ENDBRANCH   1  18
TORSDOF 5
ENDMDL
MODEL 9
REMARK VINA RESULT:      -8.3      5.608      7.922
REMARK  5 active torsions:
REMARK  status: ('A' for Active; 'I' for Inactive)
REMARK    1  A    between atoms: C_3  and  O_4 
REMARK    2  A    between atoms: O_4  and  C_5 
REMARK    3  A    between atoms: C_5  and  C_6 
REMARK       I    between atoms: C_6  and  N_7 
REMARK    4  A    between atoms: N_7  and  N_8 
REMARK    5  A    between atoms: C_9  and  C_10 
ROOT
HETATM    1  C   UNL     1      26.720  42.985  52.189  1.00  0.00     0.261 C 
HETATM    2  N   UNL     1      26.959  41.612  52.215  1.00  0.00    -0.246 N 
HETATM    3  O   UNL     1      26.434  43.642  51.189  1.00  0.00    -0.269 OA
HETATM    4  H   UNL     1      27.414  41.236  53.043  1.00  0.00     0.192 HD
ENDROOT
BRANCH   2   5
HETATM    5  N   UNL     1      27.117  40.841  51.085  1.00  0.00    -0.184 NA
HETATM    6  C   UNL     1      28.298  40.362  50.857  1.00  0.00     0.153 C 
BRANCH   6   7
HETATM    7  C   UNL     1      28.527  39.472  49.731  1.00  0.00     0.018 A 
HETATM    8  C   UNL     1      28.107  39.604  48.364  1.00  0.00     0.004 A 
HETATM    9  C   UNL     1      28.550  38.473  47.679  1.00  0.00     0.043 A 
HETATM   10  C   UNL     1      27.376  40.572  47.641  1.00  0.00     0.014 A 
HETATM   11  C   UNL     1      28.301  38.260  46.317  1.00  0.00     0.030 A 
HETATM   12  N   UNL     1      29.221  37.687  48.584  1.00  0.00    -0.358 N 
HETATM   13  C   UNL     1      27.574  39.234  45.629  1.00  0.00     0.002 A 
HETATM   14  C   UNL     1      27.117  40.375  46.279  1.00  0.00     0.001 A 
HETATM   15  H   UNL     1      29.648  36.800  48.356  1.00  0.00     0.166 HD
HETATM   16  C   UNL     1      29.214  38.266  49.827  1.00  0.00     0.018 A 
HETATM   17  C   UNL     1      29.868  37.609  50.989  1.00  0.00     0.069 C 
ENDBRANCH   6   7
ENDBRANCH   2   5
BRANCH   1  18
HETATM   18  C   UNL     1      26.949  43.656  53.541  1.00  0.00     0.280 C 
BRANCH  18  19
HETATM   19  O   UNL     1      28.015  44.598  53.462  1.00  0.00    -0.342 OA
BRANCH  19  20
HETATM   20  C   UNL     1      28.987  44.459  54.421  1.00  0.00     0.075 A 
HETATM   21  C   UNL     1      29.139  45.522  55.327  1.00  0.00    -0.029 A 
HETATM   22  C   UNL     1      28.333  46.786  55.204  1.00  0.00     0.051 C 
HETATM   23  C   UNL     1      30.124  45.436  56.325  1.00  0.00     0.009 A 
HETATM   24  C   UNL     1      30.917  44.296  56.444  1.00  0.00     0.001 A 
HETATM   25  C   UNL     1      30.740  43.233  55.565  1.00  0.00     0.003 A 
HETATM   26  C   UNL     1      29.776  43.311  54.557  1.00  0.00     0.037 A 
ENDBRANCH  19  20
ENDBRANCH  18  19
ENDBRANCH   1  18
TORSDOF 5
ENDMDL
MODEL 10
REMARK VINA RESULT:      -8.2      4.070      8.907
REMARK  5 active torsions:
REMARK  status: ('A' for Active; 'I' for Inactive)
REMARK    1  A    between atoms: C_3  and  O_4 
REMARK    2  A    between atoms: O_4  and  C_5 
REMARK    3  A    between atoms: C_5  and  C_6 
REMARK       I    between atoms: C_6  and  N_7 
REMARK    4  A    between atoms: N_7  and  N_8 
REMARK    5  A    between atoms: C_9  and  C_10 
ROOT
HETATM    1  C   UNL     1      27.805  41.623  51.506  1.00  0.00     0.261 C 
HETATM    2  N   UNL     1      27.350  42.813  52.070  1.00  0.00    -0.246 N 
HETATM    3  O   UNL     1      28.443  40.751  52.095  1.00  0.00    -0.269 OA
HETATM    4  H   UNL     1      27.050  43.544  51.430  1.00  0.00     0.192 HD
ENDROOT
BRANCH   2   5
HETATM    5  N   UNL     1      27.740  43.272  53.308  1.00  0.00    -0.184 NA
HETATM    6  C   UNL     1      28.424  44.371  53.342  1.00  0.00     0.153 C 
BRANCH   6   7
HETATM    7  C   UNL     1      28.802  44.964  54.614  1.00  0.00     0.018 A 
HETATM    8  C   UNL     1      29.785  44.529  55.566  1.00  0.00     0.004 A 
HETATM    9  C   UNL     1      29.750  45.419  56.640  1.00  0.00     0.043 A 
HETATM   10  C   UNL     1      30.695  43.451  55.630  1.00  0.00     0.014 A 
HETATM   11  C   UNL     1      30.572  45.288  57.767  1.00  0.00     0.030 A 
HETATM   12  N   UNL     1      28.795  46.363  56.353  1.00  0.00    -0.358 N 
HETATM   13  C   UNL     1      31.461  44.211  57.801  1.00  0.00     0.002 A 
HETATM   14  C   UNL     1      31.525  43.304  56.749  1.00  0.00     0.001 A 
HETATM   15  H   UNL     1      28.558  47.132  56.965  1.00  0.00     0.166 HD
HETATM   16  C   UNL     1      28.207  46.105  55.141  1.00  0.00     0.018 A 
HETATM   17  C   UNL     1      27.131  46.979  54.604  1.00  0.00     0.069 C 
ENDBRANCH   6   7
ENDBRANCH   2   5
BRANCH   1  18
HETATM   18  C   UNL     1      27.522  41.525  50.009  1.00  0.00     0.280 C 
BRANCH  18  19
HETATM   19  O   UNL     1      27.100  42.784  49.493  1.00  0.00    -0.342 OA
BRANCH  19  20
HETATM   20  C   UNL     1      25.754  42.892  49.247  1.00  0.00     0.075 A 
HETATM   21  C   UNL     1      25.212  44.189  49.250  1.00  0.00    -0.029 A 
HETATM   22  C   UNL     1      26.047  45.393  49.586  1.00  0.00     0.051 C 
HETATM   23  C   UNL     1      23.838  44.356  49.011  1.00  0.00     0.009 A 
HETATM   24  C   UNL     1      23.026  43.258  48.736  1.00  0.00     0.001 A 
HETATM   25  C   UNL     1      23.574  41.980  48.701  1.00  0.00     0.003 A 
HETATM   26  C   UNL     1      24.935  41.796  48.954  1.00  0.00     0.037 A 
ENDBRANCH  19  20
ENDBRANCH  18  19
ENDBRANCH   1  18
TORSDOF 5
ENDMDL
