MODEL 1
REMARK VINA RESULT:      -9.6      0.000      0.000
REMARK  2 active torsions:
REMARK  status: ('A' for Active; 'I' for Inactive)
REMARK    1  A    between atoms: O_2  and  C_3 
REMARK    2  A    between atoms: C_9  and  N_10 
REMARK       I    between atoms: N_10  and  C_11 
REMARK       I    between atoms: C_11  and  N_12 
ROOT
HETATM    1  N   UNL     1      25.535  46.577  51.240  1.00  0.00    -0.306 N 
HETATM    2  C   UNL     1      25.634  46.895  52.571  1.00  0.00     0.323 C 
HETATM    3  N   UNL     1      26.315  45.963  53.347  1.00  0.00    -0.328 N 
HETATM    4  C   UNL     1      26.561  46.333  54.748  1.00  0.00     0.185 C 
HETATM    5  C   UNL     1      27.802  45.647  55.205  1.00  0.00     0.035 A 
HETATM    6  C   UNL     1      28.487  44.643  54.550  1.00  0.00    -0.020 A 
HETATM    7  C   UNL     1      28.022  44.131  53.231  1.00  0.00     0.061 C 
HETATM    8  C   UNL     1      26.552  44.540  53.006  1.00  0.00     0.132 C 
HETATM    9  N   UNL     1      28.464  45.922  56.369  1.00  0.00    -0.357 N 
HETATM   10  H   UNL     1      28.196  46.620  57.049  1.00  0.00     0.166 HD
HETATM   11  C   UNL     1      29.580  45.118  56.473  1.00  0.00     0.043 A 
HETATM   12  C   UNL     1      29.619  44.305  55.337  1.00  0.00    -0.001 A 
HETATM   13  C   UNL     1      30.553  45.058  57.477  1.00  0.00     0.030 A 
HETATM   14  C   UNL     1      31.597  44.144  57.314  1.00  0.00     0.002 A 
HETATM   15  C   UNL     1      31.664  43.322  56.191  1.00  0.00     0.001 A 
HETATM   16  C   UNL     1      30.681  43.392  55.196  1.00  0.00     0.014 A 
HETATM   17  O   UNL     1      25.181  47.921  53.073  1.00  0.00    -0.247 OA
HETATM   18  H   UNL     1      26.130  45.837  50.898  1.00  0.00     0.171 HD
ENDROOT
BRANCH   1  19
HETATM   19  C   UNL     1      24.915  47.313  50.203  1.00  0.00     0.071 A 
HETATM   20  C   UNL     1      25.682  48.318  49.582  1.00  0.00     0.116 A 
HETATM   21  C   UNL     1      25.110  49.155  48.615  1.00  0.00     0.069 A 
HETATM   22 CL   UNL     1      25.999  50.449  47.895  1.00  0.00    -0.081 Cl
HETATM   23  C   UNL     1      23.790  48.956  48.215  1.00  0.00     0.027 A 
HETATM   24  C   UNL     1      23.041  47.928  48.788  1.00  0.00     0.004 A 
HETATM   25  C   UNL     1      23.600  47.111  49.776  1.00  0.00     0.032 A 
BRANCH  20  26
HETATM   26  O   UNL     1      26.989  48.495  49.985  1.00  0.00    -0.352 OA
HETATM   27  C   UNL     1      27.880  48.024  48.969  1.00  0.00     0.210 C 
ENDBRANCH  20  26
ENDBRANCH   1  19
TORSDOF 2
ENDMDL
MODEL 2
REMARK VINA RESULT:      -8.9      6.048      7.032
REMARK  2 active torsions:
REMARK  status: ('A' for Active; 'I' for Inactive)
REMARK    1  A    between atoms: O_2  and  C_3 
REMARK    2  A    between atoms: C_9  and  N_10 
REMARK       I    between atoms: N_10  and  C_11 
REMARK       I    between atoms: C_11  and  N_12 
ROOT
HETATM    1  N   UNL     1      28.086  40.663  49.362  1.00  0.00    -0.306 N 
HETATM    2  C   UNL     1      27.416  41.724  49.916  1.00  0.00     0.323 C 
HETATM    3  N   UNL     1      27.662  41.931  51.269  1.00  0.00    -0.328 N 
HETATM    4  C   UNL     1      27.072  43.138  51.865  1.00  0.00     0.185 C 
HETATM    5  C   UNL     1      27.932  43.571  53.001  1.00  0.00     0.035 A 
HETATM    6  C   UNL     1      28.963  42.859  53.583  1.00  0.00    -0.020 A 
HETATM    7  C   UNL     1      29.340  41.508  53.083  1.00  0.00     0.061 C 
HETATM    8  C   UNL     1      28.192  40.933  52.229  1.00  0.00     0.132 C 
HETATM    9  N   UNL     1      27.827  44.770  53.648  1.00  0.00    -0.357 N 
HETATM   10  H   UNL     1      27.164  45.502  53.432  1.00  0.00     0.166 HD
HETATM   11  C   UNL     1      28.786  44.854  54.636  1.00  0.00     0.043 A 
HETATM   12  C   UNL     1      29.517  43.663  54.614  1.00  0.00    -0.001 A 
HETATM   13  C   UNL     1      29.062  45.891  55.535  1.00  0.00     0.030 A 
HETATM   14  C   UNL     1      30.117  45.707  56.433  1.00  0.00     0.002 A 
HETATM   15  C   UNL     1      30.865  44.531  56.432  1.00  0.00     0.001 A 
HETATM   16  C   UNL     1      30.575  43.501  55.528  1.00  0.00     0.014 A 
HETATM   17  O   UNL     1      26.660  42.467  49.293  1.00  0.00    -0.247 OA
HETATM   18  H   UNL     1      28.844  40.267  49.897  1.00  0.00     0.171 HD
ENDROOT
BRANCH   1  19
HETATM   19  C   UNL     1      28.053  40.201  48.025  1.00  0.00     0.071 A 
HETATM   20  C   UNL     1      28.116  38.809  47.824  1.00  0.00     0.116 A 
HETATM   21  C   UNL     1      28.187  38.278  46.529  1.00  0.00     0.069 A 
HETATM   22 CL   UNL     1      28.347  36.582  46.251  1.00  0.00    -0.081 Cl
HETATM   23  C   UNL     1      28.134  39.128  45.426  1.00  0.00     0.027 A 
HETATM   24  C   UNL     1      28.018  40.505  45.617  1.00  0.00     0.004 A 
HETATM   25  C   UNL     1      27.978  41.039  46.909  1.00  0.00     0.032 A 
BRANCH  20  26
HETATM   26  O   UNL     1      28.160  37.984  48.928  1.00  0.00    -0.352 OA
HETATM   27  C   UNL     1      26.849  37.491  49.220  1.00  0.00     0.210 C 
ENDBRANCH  20  26
ENDBRANCH   1  19
TORSDOF 2
ENDMDL
MODEL 3
REMARK VINA RESULT:      -8.7      6.158      9.399
REMARK  2 active torsions:
REMARK  status: ('A' for Active; 'I' for Inactive)
REMARK    1  A    between atoms: O_2  and  C_3 
REMARK    2  A    between atoms: C_9  and  N_10 
REMARK       I    between atoms: N_10  and  C_11 
REMARK       I    between atoms: C_11  and  N_12 
ROOT
HETATM    1  N   UNL     1      18.929  51.180  48.453  1.00  0.00    -0.306 N 
HETATM    2  C   UNL     1      19.386  49.986  48.952  1.00  0.00     0.323 C 
HETATM    3  N   UNL     1      20.656  49.618  48.520  1.00  0.00    -0.328 N 
HETATM    4  C   UNL     1      21.235  48.417  49.138  1.00  0.00     0.185 C 
HETATM    5  C   UNL     1      22.719  48.551  49.128  1.00  0.00     0.035 A 
HETATM    6  C   UNL     1      23.464  49.494  48.447  1.00  0.00    -0.020 A 
HETATM    7  C   UNL     1      22.805  50.540  47.617  1.00  0.00     0.061 C 
HETATM    8  C   UNL     1      21.353  50.120  47.311  1.00  0.00     0.132 C 
HETATM    9  N   UNL     1      23.581  47.742  49.812  1.00  0.00    -0.357 N 
HETATM   10  H   UNL     1      23.319  46.967  50.406  1.00  0.00     0.166 HD
HETATM   11  C   UNL     1      24.880  48.155  49.596  1.00  0.00     0.043 A 
HETATM   12  C   UNL     1      24.833  49.259  48.741  1.00  0.00    -0.001 A 
HETATM   13  C   UNL     1      26.081  47.639  50.097  1.00  0.00     0.030 A 
HETATM   14  C   UNL     1      27.267  48.274  49.717  1.00  0.00     0.002 A 
HETATM   15  C   UNL     1      27.251  49.379  48.868  1.00  0.00     0.001 A 
HETATM   16  C   UNL     1      26.041  49.881  48.373  1.00  0.00     0.014 A 
HETATM   17  O   UNL     1      18.757  49.277  49.734  1.00  0.00    -0.247 OA
HETATM   18  H   UNL     1      19.605  51.783  48.009  1.00  0.00     0.171 HD
ENDROOT
BRANCH   1  19
HETATM   19  C   UNL     1      17.694  51.824  48.704  1.00  0.00     0.071 A 
HETATM   20  C   UNL     1      16.795  51.932  47.626  1.00  0.00     0.116 A 
HETATM   21  C   UNL     1      15.595  52.640  47.767  1.00  0.00     0.069 A 
HETATM   22 CL   UNL     1      14.509  52.860  46.442  1.00  0.00    -0.081 Cl
HETATM   23  C   UNL     1      15.255  53.194  49.000  1.00  0.00     0.027 A 
HETATM   24  C   UNL     1      16.117  53.046  50.086  1.00  0.00     0.004 A 
HETATM   25  C   UNL     1      17.330  52.365  49.940  1.00  0.00     0.032 A 
BRANCH  20  26
HETATM   26  O   UNL     1      17.145  51.371  46.416  1.00  0.00    -0.352 OA
HETATM   27  C   UNL     1      16.572  50.064  46.301  1.00  0.00     0.210 C 
ENDBRANCH  20  26
ENDBRANCH   1  19
TORSDOF 2
ENDMDL
MODEL 4
REMARK VINA RESULT:      -8.5      5.430     11.176
REMARK  2 active torsions:
REMARK  status: ('A' for Active; 'I' for Inactive)
REMARK    1  A    between atoms: O_2  and  C_3 
REMARK    2  A    between atoms: C_9  and  N_10 
REMARK       I    between atoms: N_10  and  C_11 
REMARK       I    between atoms: C_11  and  N_12 
ROOT
HETATM    1  N   UNL     1      22.455  47.920  49.473  1.00  0.00    -0.306 N 
HETATM    2  C   UNL     1      21.668  47.973  48.351  1.00  0.00     0.323 C 
HETATM    3  N   UNL     1      20.357  48.379  48.573  1.00  0.00    -0.328 N 
HETATM    4  C   UNL     1      19.523  48.580  47.379  1.00  0.00     0.185 C 
HETATM    5  C   UNL     1      18.492  49.609  47.694  1.00  0.00     0.035 A 
HETATM    6  C   UNL     1      18.181  50.122  48.938  1.00  0.00    -0.020 A 
HETATM    7  C   UNL     1      18.905  49.670  50.158  1.00  0.00     0.061 C 
HETATM    8  C   UNL     1      19.632  48.341  49.866  1.00  0.00     0.132 C 
HETATM    9  N   UNL     1      17.687  50.216  46.771  1.00  0.00    -0.357 N 
HETATM   10  H   UNL     1      17.697  50.045  45.775  1.00  0.00     0.166 HD
HETATM   11  C   UNL     1      16.862  51.128  47.398  1.00  0.00     0.043 A 
HETATM   12  C   UNL     1      17.156  51.089  48.764  1.00  0.00    -0.001 A 
HETATM   13  C   UNL     1      15.893  51.981  46.859  1.00  0.00     0.030 A 
HETATM   14  C   UNL     1      15.207  52.822  47.740  1.00  0.00     0.002 A 
HETATM   15  C   UNL     1      15.481  52.807  49.106  1.00  0.00     0.001 A 
HETATM   16  C   UNL     1      16.452  51.946  49.631  1.00  0.00     0.014 A 
HETATM   17  O   UNL     1      22.060  47.704  47.217  1.00  0.00    -0.247 OA
HETATM   18  H   UNL     1      22.105  48.374  50.303  1.00  0.00     0.171 HD
ENDROOT
BRANCH   1  19
HETATM   19  C   UNL     1      23.818  47.555  49.576  1.00  0.00     0.071 A 
HETATM   20  C   UNL     1      24.772  48.577  49.409  1.00  0.00     0.116 A 
HETATM   21  C   UNL     1      26.141  48.281  49.399  1.00  0.00     0.069 A 
HETATM   22 CL   UNL     1      27.331  49.499  49.114  1.00  0.00    -0.081 Cl
HETATM   23  C   UNL     1      26.571  46.973  49.619  1.00  0.00     0.027 A 
HETATM   24  C   UNL     1      25.633  45.964  49.839  1.00  0.00     0.004 A 
HETATM   25  C   UNL     1      24.265  46.253  49.818  1.00  0.00     0.032 A 
BRANCH  20  26
HETATM   26  O   UNL     1      24.328  49.866  49.201  1.00  0.00    -0.352 OA
HETATM   27  C   UNL     1      24.476  50.215  47.821  1.00  0.00     0.210 C 
ENDBRANCH  20  26
ENDBRANCH   1  19
TORSDOF 2
ENDMDL
MODEL 5
REMARK VINA RESULT:      -8.5      3.069      4.618
REMARK  2 active torsions:
REMARK  status: ('A' for Active; 'I' for Inactive)
REMARK    1  A    between atoms: O_2  and  C_3 
REMARK    2  A    between atoms: C_9  and  N_10 
REMARK       I    between atoms: N_10  and  C_11 
REMARK       I    between atoms: C_11  and  N_12 
ROOT
HETATM    1  N   UNL     1      22.819  47.825  49.537  1.00  0.00    -0.306 N 
HETATM    2  C   UNL     1      23.480  46.691  49.135  1.00  0.00     0.323 C 
HETATM    3  N   UNL     1      24.679  46.447  49.794  1.00  0.00    -0.328 N 
HETATM    4  C   UNL     1      25.346  45.173  49.489  1.00  0.00     0.185 C 
HETATM    5  C   UNL     1      26.140  44.761  50.680  1.00  0.00     0.035 A 
HETATM    6  C   UNL     1      26.429  45.526  51.793  1.00  0.00    -0.020 A 
HETATM    7  C   UNL     1      25.927  46.922  51.916  1.00  0.00     0.061 C 
HETATM    8  C   UNL     1      25.497  47.442  50.529  1.00  0.00     0.132 C 
HETATM    9  N   UNL     1      26.710  43.531  50.852  1.00  0.00    -0.357 N 
HETATM   10  H   UNL     1      26.657  42.759  50.200  1.00  0.00     0.166 HD
HETATM   11  C   UNL     1      27.356  43.480  52.070  1.00  0.00     0.043 A 
HETATM   12  C   UNL     1      27.191  44.725  52.684  1.00  0.00    -0.001 A 
HETATM   13  C   UNL     1      28.061  42.431  52.670  1.00  0.00     0.030 A 
HETATM   14  C   UNL     1      28.609  42.658  53.936  1.00  0.00     0.002 A 
HETATM   15  C   UNL     1      28.458  43.888  54.573  1.00  0.00     0.001 A 
HETATM   16  C   UNL     1      27.752  44.929  53.959  1.00  0.00     0.014 A 
HETATM   17  O   UNL     1      23.067  45.919  48.272  1.00  0.00    -0.247 OA
HETATM   18  H   UNL     1      23.125  48.256  50.396  1.00  0.00     0.171 HD
ENDROOT
BRANCH   1  19
HETATM   19  C   UNL     1      21.586  48.339  49.069  1.00  0.00     0.071 A 
HETATM   20  C   UNL     1      21.476  49.737  48.953  1.00  0.00     0.116 A 
HETATM   21  C   UNL     1      20.258  50.329  48.592  1.00  0.00     0.069 A 
HETATM   22 CL   UNL     1      20.068  52.043  48.521  1.00  0.00    -0.081 Cl
HETATM   23  C   UNL     1      19.161  49.527  48.282  1.00  0.00     0.027 A 
HETATM   24  C   UNL     1      19.278  48.139  48.344  1.00  0.00     0.004 A 
HETATM   25  C   UNL     1      20.484  47.547  48.735  1.00  0.00     0.032 A 
BRANCH  20  26
HETATM   26  O   UNL     1      22.575  50.514  49.256  1.00  0.00    -0.352 OA
HETATM   27  C   UNL     1      23.314  50.796  48.064  1.00  0.00     0.210 C 
ENDBRANCH  20  26
ENDBRANCH   1  19
TORSDOF 2
ENDMDL
MODEL 6
REMARK VINA RESULT:      -8.2      3.839      9.625
REMARK  2 active torsions:
REMARK  status: ('A' for Active; 'I' for Inactive)
REMARK    1  A    between atoms: O_2  and  C_3 
REMARK    2  A    between atoms: C_9  and  N_10 
REMARK       I    between atoms: N_10  and  C_11 
REMARK       I    between atoms: C_11  and  N_12 
ROOT
HETATM    1  N   UNL     1      24.398  45.916  50.693  1.00  0.00    -0.306 N 
HETATM    2  C   UNL     1      24.570  47.232  50.348  1.00  0.00     0.323 C 
HETATM    3  N   UNL     1      23.603  47.744  49.489  1.00  0.00    -0.328 N 
HETATM    4  C   UNL     1      23.675  49.185  49.206  1.00  0.00     0.185 C 
HETATM    5  C   UNL     1      22.301  49.674  48.902  1.00  0.00     0.035 A 
HETATM    6  C   UNL     1      21.178  48.905  48.670  1.00  0.00    -0.020 A 
HETATM    7  C   UNL     1      21.240  47.418  48.718  1.00  0.00     0.061 C 
HETATM    8  C   UNL     1      22.709  46.958  48.605  1.00  0.00     0.132 C 
HETATM    9  N   UNL     1      21.942  50.989  48.812  1.00  0.00    -0.357 N 
HETATM   10  H   UNL     1      22.558  51.780  48.944  1.00  0.00     0.166 HD
HETATM   11  C   UNL     1      20.594  51.088  48.536  1.00  0.00     0.043 A 
HETATM   12  C   UNL     1      20.088  49.788  48.444  1.00  0.00    -0.001 A 
HETATM   13  C   UNL     1      19.792  52.222  48.370  1.00  0.00     0.030 A 
HETATM   14  C   UNL     1      18.434  52.023  48.108  1.00  0.00     0.002 A 
HETATM   15  C   UNL     1      17.901  50.739  48.013  1.00  0.00     0.001 A 
HETATM   16  C   UNL     1      18.717  49.613  48.179  1.00  0.00     0.014 A 
HETATM   17  O   UNL     1      25.486  47.942  50.758  1.00  0.00    -0.247 OA
HETATM   18  H   UNL     1      23.503  45.499  50.488  1.00  0.00     0.171 HD
ENDROOT
BRANCH   1  19
HETATM   19  C   UNL     1      25.198  45.117  51.544  1.00  0.00     0.071 A 
HETATM   20  C   UNL     1      26.035  44.164  50.933  1.00  0.00     0.116 A 
HETATM   21  C   UNL     1      26.783  43.269  51.709  1.00  0.00     0.069 A 
HETATM   22 CL   UNL     1      27.754  42.036  50.989  1.00  0.00    -0.081 Cl
HETATM   23  C   UNL     1      26.750  43.360  53.099  1.00  0.00     0.027 A 
HETATM   24  C   UNL     1      25.965  44.336  53.711  1.00  0.00     0.004 A 
HETATM   25  C   UNL     1      25.192  45.210  52.938  1.00  0.00     0.032 A 
BRANCH  20  26
HETATM   26  O   UNL     1      26.059  44.095  49.555  1.00  0.00    -0.352 OA
HETATM   27  C   UNL     1      25.141  43.096  49.101  1.00  0.00     0.210 C 
ENDBRANCH  20  26
ENDBRANCH   1  19
TORSDOF 2
ENDMDL
MODEL 7
REMARK VINA RESULT:      -8.0      6.000      8.991
REMARK  2 active torsions:
REMARK  status: ('A' for Active; 'I' for Inactive)
REMARK    1  A    between atoms: O_2  and  C_3 
REMARK    2  A    between atoms: C_9  and  N_10 
REMARK       I    between atoms: N_10  and  C_11 
REMARK       I    between atoms: C_11  and  N_12 
ROOT
HETATM    1  N   UNL     1      28.478  42.795  52.542  1.00  0.00    -0.306 N 
HETATM    2  C   UNL     1      28.516  41.465  52.206  1.00  0.00     0.323 C 
HETATM    3  N   UNL     1      27.906  41.147  50.998  1.00  0.00    -0.328 N 
HETATM    4  C   UNL     1      28.046  39.758  50.539  1.00  0.00     0.185 C 
HETATM    5  C   UNL     1      27.988  39.746  49.050  1.00  0.00     0.035 A 
HETATM    6  C   UNL     1      27.619  40.789  48.224  1.00  0.00    -0.020 A 
HETATM    7  C   UNL     1      27.233  42.113  48.785  1.00  0.00     0.061 C 
HETATM    8  C   UNL     1      26.896  41.963  50.282  1.00  0.00     0.132 C 
HETATM    9  N   UNL     1      28.305  38.674  48.265  1.00  0.00    -0.357 N 
HETATM   10  H   UNL     1      28.618  37.771  48.595  1.00  0.00     0.166 HD
HETATM   11  C   UNL     1      28.158  39.009  46.934  1.00  0.00     0.043 A 
HETATM   12  C   UNL     1      27.730  40.339  46.882  1.00  0.00    -0.001 A 
HETATM   13  C   UNL     1      28.380  38.243  45.785  1.00  0.00     0.030 A 
HETATM   14  C   UNL     1      28.162  38.853  44.546  1.00  0.00     0.002 A 
HETATM   15  C   UNL     1      27.737  40.177  44.463  1.00  0.00     0.001 A 
HETATM   16  C   UNL     1      27.517  40.931  45.622  1.00  0.00     0.014 A 
HETATM   17  O   UNL     1      29.051  40.594  52.889  1.00  0.00    -0.247 OA
HETATM   18  H   UNL     1      28.221  43.446  51.815  1.00  0.00     0.171 HD
ENDROOT
BRANCH   1  19
HETATM   19  C   UNL     1      29.008  43.429  53.690  1.00  0.00     0.071 A 
HETATM   20  C   UNL     1      28.295  44.529  54.204  1.00  0.00     0.116 A 
HETATM   21  C   UNL     1      28.805  45.270  55.278  1.00  0.00     0.069 A 
HETATM   22 CL   UNL     1      27.996  46.673  55.877  1.00  0.00    -0.081 Cl
HETATM   23  C   UNL     1      29.998  44.883  55.886  1.00  0.00     0.027 A 
HETATM   24  C   UNL     1      30.682  43.763  55.416  1.00  0.00     0.004 A 
HETATM   25  C   UNL     1      30.191  43.039  54.325  1.00  0.00     0.032 A 
BRANCH  20  26
HETATM   26  O   UNL     1      27.114  44.893  53.593  1.00  0.00    -0.352 OA
HETATM   27  C   UNL     1      26.008  44.291  54.274  1.00  0.00     0.210 C 
ENDBRANCH  20  26
ENDBRANCH   1  19
TORSDOF 2
ENDMDL
MODEL 8
REMARK VINA RESULT:      -7.9      5.604     11.341
REMARK  2 active torsions:
REMARK  status: ('A' for Active; 'I' for Inactive)
REMARK    1  A    between atoms: O_2  and  C_3 
REMARK    2  A    between atoms: C_9  and  N_10 
REMARK       I    between atoms: N_10  and  C_11 
REMARK       I    between atoms: C_11  and  N_12 
ROOT
HETATM    1  N   UNL     1      22.444  47.905  49.377  1.00  0.00    -0.306 N 
HETATM    2  C   UNL     1      21.662  48.031  48.256  1.00  0.00     0.323 C 
HETATM    3  N   UNL     1      20.348  48.414  48.499  1.00  0.00    -0.328 N 
HETATM    4  C   UNL     1      19.518  48.693  47.318  1.00  0.00     0.185 C 
HETATM    5  C   UNL     1      18.481  49.693  47.697  1.00  0.00     0.035 A 
HETATM    6  C   UNL     1      18.160  50.116  48.972  1.00  0.00    -0.020 A 
HETATM    7  C   UNL     1      18.882  49.585  50.162  1.00  0.00     0.061 C 
HETATM    8  C   UNL     1      19.617  48.283  49.783  1.00  0.00     0.132 C 
HETATM    9  N   UNL     1      17.677  50.357  46.815  1.00  0.00    -0.357 N 
HETATM   10  H   UNL     1      17.692  50.255  45.809  1.00  0.00     0.166 HD
HETATM   11  C   UNL     1      16.844  51.219  47.499  1.00  0.00     0.043 A 
HETATM   12  C   UNL     1      17.132  51.088  48.860  1.00  0.00    -0.001 A 
HETATM   13  C   UNL     1      15.872  52.102  47.015  1.00  0.00     0.030 A 
HETATM   14  C   UNL     1      15.178  52.877  47.948  1.00  0.00     0.002 A 
HETATM   15  C   UNL     1      15.445  52.770  49.311  1.00  0.00     0.001 A 
HETATM   16  C   UNL     1      16.418  51.880  49.781  1.00  0.00     0.014 A 
HETATM   17  O   UNL     1      22.061  47.843  47.109  1.00  0.00    -0.247 OA
HETATM   18  H   UNL     1      22.087  48.298  50.234  1.00  0.00     0.171 HD
ENDROOT
BRANCH   1  19
HETATM   19  C   UNL     1      23.809  47.540  49.462  1.00  0.00     0.071 A 
HETATM   20  C   UNL     1      24.103  46.166  49.545  1.00  0.00     0.116 A 
HETATM   21  C   UNL     1      25.421  45.729  49.730  1.00  0.00     0.069 A 
HETATM   22 CL   UNL     1      25.805  44.056  49.919  1.00  0.00    -0.081 Cl
HETATM   23  C   UNL     1      26.462  46.656  49.771  1.00  0.00     0.027 A 
HETATM   24  C   UNL     1      26.183  48.015  49.635  1.00  0.00     0.004 A 
HETATM   25  C   UNL     1      24.864  48.456  49.481  1.00  0.00     0.032 A 
BRANCH  20  26
HETATM   26  O   UNL     1      23.061  45.264  49.496  1.00  0.00    -0.352 OA
HETATM   27  C   UNL     1      23.027  44.629  48.213  1.00  0.00     0.210 C 
ENDBRANCH  20  26
ENDBRANCH   1  19
TORSDOF 2
ENDMDL
MODEL 9
REMARK VINA RESULT:      -7.6     11.602     14.535
REMARK  2 active torsions:
REMARK  status: ('A' for Active; 'I' for Inactive)
REMARK    1  A    between atoms: O_2  and  C_3 
REMARK    2  A    between atoms: C_9  and  N_10 
REMARK       I    between atoms: N_10  and  C_11 
REMARK       I    between atoms: C_11  and  N_12 
ROOT
HETATM    1  N   UNL     1      31.909  50.495  41.654  1.00  0.00    -0.306 N 
HETATM    2  C   UNL     1      30.976  49.630  42.167  1.00  0.00     0.323 C 
HETATM    3  N   UNL     1      29.668  49.871  41.762  1.00  0.00    -0.328 N 
HETATM    4  C   UNL     1      28.661  48.885  42.180  1.00  0.00     0.185 C 
HETATM    5  C   UNL     1      27.565  48.874  41.170  1.00  0.00     0.035 A 
HETATM    6  C   UNL     1      27.366  49.783  40.150  1.00  0.00    -0.020 A 
HETATM    7  C   UNL     1      28.299  50.926  39.946  1.00  0.00     0.061 C 
HETATM    8  C   UNL     1      29.135  51.146  41.224  1.00  0.00     0.132 C 
HETATM    9  N   UNL     1      26.575  47.935  41.102  1.00  0.00    -0.357 N 
HETATM   10  H   UNL     1      26.470  47.141  41.718  1.00  0.00     0.166 HD
HETATM   11  C   UNL     1      25.738  48.215  40.041  1.00  0.00     0.043 A 
HETATM   12  C   UNL     1      26.218  49.373  39.423  1.00  0.00    -0.001 A 
HETATM   13  C   UNL     1      24.608  47.528  39.583  1.00  0.00     0.030 A 
HETATM   14  C   UNL     1      23.952  48.037  38.459  1.00  0.00     0.002 A 
HETATM   15  C   UNL     1      24.408  49.189  37.821  1.00  0.00     0.001 A 
HETATM   16  C   UNL     1      25.539  49.867  38.292  1.00  0.00     0.014 A 
HETATM   17  O   UNL     1      31.241  48.692  42.917  1.00  0.00    -0.247 OA
HETATM   18  H   UNL     1      31.622  51.076  40.881  1.00  0.00     0.171 HD
ENDROOT
BRANCH   1  19
HETATM   19  C   UNL     1      33.308  50.510  41.867  1.00  0.00     0.071 A 
HETATM   20  C   UNL     1      33.806  51.443  42.797  1.00  0.00     0.116 A 
HETATM   21  C   UNL     1      35.185  51.588  42.992  1.00  0.00     0.069 A 
HETATM   22 CL   UNL     1      35.830  52.778  44.064  1.00  0.00    -0.081 Cl
HETATM   23  C   UNL     1      36.075  50.761  42.308  1.00  0.00     0.027 A 
HETATM   24  C   UNL     1      35.586  49.799  41.425  1.00  0.00     0.004 A 
HETATM   25  C   UNL     1      34.210  49.674  41.205  1.00  0.00     0.032 A 
BRANCH  20  26
HETATM   26  O   UNL     1      32.910  52.247  43.470  1.00  0.00    -0.352 OA
HETATM   27  C   UNL     1      32.687  51.732  44.786  1.00  0.00     0.210 C 
ENDBRANCH  20  26
ENDBRANCH   1  19
TORSDOF 2
ENDMDL
MODEL 10
REMARK VINA RESULT:      -7.6     12.135     14.283
REMARK  2 active torsions:
REMARK  status: ('A' for Active; 'I' for Inactive)
REMARK    1  A    between atoms: O_2  and  C_3 
REMARK    2  A    between atoms: C_9  and  N_10 
REMARK       I    between atoms: N_10  and  C_11 
REMARK       I    between atoms: C_11  and  N_12 
ROOT
HETATM    1  N   UNL     1      31.084  50.242  42.004  1.00  0.00    -0.306 N 
HETATM    2  C   UNL     1      30.157  50.809  41.167  1.00  0.00     0.323 C 
HETATM    3  N   UNL     1      29.221  49.925  40.643  1.00  0.00    -0.328 N 
HETATM    4  C   UNL     1      28.132  50.517  39.854  1.00  0.00     0.185 C 
HETATM    5  C   UNL     1      26.936  49.636  39.968  1.00  0.00     0.035 A 
HETATM    6  C   UNL     1      26.888  48.362  40.499  1.00  0.00    -0.020 A 
HETATM    7  C   UNL     1      28.110  47.716  41.055  1.00  0.00     0.061 C 
HETATM    8  C   UNL     1      29.364  48.453  40.542  1.00  0.00     0.132 C 
HETATM    9  N   UNL     1      25.676  49.972  39.558  1.00  0.00    -0.357 N 
HETATM   10  H   UNL     1      25.407  50.850  39.137  1.00  0.00     0.166 HD
HETATM   11  C   UNL     1      24.805  48.936  39.827  1.00  0.00     0.043 A 
HETATM   12  C   UNL     1      25.544  47.911  40.423  1.00  0.00    -0.001 A 
HETATM   13  C   UNL     1      23.429  48.837  39.595  1.00  0.00     0.030 A 
HETATM   14  C   UNL     1      22.789  47.658  39.988  1.00  0.00     0.002 A 
HETATM   15  C   UNL     1      23.499  46.620  40.587  1.00  0.00     0.001 A 
HETATM   16  C   UNL     1      24.877  46.733  40.810  1.00  0.00     0.014 A 
HETATM   17  O   UNL     1      30.117  52.007  40.890  1.00  0.00    -0.247 OA
HETATM   18  H   UNL     1      30.892  49.310  42.340  1.00  0.00     0.171 HD
ENDROOT
BRANCH   1  19
HETATM   19  C   UNL     1      32.150  50.868  42.693  1.00  0.00     0.071 A 
HETATM   20  C   UNL     1      33.419  50.832  42.083  1.00  0.00     0.116 A 
HETATM   21  C   UNL     1      34.543  51.343  42.744  1.00  0.00     0.069 A 
HETATM   22 CL   UNL     1      36.125  51.239  42.059  1.00  0.00    -0.081 Cl
HETATM   23  C   UNL     1      34.400  51.950  43.991  1.00  0.00     0.027 A 
HETATM   24  C   UNL     1      33.138  52.037  44.577  1.00  0.00     0.004 A 
HETATM   25  C   UNL     1      32.019  51.499  43.932  1.00  0.00     0.032 A 
BRANCH  20  26
HETATM   26  O   UNL     1      33.539  50.234  40.846  1.00  0.00    -0.352 OA
HETATM   27  C   UNL     1      33.528  51.232  39.820  1.00  0.00     0.210 C 
ENDBRANCH  20  26
ENDBRANCH   1  19
TORSDOF 2
ENDMDL
