MODEL 1
REMARK VINA RESULT:     -10.4      0.000      0.000
REMARK  6 active torsions:
REMARK  status: ('A' for Active; 'I' for Inactive)
REMARK    1  A    between atoms: C_3  and  C_4 
REMARK    2  A    between atoms: C_4  and  C_5 
REMARK       I    between atoms: C_5  and  N_6 
REMARK    3  A    between atoms: N_6  and  C_7 
REMARK    4  A    between atoms: C_7  and  C_8 
REMARK    5  A    between atoms: C_8  and  C_9 
REMARK    6  A    between atoms: C_28  and  O_29 
ROOT
HETATM    1  C   UNL     1      26.864  44.570  51.437  1.00  0.00     0.222 C 
HETATM    2  N   UNL     1      25.833  45.450  51.193  1.00  0.00    -0.360 N 
HETATM    3  O   UNL     1      27.861  44.487  50.722  1.00  0.00    -0.273 OA
HETATM    4  H   UNL     1      25.081  45.543  51.873  1.00  0.00     0.162 HD
ENDROOT
BRANCH   1   5
HETATM    5  C   UNL     1      26.680  43.687  52.656  1.00  0.00     0.148 C 
BRANCH   5   6
HETATM    6  C   UNL     1      27.673  44.046  53.729  1.00  0.00     0.033 C 
HETATM    7  C   UNL     1      28.791  43.353  54.027  1.00  0.00    -0.036 C 
HETATM    8  C   UNL     1      29.244  42.131  53.268  1.00  0.00     0.050 C 
HETATM    9  C   UNL     1      29.617  43.788  55.173  1.00  0.00     0.005 A 
HETATM   10  C   UNL     1      29.137  44.791  56.020  1.00  0.00     0.099 A 
HETATM   11  C   UNL     1      30.849  43.205  55.494  1.00  0.00     0.017 A 
HETATM   12  O   UNL     1      27.958  45.490  55.682  1.00  0.00    -0.274 OA
HETATM   13  C   UNL     1      29.798  45.181  57.203  1.00  0.00     0.006 A 
HETATM   14  C   UNL     1      27.301  45.267  54.485  1.00  0.00     0.295 C 
HETATM   15  O   UNL     1      26.418  46.023  54.087  1.00  0.00    -0.259 OA
HETATM   16  C   UNL     1      29.207  46.221  58.111  1.00  0.00     0.054 C 
HETATM   17  C   UNL     1      31.032  44.582  57.474  1.00  0.00     0.074 A 
HETATM   18  C   UNL     1      31.555  43.607  56.629  1.00  0.00     0.038 A 
BRANCH  17  19
HETATM   19  O   UNL     1      31.800  44.901  58.556  1.00  0.00    -0.360 OA
HETATM   20  H   UNL     1      31.308  45.498  59.142  1.00  0.00     0.217 HD
ENDBRANCH  17  19
ENDBRANCH   5   6
ENDBRANCH   1   5
BRANCH   2  21
HETATM   21  C   UNL     1      25.834  46.279  49.999  1.00  0.00     0.127 C 
BRANCH  21  22
HETATM   22  C   UNL     1      26.337  47.697  50.294  1.00  0.00     0.060 C 
BRANCH  22  23
HETATM   23  C   UNL     1      25.838  48.713  49.315  1.00  0.00    -0.029 A 
HETATM   24  C   UNL     1      24.479  49.026  48.991  1.00  0.00    -0.000 A 
HETATM   25  C   UNL     1      24.502  50.012  48.002  1.00  0.00     0.043 A 
HETATM   26  C   UNL     1      23.228  48.556  49.442  1.00  0.00     0.038 A 
HETATM   27  C   UNL     1      23.341  50.550  47.435  1.00  0.00     0.032 A 
HETATM   28  N   UNL     1      25.822  50.293  47.741  1.00  0.00    -0.365 N 
HETATM   29  C   UNL     1      22.114  50.068  47.897  1.00  0.00     0.026 A 
HETATM   30  C   UNL     1      22.061  49.089  48.885  1.00  0.00     0.035 A 
HETATM   31 CL   UNL     1      20.530  48.518  49.432  1.00  0.00    -0.084 Cl
HETATM   32  H   UNL     1      26.144  50.970  47.063  1.00  0.00     0.165 HD
HETATM   33  C   UNL     1      26.633  49.520  48.524  1.00  0.00     0.096 A 
ENDBRANCH  22  23
ENDBRANCH  21  22
ENDBRANCH   2  21
TORSDOF 6
ENDMDL
MODEL 2
REMARK VINA RESULT:     -10.4      1.511      2.074
REMARK  6 active torsions:
REMARK  status: ('A' for Active; 'I' for Inactive)
REMARK    1  A    between atoms: C_3  and  C_4 
REMARK    2  A    between atoms: C_4  and  C_5 
REMARK       I    between atoms: C_5  and  N_6 
REMARK    3  A    between atoms: N_6  and  C_7 
REMARK    4  A    between atoms: C_7  and  C_8 
REMARK    5  A    between atoms: C_8  and  C_9 
REMARK    6  A    between atoms: C_28  and  O_29 
ROOT
HETATM    1  C   UNL     1      25.669  46.750  52.240  1.00  0.00     0.222 C 
HETATM    2  N   UNL     1      24.882  46.021  51.376  1.00  0.00    -0.360 N 
HETATM    3  O   UNL     1      26.455  47.617  51.865  1.00  0.00    -0.273 OA
HETATM    4  H   UNL     1      24.181  45.386  51.750  1.00  0.00     0.162 HD
ENDROOT
BRANCH   1   5
HETATM    5  C   UNL     1      25.511  46.395  53.706  1.00  0.00     0.148 C 
BRANCH   5   6
HETATM    6  C   UNL     1      26.837  46.006  54.305  1.00  0.00     0.033 C 
HETATM    7  C   UNL     1      27.514  44.870  54.042  1.00  0.00    -0.036 C 
HETATM    8  C   UNL     1      27.058  43.839  53.040  1.00  0.00     0.050 C 
HETATM    9  C   UNL     1      28.761  44.593  54.785  1.00  0.00     0.005 A 
HETATM   10  C   UNL     1      29.118  45.420  55.855  1.00  0.00     0.099 A 
HETATM   11  C   UNL     1      29.592  43.501  54.506  1.00  0.00     0.017 A 
HETATM   12  O   UNL     1      28.381  46.597  56.107  1.00  0.00    -0.274 OA
HETATM   13  C   UNL     1      30.221  45.160  56.693  1.00  0.00     0.006 A 
HETATM   14  C   UNL     1      27.357  47.005  55.271  1.00  0.00     0.295 C 
HETATM   15  O   UNL     1      26.870  48.130  55.355  1.00  0.00    -0.259 OA
HETATM   16  C   UNL     1      30.524  46.045  57.868  1.00  0.00     0.054 C 
HETATM   17  C   UNL     1      31.029  44.067  56.367  1.00  0.00     0.074 A 
HETATM   18  C   UNL     1      30.723  43.247  55.285  1.00  0.00     0.038 A 
BRANCH  17  19
HETATM   19  O   UNL     1      32.154  43.731  57.063  1.00  0.00    -0.360 OA
HETATM   20  H   UNL     1      32.816  43.361  56.458  1.00  0.00     0.217 HD
ENDBRANCH  17  19
ENDBRANCH   5   6
ENDBRANCH   1   5
BRANCH   2  21
HETATM   21  C   UNL     1      25.012  46.187  49.937  1.00  0.00     0.127 C 
BRANCH  21  22
HETATM   22  C   UNL     1      23.685  46.597  49.291  1.00  0.00     0.060 C 
BRANCH  22  23
HETATM   23  C   UNL     1      23.561  48.075  49.091  1.00  0.00    -0.029 A 
HETATM   24  C   UNL     1      22.361  48.850  48.996  1.00  0.00    -0.000 A 
HETATM   25  C   UNL     1      22.737  50.177  48.776  1.00  0.00     0.043 A 
HETATM   26  C   UNL     1      20.986  48.545  49.069  1.00  0.00     0.038 A 
HETATM   27  C   UNL     1      21.813  51.216  48.619  1.00  0.00     0.032 A 
HETATM   28  N   UNL     1      24.112  50.209  48.747  1.00  0.00    -0.365 N 
HETATM   29  C   UNL     1      20.456  50.889  48.693  1.00  0.00     0.026 A 
HETATM   30  C   UNL     1      20.053  49.575  48.916  1.00  0.00     0.035 A 
HETATM   31 CL   UNL     1      18.371  49.209  49.004  1.00  0.00    -0.084 Cl
HETATM   32  H   UNL     1      24.666  51.042  48.601  1.00  0.00     0.165 HD
HETATM   33  C   UNL     1      24.616  48.953  48.936  1.00  0.00     0.096 A 
ENDBRANCH  22  23
ENDBRANCH  21  22
ENDBRANCH   2  21
TORSDOF 6
ENDMDL
MODEL 3
REMARK VINA RESULT:      -9.9      2.066      2.793
REMARK  6 active torsions:
REMARK  status: ('A' for Active; 'I' for Inactive)
REMARK    1  A    between atoms: C_3  and  C_4 
REMARK    2  A    between atoms: C_4  and  C_5 
REMARK       I    between atoms: C_5  and  N_6 
REMARK    3  A    between atoms: N_6  and  C_7 
REMARK    4  A    between atoms: C_7  and  C_8 
REMARK    5  A    between atoms: C_8  and  C_9 
REMARK    6  A    between atoms: C_28  and  O_29 
ROOT
HETATM    1  C   UNL     1      25.550  46.868  52.268  1.00  0.00     0.222 C 
HETATM    2  N   UNL     1      24.640  46.351  51.373  1.00  0.00    -0.360 N 
HETATM    3  O   UNL     1      26.432  47.661  51.948  1.00  0.00    -0.273 OA
HETATM    4  H   UNL     1      23.873  45.775  51.713  1.00  0.00     0.162 HD
ENDROOT
BRANCH   1   5
HETATM    5  C   UNL     1      25.397  46.377  53.695  1.00  0.00     0.148 C 
BRANCH   5   6
HETATM    6  C   UNL     1      26.733  45.988  54.270  1.00  0.00     0.033 C 
HETATM    7  C   UNL     1      27.409  44.856  53.985  1.00  0.00    -0.036 C 
HETATM    8  C   UNL     1      26.942  43.833  52.981  1.00  0.00     0.050 C 
HETATM    9  C   UNL     1      28.670  44.577  54.705  1.00  0.00     0.005 A 
HETATM   10  C   UNL     1      29.041  45.395  55.777  1.00  0.00     0.099 A 
HETATM   11  C   UNL     1      29.500  43.490  54.403  1.00  0.00     0.017 A 
HETATM   12  O   UNL     1      28.303  46.567  56.052  1.00  0.00    -0.274 OA
HETATM   13  C   UNL     1      30.157  45.131  56.596  1.00  0.00     0.006 A 
HETATM   14  C   UNL     1      27.265  46.978  55.237  1.00  0.00     0.295 C 
HETATM   15  O   UNL     1      26.775  48.101  55.339  1.00  0.00    -0.259 OA
HETATM   16  C   UNL     1      30.476  46.006  57.774  1.00  0.00     0.054 C 
HETATM   17  C   UNL     1      30.964  44.044  56.247  1.00  0.00     0.074 A 
HETATM   18  C   UNL     1      30.644  43.233  55.162  1.00  0.00     0.038 A 
BRANCH  17  19
HETATM   19  O   UNL     1      32.101  43.706  56.922  1.00  0.00    -0.360 OA
HETATM   20  H   UNL     1      31.878  43.140  57.678  1.00  0.00     0.217 HD
ENDBRANCH  17  19
ENDBRANCH   5   6
ENDBRANCH   1   5
BRANCH   2  21
HETATM   21  C   UNL     1      24.741  46.656  49.955  1.00  0.00     0.127 C 
BRANCH  21  22
HETATM   22  C   UNL     1      23.961  47.924  49.592  1.00  0.00     0.060 C 
BRANCH  22  23
HETATM   23  C   UNL     1      22.799  47.661  48.688  1.00  0.00    -0.029 A 
HETATM   24  C   UNL     1      21.745  48.560  48.328  1.00  0.00    -0.000 A 
HETATM   25  C   UNL     1      20.869  47.865  47.490  1.00  0.00     0.043 A 
HETATM   26  C   UNL     1      21.447  49.902  48.644  1.00  0.00     0.038 A 
HETATM   27  C   UNL     1      19.710  48.437  46.956  1.00  0.00     0.032 A 
HETATM   28  N   UNL     1      21.376  46.595  47.340  1.00  0.00    -0.365 N 
HETATM   29  C   UNL     1      19.435  49.767  47.284  1.00  0.00     0.026 A 
HETATM   30  C   UNL     1      20.293  50.486  48.113  1.00  0.00     0.035 A 
HETATM   31 CL   UNL     1      19.925  52.125  48.496  1.00  0.00    -0.084 Cl
HETATM   32  H   UNL     1      20.948  45.867  46.785  1.00  0.00     0.165 HD
HETATM   33  C   UNL     1      22.534  46.462  48.053  1.00  0.00     0.096 A 
ENDBRANCH  22  23
ENDBRANCH  21  22
ENDBRANCH   2  21
TORSDOF 6
ENDMDL
MODEL 4
REMARK VINA RESULT:      -9.9      1.885      3.006
REMARK  6 active torsions:
REMARK  status: ('A' for Active; 'I' for Inactive)
REMARK    1  A    between atoms: C_3  and  C_4 
REMARK    2  A    between atoms: C_4  and  C_5 
REMARK       I    between atoms: C_5  and  N_6 
REMARK    3  A    between atoms: N_6  and  C_7 
REMARK    4  A    between atoms: C_7  and  C_8 
REMARK    5  A    between atoms: C_8  and  C_9 
REMARK    6  A    between atoms: C_28  and  O_29 
ROOT
HETATM    1  C   UNL     1      25.420  47.058  51.750  1.00  0.00     0.222 C 
HETATM    2  N   UNL     1      24.465  46.370  51.034  1.00  0.00    -0.360 N 
HETATM    3  O   UNL     1      26.324  47.700  51.221  1.00  0.00    -0.273 OA
HETATM    4  H   UNL     1      23.685  45.937  51.524  1.00  0.00     0.162 HD
ENDROOT
BRANCH   1   5
HETATM    5  C   UNL     1      25.287  46.957  53.258  1.00  0.00     0.148 C 
BRANCH   5   6
HETATM    6  C   UNL     1      26.411  46.139  53.837  1.00  0.00     0.033 C 
HETATM    7  C   UNL     1      27.374  46.601  54.660  1.00  0.00    -0.036 C 
HETATM    8  C   UNL     1      27.423  48.017  55.177  1.00  0.00     0.050 C 
HETATM    9  C   UNL     1      28.463  45.689  55.069  1.00  0.00     0.005 A 
HETATM   10  C   UNL     1      28.566  44.432  54.465  1.00  0.00     0.099 A 
HETATM   11  C   UNL     1      29.443  46.039  56.006  1.00  0.00     0.017 A 
HETATM   12  O   UNL     1      27.543  43.985  53.601  1.00  0.00    -0.274 OA
HETATM   13  C   UNL     1      29.638  43.550  54.703  1.00  0.00     0.006 A 
HETATM   14  C   UNL     1      26.392  44.723  53.396  1.00  0.00     0.295 C 
HETATM   15  O   UNL     1      25.411  44.240  52.833  1.00  0.00    -0.259 OA
HETATM   16  C   UNL     1      29.734  42.237  53.979  1.00  0.00     0.054 C 
HETATM   17  C   UNL     1      30.586  43.936  55.656  1.00  0.00     0.074 A 
HETATM   18  C   UNL     1      30.490  45.164  56.304  1.00  0.00     0.038 A 
BRANCH  17  19
HETATM   19  O   UNL     1      31.646  43.156  56.019  1.00  0.00    -0.360 OA
HETATM   20  H   UNL     1      32.096  42.825  55.226  1.00  0.00     0.217 HD
ENDBRANCH  17  19
ENDBRANCH   5   6
ENDBRANCH   1   5
BRANCH   2  21
HETATM   21  C   UNL     1      24.538  46.296  49.584  1.00  0.00     0.127 C 
BRANCH  21  22
HETATM   22  C   UNL     1      23.223  46.730  48.928  1.00  0.00     0.060 C 
BRANCH  22  23
HETATM   23  C   UNL     1      23.084  48.215  48.815  1.00  0.00    -0.029 A 
HETATM   24  C   UNL     1      21.882  48.990  48.858  1.00  0.00    -0.000 A 
HETATM   25  C   UNL     1      22.240  50.329  48.677  1.00  0.00     0.043 A 
HETATM   26  C   UNL     1      20.517  48.679  49.026  1.00  0.00     0.038 A 
HETATM   27  C   UNL     1      21.307  51.371  48.649  1.00  0.00     0.032 A 
HETATM   28  N   UNL     1      23.608  50.366  48.538  1.00  0.00    -0.365 N 
HETATM   29  C   UNL     1      19.961  51.037  48.816  1.00  0.00     0.026 A 
HETATM   30  C   UNL     1      19.575  49.712  49.003  1.00  0.00     0.035 A 
HETATM   31 CL   UNL     1      17.906  49.336  49.208  1.00  0.00    -0.084 Cl
HETATM   32  H   UNL     1      24.149  51.207  48.391  1.00  0.00     0.165 HD
HETATM   33  C   UNL     1      24.125  49.104  48.620  1.00  0.00     0.096 A 
ENDBRANCH  22  23
ENDBRANCH  21  22
ENDBRANCH   2  21
TORSDOF 6
ENDMDL
MODEL 5
REMARK VINA RESULT:      -9.8      4.048     10.100
REMARK  6 active torsions:
REMARK  status: ('A' for Active; 'I' for Inactive)
REMARK    1  A    between atoms: C_3  and  C_4 
REMARK    2  A    between atoms: C_4  and  C_5 
REMARK       I    between atoms: C_5  and  N_6 
REMARK    3  A    between atoms: N_6  and  C_7 
REMARK    4  A    between atoms: C_7  and  C_8 
REMARK    5  A    between atoms: C_8  and  C_9 
REMARK    6  A    between atoms: C_28  and  O_29 
ROOT
HETATM    1  C   UNL     1      25.254  44.747  51.011  1.00  0.00     0.222 C 
HETATM    2  N   UNL     1      26.477  44.830  51.639  1.00  0.00    -0.360 N 
HETATM    3  O   UNL     1      24.249  44.293  51.553  1.00  0.00    -0.273 OA
HETATM    4  H   UNL     1      27.249  45.304  51.174  1.00  0.00     0.162 HD
ENDROOT
BRANCH   1   5
HETATM    5  C   UNL     1      25.233  45.247  49.579  1.00  0.00     0.148 C 
BRANCH   5   6
HETATM    6  C   UNL     1      24.260  46.387  49.428  1.00  0.00     0.033 C 
HETATM    7  C   UNL     1      23.023  46.297  48.898  1.00  0.00    -0.036 C 
HETATM    8  C   UNL     1      22.405  45.003  48.433  1.00  0.00     0.050 C 
HETATM    9  C   UNL     1      22.224  47.530  48.736  1.00  0.00     0.005 A 
HETATM   10  C   UNL     1      22.825  48.771  48.972  1.00  0.00     0.099 A 
HETATM   11  C   UNL     1      20.892  47.528  48.303  1.00  0.00     0.017 A 
HETATM   12  O   UNL     1      24.125  48.827  49.519  1.00  0.00    -0.274 OA
HETATM   13  C   UNL     1      22.178  49.998  48.725  1.00  0.00     0.006 A 
HETATM   14  C   UNL     1      24.798  47.683  49.909  1.00  0.00     0.295 C 
HETATM   15  O   UNL     1      25.821  47.740  50.587  1.00  0.00    -0.259 OA
HETATM   16  C   UNL     1      22.891  51.303  48.935  1.00  0.00     0.054 C 
HETATM   17  C   UNL     1      20.845  49.946  48.306  1.00  0.00     0.074 A 
HETATM   18  C   UNL     1      20.206  48.728  48.100  1.00  0.00     0.038 A 
BRANCH  17  19
HETATM   19  O   UNL     1      20.086  51.058  48.079  1.00  0.00    -0.360 OA
HETATM   20  H   UNL     1      20.410  51.793  48.623  1.00  0.00     0.217 HD
ENDBRANCH  17  19
ENDBRANCH   5   6
ENDBRANCH   1   5
BRANCH   2  21
HETATM   21  C   UNL     1      26.661  44.288  52.975  1.00  0.00     0.127 C 
BRANCH  21  22
HETATM   22  C   UNL     1      28.128  44.352  53.415  1.00  0.00     0.060 C 
BRANCH  22  23
HETATM   23  C   UNL     1      28.337  45.174  54.648  1.00  0.00    -0.029 A 
HETATM   24  C   UNL     1      29.303  44.972  55.683  1.00  0.00    -0.000 A 
HETATM   25  C   UNL     1      29.100  45.965  56.645  1.00  0.00     0.043 A 
HETATM   26  C   UNL     1      30.331  44.030  55.899  1.00  0.00     0.038 A 
HETATM   27  C   UNL     1      29.864  46.064  57.813  1.00  0.00     0.032 A 
HETATM   28  N   UNL     1      28.056  46.745  56.206  1.00  0.00    -0.365 N 
HETATM   29  C   UNL     1      30.875  45.119  58.005  1.00  0.00     0.026 A 
HETATM   30  C   UNL     1      31.103  44.121  57.061  1.00  0.00     0.035 A 
HETATM   31 CL   UNL     1      32.360  42.972  57.330  1.00  0.00    -0.084 Cl
HETATM   32  H   UNL     1      27.685  47.543  56.703  1.00  0.00     0.165 HD
HETATM   33  C   UNL     1      27.591  46.280  55.008  1.00  0.00     0.096 A 
ENDBRANCH  22  23
ENDBRANCH  21  22
ENDBRANCH   2  21
TORSDOF 6
ENDMDL
MODEL 6
REMARK VINA RESULT:      -9.8      3.918     10.030
REMARK  6 active torsions:
REMARK  status: ('A' for Active; 'I' for Inactive)
REMARK    1  A    between atoms: C_3  and  C_4 
REMARK    2  A    between atoms: C_4  and  C_5 
REMARK       I    between atoms: C_5  and  N_6 
REMARK    3  A    between atoms: N_6  and  C_7 
REMARK    4  A    between atoms: C_7  and  C_8 
REMARK    5  A    between atoms: C_8  and  C_9 
REMARK    6  A    between atoms: C_28  and  O_29 
ROOT
HETATM    1  C   UNL     1      24.595  44.989  50.969  1.00  0.00     0.222 C 
HETATM    2  N   UNL     1      25.354  45.746  51.836  1.00  0.00    -0.360 N 
HETATM    3  O   UNL     1      23.872  44.067  51.338  1.00  0.00    -0.273 OA
HETATM    4  H   UNL     1      25.857  46.557  51.484  1.00  0.00     0.162 HD
ENDROOT
BRANCH   1   5
HETATM    5  C   UNL     1      24.725  45.367  49.506  1.00  0.00     0.148 C 
BRANCH   5   6
HETATM    6  C   UNL     1      23.857  46.555  49.184  1.00  0.00     0.033 C 
HETATM    7  C   UNL     1      24.248  47.845  49.224  1.00  0.00    -0.036 C 
HETATM    8  C   UNL     1      25.656  48.282  49.540  1.00  0.00     0.050 C 
HETATM    9  C   UNL     1      23.248  48.903  48.969  1.00  0.00     0.005 A 
HETATM   10  C   UNL     1      21.897  48.556  48.864  1.00  0.00     0.099 A 
HETATM   11  C   UNL     1      23.576  50.261  48.876  1.00  0.00     0.017 A 
HETATM   12  O   UNL     1      21.524  47.195  48.835  1.00  0.00    -0.274 OA
HETATM   13  C   UNL     1      20.865  49.509  48.744  1.00  0.00     0.006 A 
HETATM   14  C   UNL     1      22.467  46.184  48.825  1.00  0.00     0.295 C 
HETATM   15  O   UNL     1      22.159  45.021  48.572  1.00  0.00    -0.259 OA
HETATM   16  C   UNL     1      19.425  49.086  48.699  1.00  0.00     0.054 C 
HETATM   17  C   UNL     1      21.242  50.851  48.642  1.00  0.00     0.074 A 
HETATM   18  C   UNL     1      22.581  51.226  48.704  1.00  0.00     0.038 A 
BRANCH  17  19
HETATM   19  O   UNL     1      20.350  51.870  48.473  1.00  0.00    -0.360 OA
HETATM   20  H   UNL     1      20.014  52.158  49.336  1.00  0.00     0.217 HD
ENDBRANCH  17  19
ENDBRANCH   5   6
ENDBRANCH   1   5
BRANCH   2  21
HETATM   21  C   UNL     1      25.404  45.421  53.252  1.00  0.00     0.127 C 
BRANCH  21  22
HETATM   22  C   UNL     1      26.681  45.954  53.910  1.00  0.00     0.060 C 
BRANCH  22  23
HETATM   23  C   UNL     1      27.750  44.916  54.045  1.00  0.00    -0.029 A 
HETATM   24  C   UNL     1      28.796  44.855  55.020  1.00  0.00    -0.000 A 
HETATM   25  C   UNL     1      29.572  43.730  54.731  1.00  0.00     0.043 A 
HETATM   26  C   UNL     1      29.161  45.657  56.121  1.00  0.00     0.038 A 
HETATM   27  C   UNL     1      30.697  43.367  55.479  1.00  0.00     0.032 A 
HETATM   28  N   UNL     1      29.015  43.126  53.628  1.00  0.00    -0.365 N 
HETATM   29  C   UNL     1      31.041  44.178  56.564  1.00  0.00     0.026 A 
HETATM   30  C   UNL     1      30.282  45.303  56.878  1.00  0.00     0.035 A 
HETATM   31 CL   UNL     1      30.734  46.280  58.224  1.00  0.00    -0.084 Cl
HETATM   32  H   UNL     1      29.369  42.287  53.190  1.00  0.00     0.165 HD
HETATM   33  C   UNL     1      27.920  43.829  53.209  1.00  0.00     0.096 A 
ENDBRANCH  22  23
ENDBRANCH  21  22
ENDBRANCH   2  21
TORSDOF 6
ENDMDL
MODEL 7
REMARK VINA RESULT:      -9.7      2.429      3.631
REMARK  6 active torsions:
REMARK  status: ('A' for Active; 'I' for Inactive)
REMARK    1  A    between atoms: C_3  and  C_4 
REMARK    2  A    between atoms: C_4  and  C_5 
REMARK       I    between atoms: C_5  and  N_6 
REMARK    3  A    between atoms: N_6  and  C_7 
REMARK    4  A    between atoms: C_7  and  C_8 
REMARK    5  A    between atoms: C_8  and  C_9 
REMARK    6  A    between atoms: C_28  and  O_29 
ROOT
HETATM    1  C   UNL     1      24.858  46.419  50.449  1.00  0.00     0.222 C 
HETATM    2  N   UNL     1      23.908  47.415  50.415  1.00  0.00    -0.360 N 
HETATM    3  O   UNL     1      25.786  46.347  49.647  1.00  0.00    -0.273 OA
HETATM    4  H   UNL     1      23.220  47.479  51.163  1.00  0.00     0.162 HD
ENDROOT
BRANCH   1   5
HETATM    5  C   UNL     1      24.672  45.393  51.551  1.00  0.00     0.148 C 
BRANCH   5   6
HETATM    6  C   UNL     1      25.927  45.261  52.373  1.00  0.00     0.033 C 
HETATM    7  C   UNL     1      26.788  44.225  52.328  1.00  0.00    -0.036 C 
HETATM    8  C   UNL     1      26.646  43.060  51.381  1.00  0.00     0.050 C 
HETATM    9  C   UNL     1      27.929  44.203  53.268  1.00  0.00     0.005 A 
HETATM   10  C   UNL     1      27.993  45.157  54.288  1.00  0.00     0.099 A 
HETATM   11  C   UNL     1      28.938  43.232  53.226  1.00  0.00     0.017 A 
HETATM   12  O   UNL     1      27.068  46.223  54.309  1.00  0.00    -0.274 OA
HETATM   13  C   UNL     1      28.974  45.137  55.300  1.00  0.00     0.006 A 
HETATM   14  C   UNL     1      26.143  46.401  53.297  1.00  0.00     0.295 C 
HETATM   15  O   UNL     1      25.497  47.442  53.193  1.00  0.00    -0.259 OA
HETATM   16  C   UNL     1      28.960  46.149  56.410  1.00  0.00     0.054 C 
HETATM   17  C   UNL     1      29.968  44.158  55.208  1.00  0.00     0.074 A 
HETATM   18  C   UNL     1      29.955  43.218  54.183  1.00  0.00     0.038 A 
BRANCH  17  19
HETATM   19  O   UNL     1      31.004  44.056  56.091  1.00  0.00    -0.360 OA
HETATM   20  H   UNL     1      31.274  44.941  56.384  1.00  0.00     0.217 HD
ENDBRANCH  17  19
ENDBRANCH   5   6
ENDBRANCH   1   5
BRANCH   2  21
HETATM   21  C   UNL     1      23.908  48.402  49.347  1.00  0.00     0.127 C 
BRANCH  21  22
HETATM   22  C   UNL     1      23.019  47.969  48.176  1.00  0.00     0.060 C 
BRANCH  22  23
HETATM   23  C   UNL     1      21.617  47.646  48.590  1.00  0.00    -0.029 A 
HETATM   24  C   UNL     1      20.551  48.560  48.863  1.00  0.00    -0.000 A 
HETATM   25  C   UNL     1      19.440  47.804  49.246  1.00  0.00     0.043 A 
HETATM   26  C   UNL     1      20.426  49.964  48.828  1.00  0.00     0.038 A 
HETATM   27  C   UNL     1      18.213  48.376  49.602  1.00  0.00     0.032 A 
HETATM   28  N   UNL     1      19.815  46.482  49.199  1.00  0.00    -0.365 N 
HETATM   29  C   UNL     1      18.115  49.770  49.561  1.00  0.00     0.026 A 
HETATM   30  C   UNL     1      19.205  50.548  49.178  1.00  0.00     0.035 A 
HETATM   31 CL   UNL     1      19.048  52.264  49.137  1.00  0.00    -0.084 Cl
HETATM   32  H   UNL     1      19.212  45.704  49.429  1.00  0.00     0.165 HD
HETATM   33  C   UNL     1      21.119  46.375  48.806  1.00  0.00     0.096 A 
ENDBRANCH  22  23
ENDBRANCH  21  22
ENDBRANCH   2  21
TORSDOF 6
ENDMDL
MODEL 8
REMARK VINA RESULT:      -9.6      2.286      3.878
REMARK  6 active torsions:
REMARK  status: ('A' for Active; 'I' for Inactive)
REMARK    1  A    between atoms: C_3  and  C_4 
REMARK    2  A    between atoms: C_4  and  C_5 
REMARK       I    between atoms: C_5  and  N_6 
REMARK    3  A    between atoms: N_6  and  C_7 
REMARK    4  A    between atoms: C_7  and  C_8 
REMARK    5  A    between atoms: C_8  and  C_9 
REMARK    6  A    between atoms: C_28  and  O_29 
ROOT
HETATM    1  C   UNL     1      25.249  46.742  50.415  1.00  0.00     0.222 C 
HETATM    2  N   UNL     1      24.324  47.722  50.130  1.00  0.00    -0.360 N 
HETATM    3  O   UNL     1      26.377  46.720  49.929  1.00  0.00    -0.273 OA
HETATM    4  H   UNL     1      23.442  47.742  50.637  1.00  0.00     0.162 HD
ENDROOT
BRANCH   1   5
HETATM    5  C   UNL     1      24.771  45.667  51.373  1.00  0.00     0.148 C 
BRANCH   5   6
HETATM    6  C   UNL     1      25.900  45.197  52.251  1.00  0.00     0.033 C 
HETATM    7  C   UNL     1      26.403  45.867  53.309  1.00  0.00    -0.036 C 
HETATM    8  C   UNL     1      25.848  47.177  53.808  1.00  0.00     0.050 C 
HETATM    9  C   UNL     1      27.576  45.311  54.015  1.00  0.00     0.005 A 
HETATM   10  C   UNL     1      28.240  44.205  53.473  1.00  0.00     0.099 A 
HETATM   11  C   UNL     1      28.100  45.869  55.187  1.00  0.00     0.017 A 
HETATM   12  O   UNL     1      27.690  43.535  52.359  1.00  0.00    -0.274 OA
HETATM   13  C   UNL     1      29.436  43.687  54.010  1.00  0.00     0.006 A 
HETATM   14  C   UNL     1      26.462  43.889  51.833  1.00  0.00     0.295 C 
HETATM   15  O   UNL     1      25.880  43.173  51.021  1.00  0.00    -0.259 OA
HETATM   16  C   UNL     1      30.143  42.537  53.352  1.00  0.00     0.054 C 
HETATM   17  C   UNL     1      29.913  44.268  55.188  1.00  0.00     0.074 A 
HETATM   18  C   UNL     1      29.254  45.345  55.775  1.00  0.00     0.038 A 
BRANCH  17  19
HETATM   19  O   UNL     1      31.030  43.833  55.841  1.00  0.00    -0.360 OA
HETATM   20  H   UNL     1      31.500  44.589  56.228  1.00  0.00     0.217 HD
ENDBRANCH  17  19
ENDBRANCH   5   6
ENDBRANCH   1   5
BRANCH   2  21
HETATM   21  C   UNL     1      24.616  48.751  49.147  1.00  0.00     0.127 C 
BRANCH  21  22
HETATM   22  C   UNL     1      23.395  49.066  48.276  1.00  0.00     0.060 C 
BRANCH  22  23
HETATM   23  C   UNL     1      22.206  49.510  49.069  1.00  0.00    -0.029 A 
HETATM   24  C   UNL     1      20.925  48.879  49.157  1.00  0.00    -0.000 A 
HETATM   25  C   UNL     1      20.125  49.670  49.986  1.00  0.00     0.043 A 
HETATM   26  C   UNL     1      20.365  47.709  48.603  1.00  0.00     0.038 A 
HETATM   27  C   UNL     1      18.794  49.358  50.285  1.00  0.00     0.032 A 
HETATM   28  N   UNL     1      20.893  50.736  50.392  1.00  0.00    -0.365 N 
HETATM   29  C   UNL     1      18.261  48.195  49.722  1.00  0.00     0.026 A 
HETATM   30  C   UNL     1      19.037  47.385  48.897  1.00  0.00     0.035 A 
HETATM   31 CL   UNL     1      18.347  45.957  48.222  1.00  0.00    -0.084 Cl
HETATM   32  H   UNL     1      20.574  51.477  50.999  1.00  0.00     0.165 HD
HETATM   33  C   UNL     1      22.144  50.649  49.848  1.00  0.00     0.096 A 
ENDBRANCH  22  23
ENDBRANCH  21  22
ENDBRANCH   2  21
TORSDOF 6
ENDMDL
MODEL 9
REMARK VINA RESULT:      -9.5      3.475      8.895
REMARK  6 active torsions:
REMARK  status: ('A' for Active; 'I' for Inactive)
REMARK    1  A    between atoms: C_3  and  C_4 
REMARK    2  A    between atoms: C_4  and  C_5 
REMARK       I    between atoms: C_5  and  N_6 
REMARK    3  A    between atoms: N_6  and  C_7 
REMARK    4  A    between atoms: C_7  and  C_8 
REMARK    5  A    between atoms: C_8  and  C_9 
REMARK    6  A    between atoms: C_28  and  O_29 
ROOT
HETATM    1  C   UNL     1      26.114  43.279  51.552  1.00  0.00     0.222 C 
HETATM    2  N   UNL     1      26.762  42.703  52.622  1.00  0.00    -0.360 N 
HETATM    3  O   UNL     1      26.556  43.255  50.405  1.00  0.00    -0.273 OA
HETATM    4  H   UNL     1      26.302  42.670  53.529  1.00  0.00     0.162 HD
ENDROOT
BRANCH   1   5
HETATM    5  C   UNL     1      24.806  43.969  51.890  1.00  0.00     0.148 C 
BRANCH   5   6
HETATM    6  C   UNL     1      24.503  45.054  50.891  1.00  0.00     0.033 C 
HETATM    7  C   UNL     1      25.089  46.268  50.850  1.00  0.00    -0.036 C 
HETATM    8  C   UNL     1      26.198  46.692  51.780  1.00  0.00     0.050 C 
HETATM    9  C   UNL     1      24.613  47.258  49.861  1.00  0.00     0.005 A 
HETATM   10  C   UNL     1      23.465  46.980  49.113  1.00  0.00     0.099 A 
HETATM   11  C   UNL     1      25.228  48.501  49.665  1.00  0.00     0.017 A 
HETATM   12  O   UNL     1      22.873  45.701  49.187  1.00  0.00    -0.274 OA
HETATM   13  C   UNL     1      22.871  47.914  48.240  1.00  0.00     0.006 A 
HETATM   14  C   UNL     1      23.446  44.678  49.921  1.00  0.00     0.295 C 
HETATM   15  O   UNL     1      23.065  43.515  49.807  1.00  0.00    -0.259 OA
HETATM   16  C   UNL     1      21.601  47.587  47.507  1.00  0.00     0.054 C 
HETATM   17  C   UNL     1      23.529  49.136  48.066  1.00  0.00     0.074 A 
HETATM   18  C   UNL     1      24.695  49.428  48.766  1.00  0.00     0.038 A 
BRANCH  17  19
HETATM   19  O   UNL     1      23.091  50.108  47.214  1.00  0.00    -0.360 OA
HETATM   20  H   UNL     1      23.743  50.244  46.508  1.00  0.00     0.217 HD
ENDBRANCH  17  19
ENDBRANCH   5   6
ENDBRANCH   1   5
BRANCH   2  21
HETATM   21  C   UNL     1      28.076  42.102  52.456  1.00  0.00     0.127 C 
BRANCH  21  22
HETATM   22  C   UNL     1      29.186  43.158  52.459  1.00  0.00     0.060 C 
BRANCH  22  23
HETATM   23  C   UNL     1      29.611  43.560  53.837  1.00  0.00    -0.029 A 
HETATM   24  C   UNL     1      29.084  44.618  54.644  1.00  0.00    -0.000 A 
HETATM   25  C   UNL     1      29.813  44.637  55.836  1.00  0.00     0.043 A 
HETATM   26  C   UNL     1      28.058  45.569  54.470  1.00  0.00     0.038 A 
HETATM   27  C   UNL     1      29.575  45.560  56.860  1.00  0.00     0.032 A 
HETATM   28  N   UNL     1      30.740  43.625  55.759  1.00  0.00    -0.365 N 
HETATM   29  C   UNL     1      28.554  46.494  56.664  1.00  0.00     0.026 A 
HETATM   30  C   UNL     1      27.809  46.495  55.488  1.00  0.00     0.035 A 
HETATM   31 CL   UNL     1      26.556  47.661  55.280  1.00  0.00    -0.084 Cl
HETATM   32  H   UNL     1      31.411  43.403  56.482  1.00  0.00     0.165 HD
HETATM   33  C   UNL     1      30.627  42.971  54.565  1.00  0.00     0.096 A 
ENDBRANCH  22  23
ENDBRANCH  21  22
ENDBRANCH   2  21
TORSDOF 6
ENDMDL
MODEL 10
REMARK VINA RESULT:      -9.4      2.314      3.666
REMARK  6 active torsions:
REMARK  status: ('A' for Active; 'I' for Inactive)
REMARK    1  A    between atoms: C_3  and  C_4 
REMARK    2  A    between atoms: C_4  and  C_5 
REMARK       I    between atoms: C_5  and  N_6 
REMARK    3  A    between atoms: N_6  and  C_7 
REMARK    4  A    between atoms: C_7  and  C_8 
REMARK    5  A    between atoms: C_8  and  C_9 
REMARK    6  A    between atoms: C_28  and  O_29 
ROOT
HETATM    1  C   UNL     1      25.281  46.442  50.789  1.00  0.00     0.222 C 
HETATM    2  N   UNL     1      24.304  47.329  50.399  1.00  0.00    -0.360 N 
HETATM    3  O   UNL     1      26.408  46.423  50.300  1.00  0.00    -0.273 OA
HETATM    4  H   UNL     1      23.422  47.361  50.907  1.00  0.00     0.162 HD
ENDROOT
BRANCH   1   5
HETATM    5  C   UNL     1      24.865  45.463  51.871  1.00  0.00     0.148 C 
BRANCH   5   6
HETATM    6  C   UNL     1      26.027  45.141  52.773  1.00  0.00     0.033 C 
HETATM    7  C   UNL     1      26.513  45.942  53.742  1.00  0.00    -0.036 C 
HETATM    8  C   UNL     1      25.906  47.273  54.109  1.00  0.00     0.050 C 
HETATM    9  C   UNL     1      27.721  45.518  54.482  1.00  0.00     0.005 A 
HETATM   10  C   UNL     1      28.426  44.391  54.049  1.00  0.00     0.099 A 
HETATM   11  C   UNL     1      28.235  46.222  55.577  1.00  0.00     0.017 A 
HETATM   12  O   UNL     1      27.892  43.580  53.025  1.00  0.00    -0.274 OA
HETATM   13  C   UNL     1      29.652  43.986  54.615  1.00  0.00     0.006 A 
HETATM   14  C   UNL     1      26.641  43.821  52.487  1.00  0.00     0.295 C 
HETATM   15  O   UNL     1      26.082  42.997  51.767  1.00  0.00    -0.259 OA
HETATM   16  C   UNL     1      30.402  42.804  54.071  1.00  0.00     0.054 C 
HETATM   17  C   UNL     1      30.119  44.712  55.716  1.00  0.00     0.074 A 
HETATM   18  C   UNL     1      29.420  45.816  56.195  1.00  0.00     0.038 A 
BRANCH  17  19
HETATM   19  O   UNL     1      31.264  44.399  56.390  1.00  0.00    -0.360 OA
HETATM   20  H   UNL     1      31.254  44.817  57.265  1.00  0.00     0.217 HD
ENDBRANCH  17  19
ENDBRANCH   5   6
ENDBRANCH   1   5
BRANCH   2  21
HETATM   21  C   UNL     1      24.537  48.250  49.298  1.00  0.00     0.127 C 
BRANCH  21  22
HETATM   22  C   UNL     1      23.421  49.295  49.187  1.00  0.00     0.060 C 
BRANCH  22  23
HETATM   23  C   UNL     1      22.258  48.828  48.371  1.00  0.00    -0.029 A 
HETATM   24  C   UNL     1      21.060  49.546  48.058  1.00  0.00    -0.000 A 
HETATM   25  C   UNL     1      20.249  48.698  47.301  1.00  0.00     0.043 A 
HETATM   26  C   UNL     1      20.585  50.840  48.355  1.00  0.00     0.038 A 
HETATM   27  C   UNL     1      18.985  49.071  46.830  1.00  0.00     0.032 A 
HETATM   28  N   UNL     1      20.930  47.513  47.152  1.00  0.00    -0.365 N 
HETATM   29  C   UNL     1      18.535  50.357  47.139  1.00  0.00     0.026 A 
HETATM   30  C   UNL     1      19.325  51.226  47.887  1.00  0.00     0.035 A 
HETATM   31 CL   UNL     1      18.739  52.806  48.248  1.00  0.00    -0.084 Cl
HETATM   32  H   UNL     1      20.583  46.708  46.649  1.00  0.00     0.165 HD
HETATM   33  C   UNL     1      22.137  47.580  47.789  1.00  0.00     0.096 A 
ENDBRANCH  22  23
ENDBRANCH  21  22
ENDBRANCH   2  21
TORSDOF 6
ENDMDL
