MODEL 1
REMARK VINA RESULT:      -8.3      0.000      0.000
REMARK  3 active torsions:
REMARK  status: ('A' for Active; 'I' for Inactive)
REMARK    1  A    between atoms: C_4  and  N_5 
REMARK       I    between atoms: N_5  and  C_6 
REMARK    2  A    between atoms: C_6  and  C_7 
REMARK    3  A    between atoms: C_7  and  C_8 
ROOT
HETATM    1  C   UNL     1      26.146  43.298  50.839  1.00  0.00     0.286 C 
HETATM    2  N   UNL     1      26.536  43.714  52.252  1.00  0.00    -0.056 N 
HETATM    3  H   UNL     1      27.238  44.476  52.136  1.00  0.00     0.278 HD
HETATM    4  H   UNL     1      25.737  44.132  52.741  1.00  0.00     0.278 HD
HETATM    5  C   UNL     1      27.124  42.568  53.036  1.00  0.00     0.209 C 
HETATM    6  C   UNL     1      28.382  42.043  52.296  1.00  0.00     0.115 C 
HETATM    7  N   UNL     1      28.127  41.797  50.875  1.00  0.00    -0.353 N 
HETATM    8  C   UNL     1      27.274  42.547  50.100  1.00  0.00     0.249 C 
HETATM    9  O   UNL     1      27.361  42.515  48.878  1.00  0.00    -0.271 OA
HETATM   10  C   UNL     1      27.414  43.029  54.464  1.00  0.00     0.035 C 
HETATM   11  C   UNL     1      28.619  43.959  54.564  1.00  0.00     0.002 C 
HETATM   12  C   UNL     1      29.850  43.344  53.909  1.00  0.00     0.002 C 
HETATM   13  C   UNL     1      29.588  42.981  52.452  1.00  0.00     0.027 C 
HETATM   14  H   UNL     1      28.842  41.313  50.336  1.00  0.00     0.163 HD
ENDROOT
BRANCH   1  15
HETATM   15  C   UNL     1      25.630  44.495  50.031  1.00  0.00     0.146 C 
BRANCH  15  16
HETATM   16  C   UNL     1      24.380  45.061  50.655  1.00  0.00     0.224 C 
HETATM   17  N   UNL     1      24.084  46.386  50.605  1.00  0.00    -0.327 N 
HETATM   18  H   UNL     1      23.302  46.626  51.209  1.00  0.00     0.169 HD
HETATM   19  O   UNL     1      23.598  44.281  51.215  1.00  0.00    -0.273 OA
BRANCH  17  20
HETATM   20  C   UNL     1      24.652  47.474  49.913  1.00  0.00     0.035 A 
HETATM   21  C   UNL     1      26.011  47.799  49.903  1.00  0.00     0.036 A 
HETATM   22  C   UNL     1      26.486  48.903  49.172  1.00  0.00    -0.060 A 
HETATM   23  C   UNL     1      27.953  49.223  49.135  1.00  0.00     0.048 C 
HETATM   24  C   UNL     1      25.590  49.664  48.418  1.00  0.00     0.007 A 
HETATM   25  C   UNL     1      24.238  49.335  48.400  1.00  0.00     0.003 A 
HETATM   26  C   UNL     1      23.776  48.244  49.137  1.00  0.00     0.029 A 
ENDBRANCH  17  20
ENDBRANCH  15  16
ENDBRANCH   1  15
TORSDOF 3
ENDMDL
MODEL 2
REMARK VINA RESULT:      -8.3      2.340      6.779
REMARK  3 active torsions:
REMARK  status: ('A' for Active; 'I' for Inactive)
REMARK    1  A    between atoms: C_4  and  N_5 
REMARK       I    between atoms: N_5  and  C_6 
REMARK    2  A    between atoms: C_6  and  C_7 
REMARK    3  A    between atoms: C_7  and  C_8 
ROOT
HETATM    1  C   UNL     1      25.893  45.542  52.306  1.00  0.00     0.286 C 
HETATM    2  N   UNL     1      25.788  46.899  51.619  1.00  0.00    -0.056 N 
HETATM    3  H   UNL     1      24.830  47.248  51.833  1.00  0.00     0.278 HD
HETATM    4  H   UNL     1      26.439  47.571  52.042  1.00  0.00     0.278 HD
HETATM    5  C   UNL     1      25.993  46.796  50.129  1.00  0.00     0.209 C 
HETATM    6  C   UNL     1      24.921  45.845  49.536  1.00  0.00     0.115 C 
HETATM    7  N   UNL     1      24.835  44.581  50.271  1.00  0.00    -0.353 N 
HETATM    8  C   UNL     1      25.028  44.458  51.627  1.00  0.00     0.249 C 
HETATM    9  O   UNL     1      24.615  43.470  52.223  1.00  0.00    -0.271 OA
HETATM   10  C   UNL     1      25.960  48.196  49.516  1.00  0.00     0.035 C 
HETATM   11  C   UNL     1      24.561  48.800  49.470  1.00  0.00     0.002 C 
HETATM   12  C   UNL     1      23.574  47.862  48.785  1.00  0.00     0.002 C 
HETATM   13  C   UNL     1      23.534  46.498  49.464  1.00  0.00     0.027 C 
HETATM   14  H   UNL     1      24.270  43.833  49.874  1.00  0.00     0.163 HD
ENDROOT
BRANCH   1  15
HETATM   15  C   UNL     1      25.597  45.655  53.806  1.00  0.00     0.146 C 
BRANCH  15  16
HETATM   16  C   UNL     1      26.235  46.893  54.383  1.00  0.00     0.224 C 
HETATM   17  N   UNL     1      27.435  46.858  55.018  1.00  0.00    -0.327 N 
HETATM   18  H   UNL     1      27.644  47.735  55.489  1.00  0.00     0.169 HD
HETATM   19  O   UNL     1      25.643  47.973  54.254  1.00  0.00    -0.273 OA
BRANCH  17  20
HETATM   20  C   UNL     1      28.416  45.857  55.169  1.00  0.00     0.035 A 
HETATM   21  C   UNL     1      28.603  44.778  54.303  1.00  0.00     0.036 A 
HETATM   22  C   UNL     1      29.617  43.832  54.533  1.00  0.00    -0.060 A 
HETATM   23  C   UNL     1      29.837  42.695  53.576  1.00  0.00     0.048 C 
HETATM   24  C   UNL     1      30.473  43.994  55.625  1.00  0.00     0.007 A 
HETATM   25  C   UNL     1      30.313  45.079  56.481  1.00  0.00     0.003 A 
HETATM   26  C   UNL     1      29.296  46.006  56.250  1.00  0.00     0.029 A 
ENDBRANCH  17  20
ENDBRANCH  15  16
ENDBRANCH   1  15
TORSDOF 3
ENDMDL
MODEL 3
REMARK VINA RESULT:      -8.1      3.155      5.388
REMARK  3 active torsions:
REMARK  status: ('A' for Active; 'I' for Inactive)
REMARK    1  A    between atoms: C_4  and  N_5 
REMARK       I    between atoms: N_5  and  C_6 
REMARK    2  A    between atoms: C_6  and  C_7 
REMARK    3  A    between atoms: C_7  and  C_8 
ROOT
HETATM    1  C   UNL     1      28.452  44.175  54.269  1.00  0.00     0.286 C 
HETATM    2  N   UNL     1      29.512  43.565  55.178  1.00  0.00    -0.056 N 
HETATM    3  H   UNL     1      29.029  43.370  56.080  1.00  0.00     0.278 HD
HETATM    4  H   UNL     1      29.822  42.657  54.816  1.00  0.00     0.278 HD
HETATM    5  C   UNL     1      30.677  44.499  55.394  1.00  0.00     0.209 C 
HETATM    6  C   UNL     1      30.159  45.814  56.032  1.00  0.00     0.115 C 
HETATM    7  N   UNL     1      29.008  46.363  55.311  1.00  0.00    -0.353 N 
HETATM    8  C   UNL     1      28.042  45.601  54.697  1.00  0.00     0.249 C 
HETATM    9  O   UNL     1      26.954  46.090  54.418  1.00  0.00    -0.271 OA
HETATM   10  C   UNL     1      31.738  43.797  56.241  1.00  0.00     0.035 C 
HETATM   11  C   UNL     1      31.341  43.654  57.707  1.00  0.00     0.002 C 
HETATM   12  C   UNL     1      30.939  44.997  58.305  1.00  0.00     0.002 C 
HETATM   13  C   UNL     1      29.808  45.647  57.517  1.00  0.00     0.027 C 
HETATM   14  H   UNL     1      28.688  47.298  55.559  1.00  0.00     0.163 HD
ENDROOT
BRANCH   1  15
HETATM   15  C   UNL     1      27.239  43.248  54.131  1.00  0.00     0.146 C 
BRANCH  15  16
HETATM   16  C   UNL     1      27.559  42.082  53.231  1.00  0.00     0.224 C 
HETATM   17  N   UNL     1      27.063  41.984  51.971  1.00  0.00    -0.327 N 
HETATM   18  H   UNL     1      27.236  41.070  51.561  1.00  0.00     0.169 HD
HETATM   19  O   UNL     1      28.314  41.199  53.660  1.00  0.00    -0.273 OA
BRANCH  17  20
HETATM   20  C   UNL     1      26.348  42.876  51.146  1.00  0.00     0.035 A 
HETATM   21  C   UNL     1      24.963  42.874  50.970  1.00  0.00     0.036 A 
HETATM   22  C   UNL     1      24.337  43.812  50.130  1.00  0.00    -0.060 A 
HETATM   23  C   UNL     1      22.843  43.828  49.976  1.00  0.00     0.048 C 
HETATM   24  C   UNL     1      25.111  44.783  49.490  1.00  0.00     0.007 A 
HETATM   25  C   UNL     1      26.489  44.812  49.677  1.00  0.00     0.003 A 
HETATM   26  C   UNL     1      27.101  43.869  50.504  1.00  0.00     0.029 A 
ENDBRANCH  17  20
ENDBRANCH  15  16
ENDBRANCH   1  15
TORSDOF 3
ENDMDL
MODEL 4
REMARK VINA RESULT:      -8.1      1.931      2.600
REMARK  3 active torsions:
REMARK  status: ('A' for Active; 'I' for Inactive)
REMARK    1  A    between atoms: C_4  and  N_5 
REMARK       I    between atoms: N_5  and  C_6 
REMARK    2  A    between atoms: C_6  and  C_7 
REMARK    3  A    between atoms: C_7  and  C_8 
ROOT
HETATM    1  C   UNL     1      26.841  41.603  51.035  1.00  0.00     0.286 C 
HETATM    2  N   UNL     1      26.969  42.610  52.172  1.00  0.00    -0.056 N 
HETATM    3  H   UNL     1      27.632  43.336  51.829  1.00  0.00     0.278 HD
HETATM    4  H   UNL     1      26.077  43.090  52.334  1.00  0.00     0.278 HD
HETATM    5  C   UNL     1      27.489  41.972  53.436  1.00  0.00     0.209 C 
HETATM    6  C   UNL     1      28.881  41.349  53.152  1.00  0.00     0.115 C 
HETATM    7  N   UNL     1      28.876  40.510  51.952  1.00  0.00    -0.353 N 
HETATM    8  C   UNL     1      28.118  40.760  50.832  1.00  0.00     0.249 C 
HETATM    9  O   UNL     1      28.405  40.238  49.762  1.00  0.00    -0.271 OA
HETATM   10  C   UNL     1      27.513  43.014  54.555  1.00  0.00     0.035 C 
HETATM   11  C   UNL     1      28.626  44.044  54.395  1.00  0.00     0.002 C 
HETATM   12  C   UNL     1      29.983  43.372  54.221  1.00  0.00     0.002 C 
HETATM   13  C   UNL     1      29.985  42.409  53.039  1.00  0.00     0.027 C 
HETATM   14  H   UNL     1      29.698  39.939  51.764  1.00  0.00     0.163 HD
ENDROOT
BRANCH   1  15
HETATM   15  C   UNL     1      26.393  42.285  49.737  1.00  0.00     0.146 C 
BRANCH  15  16
HETATM   16  C   UNL     1      24.906  42.533  49.751  1.00  0.00     0.224 C 
HETATM   17  N   UNL     1      24.371  43.696  50.205  1.00  0.00    -0.327 N 
HETATM   18  H   UNL     1      23.361  43.641  50.302  1.00  0.00     0.169 HD
HETATM   19  O   UNL     1      24.159  41.647  49.316  1.00  0.00    -0.273 OA
BRANCH  17  20
HETATM   20  C   UNL     1      24.934  44.931  50.585  1.00  0.00     0.035 A 
HETATM   21  C   UNL     1      25.065  45.385  51.900  1.00  0.00     0.036 A 
HETATM   22  C   UNL     1      25.651  46.632  52.181  1.00  0.00    -0.060 A 
HETATM   23  C   UNL     1      25.823  47.096  53.598  1.00  0.00     0.048 C 
HETATM   24  C   UNL     1      26.141  47.412  51.131  1.00  0.00     0.007 A 
HETATM   25  C   UNL     1      26.039  46.960  49.819  1.00  0.00     0.003 A 
HETATM   26  C   UNL     1      25.446  45.726  49.550  1.00  0.00     0.029 A 
ENDBRANCH  17  20
ENDBRANCH  15  16
ENDBRANCH   1  15
TORSDOF 3
ENDMDL
MODEL 5
REMARK VINA RESULT:      -8.1      2.050      6.513
REMARK  3 active torsions:
REMARK  status: ('A' for Active; 'I' for Inactive)
REMARK    1  A    between atoms: C_4  and  N_5 
REMARK       I    between atoms: N_5  and  C_6 
REMARK    2  A    between atoms: C_6  and  C_7 
REMARK    3  A    between atoms: C_7  and  C_8 
ROOT
HETATM    1  C   UNL     1      27.148  43.164  51.179  1.00  0.00     0.286 C 
HETATM    2  N   UNL     1      27.017  44.683  51.175  1.00  0.00    -0.056 N 
HETATM    3  H   UNL     1      26.223  44.896  51.815  1.00  0.00     0.278 HD
HETATM    4  H   UNL     1      27.846  45.120  51.591  1.00  0.00     0.278 HD
HETATM    5  C   UNL     1      26.742  45.222  49.794  1.00  0.00     0.209 C 
HETATM    6  C   UNL     1      25.427  44.598  49.259  1.00  0.00     0.115 C 
HETATM    7  N   UNL     1      25.406  43.141  49.406  1.00  0.00    -0.353 N 
HETATM    8  C   UNL     1      25.985  42.458  50.450  1.00  0.00     0.249 C 
HETATM    9  O   UNL     1      25.650  41.306  50.696  1.00  0.00    -0.271 OA
HETATM   10  C   UNL     1      26.705  46.749  49.845  1.00  0.00     0.035 C 
HETATM   11  C   UNL     1      25.449  47.299  50.512  1.00  0.00     0.002 C 
HETATM   12  C   UNL     1      24.188  46.727  49.876  1.00  0.00     0.002 C 
HETATM   13  C   UNL     1      24.180  45.203  49.919  1.00  0.00     0.027 C 
HETATM   14  H   UNL     1      24.655  42.624  48.952  1.00  0.00     0.163 HD
ENDROOT
BRANCH   1  15
HETATM   15  C   UNL     1      27.341  42.628  52.602  1.00  0.00     0.146 C 
BRANCH  15  16
HETATM   16  C   UNL     1      28.659  41.906  52.726  1.00  0.00     0.224 C 
HETATM   17  N   UNL     1      29.677  42.385  53.486  1.00  0.00    -0.327 N 
HETATM   18  H   UNL     1      30.543  41.874  53.333  1.00  0.00     0.169 HD
HETATM   19  O   UNL     1      28.799  40.834  52.123  1.00  0.00    -0.273 OA
BRANCH  17  20
HETATM   20  C   UNL     1      29.772  43.446  54.410  1.00  0.00     0.035 A 
HETATM   21  C   UNL     1      28.950  44.575  54.425  1.00  0.00     0.036 A 
HETATM   22  C   UNL     1      29.116  45.580  55.394  1.00  0.00    -0.060 A 
HETATM   23  C   UNL     1      28.204  46.772  55.427  1.00  0.00     0.048 C 
HETATM   24  C   UNL     1      30.097  45.429  56.378  1.00  0.00     0.007 A 
HETATM   25  C   UNL     1      30.905  44.297  56.389  1.00  0.00     0.003 A 
HETATM   26  C   UNL     1      30.739  43.311  55.415  1.00  0.00     0.029 A 
ENDBRANCH  17  20
ENDBRANCH  15  16
ENDBRANCH   1  15
TORSDOF 3
ENDMDL
MODEL 6
REMARK VINA RESULT:      -8.0      2.809      6.318
REMARK  3 active torsions:
REMARK  status: ('A' for Active; 'I' for Inactive)
REMARK    1  A    between atoms: C_4  and  N_5 
REMARK       I    between atoms: N_5  and  C_6 
REMARK    2  A    between atoms: C_6  and  C_7 
REMARK    3  A    between atoms: C_7  and  C_8 
ROOT
HETATM    1  C   UNL     1      25.755  46.038  52.666  1.00  0.00     0.286 C 
HETATM    2  N   UNL     1      26.381  44.678  52.385  1.00  0.00    -0.056 N 
HETATM    3  H   UNL     1      27.155  44.860  51.711  1.00  0.00     0.278 HD
HETATM    4  H   UNL     1      26.820  44.298  53.231  1.00  0.00     0.278 HD
HETATM    5  C   UNL     1      25.386  43.708  51.797  1.00  0.00     0.209 C 
HETATM    6  C   UNL     1      24.830  44.294  50.473  1.00  0.00     0.115 C 
HETATM    7  N   UNL     1      24.379  45.679  50.627  1.00  0.00    -0.353 N 
HETATM    8  C   UNL     1      24.969  46.599  51.461  1.00  0.00     0.249 C 
HETATM    9  O   UNL     1      24.773  47.797  51.296  1.00  0.00    -0.271 OA
HETATM   10  C   UNL     1      26.053  42.345  51.619  1.00  0.00     0.035 C 
HETATM   11  C   UNL     1      27.051  42.309  50.465  1.00  0.00     0.002 C 
HETATM   12  C   UNL     1      26.417  42.800  49.169  1.00  0.00     0.002 C 
HETATM   13  C   UNL     1      25.843  44.204  49.322  1.00  0.00     0.027 C 
HETATM   14  H   UNL     1      23.863  46.103  49.858  1.00  0.00     0.163 HD
ENDROOT
BRANCH   1  15
HETATM   15  C   UNL     1      26.800  47.035  53.182  1.00  0.00     0.146 C 
BRANCH  15  16
HETATM   16  C   UNL     1      26.634  47.263  54.663  1.00  0.00     0.224 C 
HETATM   17  N   UNL     1      27.326  46.548  55.586  1.00  0.00    -0.327 N 
HETATM   18  H   UNL     1      26.981  46.705  56.530  1.00  0.00     0.169 HD
HETATM   19  O   UNL     1      25.850  48.146  55.036  1.00  0.00    -0.273 OA
BRANCH  17  20
HETATM   20  C   UNL     1      28.391  45.629  55.492  1.00  0.00     0.035 A 
HETATM   21  C   UNL     1      28.417  44.512  54.654  1.00  0.00     0.036 A 
HETATM   22  C   UNL     1      29.531  43.655  54.623  1.00  0.00    -0.060 A 
HETATM   23  C   UNL     1      29.568  42.477  53.692  1.00  0.00     0.048 C 
HETATM   24  C   UNL     1      30.643  43.947  55.417  1.00  0.00     0.007 A 
HETATM   25  C   UNL     1      30.640  45.071  56.236  1.00  0.00     0.003 A 
HETATM   26  C   UNL     1      29.524  45.908  56.268  1.00  0.00     0.029 A 
ENDBRANCH  17  20
ENDBRANCH  15  16
ENDBRANCH   1  15
TORSDOF 3
ENDMDL
MODEL 7
REMARK VINA RESULT:      -7.8     17.136     19.623
REMARK  3 active torsions:
REMARK  status: ('A' for Active; 'I' for Inactive)
REMARK    1  A    between atoms: C_4  and  N_5 
REMARK       I    between atoms: N_5  and  C_6 
REMARK    2  A    between atoms: C_6  and  C_7 
REMARK    3  A    between atoms: C_7  and  C_8 
ROOT
HETATM    1  C   UNL     1      39.639  45.194  64.351  1.00  0.00     0.286 C 
HETATM    2  N   UNL     1      38.557  46.188  64.755  1.00  0.00    -0.056 N 
HETATM    3  H   UNL     1      38.423  46.807  63.928  1.00  0.00     0.278 HD
HETATM    4  H   UNL     1      37.662  45.710  64.905  1.00  0.00     0.278 HD
HETATM    5  C   UNL     1      38.958  46.999  65.963  1.00  0.00     0.209 C 
HETATM    6  C   UNL     1      40.263  47.772  65.642  1.00  0.00     0.115 C 
HETATM    7  N   UNL     1      41.294  46.904  65.068  1.00  0.00    -0.353 N 
HETATM    8  C   UNL     1      41.037  45.839  64.237  1.00  0.00     0.249 C 
HETATM    9  O   UNL     1      41.925  45.377  63.532  1.00  0.00    -0.271 OA
HETATM   10  C   UNL     1      37.800  47.912  66.365  1.00  0.00     0.035 C 
HETATM   11  C   UNL     1      37.600  49.086  65.411  1.00  0.00     0.002 C 
HETATM   12  C   UNL     1      38.894  49.868  65.216  1.00  0.00     0.002 C 
HETATM   13  C   UNL     1      40.021  48.972  64.715  1.00  0.00     0.027 C 
HETATM   14  H   UNL     1      42.234  47.282  64.962  1.00  0.00     0.163 HD
ENDROOT
BRANCH   1  15
HETATM   15  C   UNL     1      39.251  44.441  63.073  1.00  0.00     0.146 C 
BRANCH  15  16
HETATM   16  C   UNL     1      37.868  43.853  63.200  1.00  0.00     0.224 C 
HETATM   17  N   UNL     1      37.660  42.518  63.337  1.00  0.00    -0.327 N 
HETATM   18  H   UNL     1      36.679  42.271  63.243  1.00  0.00     0.169 HD
HETATM   19  O   UNL     1      36.899  44.624  63.195  1.00  0.00    -0.273 OA
BRANCH  17  20
HETATM   20  C   UNL     1      38.525  41.426  63.554  1.00  0.00     0.035 A 
HETATM   21  C   UNL     1      39.001  41.013  64.801  1.00  0.00     0.036 A 
HETATM   22  C   UNL     1      39.856  39.903  64.918  1.00  0.00    -0.060 A 
HETATM   23  C   UNL     1      40.333  39.442  66.266  1.00  0.00     0.048 C 
HETATM   24  C   UNL     1      40.206  39.182  63.774  1.00  0.00     0.007 A 
HETATM   25  C   UNL     1      39.719  39.568  62.530  1.00  0.00     0.003 A 
HETATM   26  C   UNL     1      38.879  40.678  62.423  1.00  0.00     0.029 A 
ENDBRANCH  17  20
ENDBRANCH  15  16
ENDBRANCH   1  15
TORSDOF 3
ENDMDL
MODEL 8
REMARK VINA RESULT:      -7.8      3.771      5.747
REMARK  3 active torsions:
REMARK  status: ('A' for Active; 'I' for Inactive)
REMARK    1  A    between atoms: C_4  and  N_5 
REMARK       I    between atoms: N_5  and  C_6 
REMARK    2  A    between atoms: C_6  and  C_7 
REMARK    3  A    between atoms: C_7  and  C_8 
ROOT
HETATM    1  C   UNL     1      26.386  42.319  50.771  1.00  0.00     0.286 C 
HETATM    2  N   UNL     1      26.826  40.860  50.790  1.00  0.00    -0.056 N 
HETATM    3  H   UNL     1      27.867  40.882  50.784  1.00  0.00     0.278 HD
HETATM    4  H   UNL     1      26.553  40.410  51.670  1.00  0.00     0.278 HD
HETATM    5  C   UNL     1      26.306  40.098  49.596  1.00  0.00     0.209 C 
HETATM    6  C   UNL     1      26.832  40.769  48.300  1.00  0.00     0.115 C 
HETATM    7  N   UNL     1      26.608  42.216  48.297  1.00  0.00    -0.353 N 
HETATM    8  C   UNL     1      26.658  43.011  49.418  1.00  0.00     0.249 C 
HETATM    9  O   UNL     1      26.803  44.223  49.310  1.00  0.00    -0.271 OA
HETATM   10  C   UNL     1      26.710  38.629  49.719  1.00  0.00     0.035 C 
HETATM   11  C   UNL     1      28.195  38.389  49.461  1.00  0.00     0.002 C 
HETATM   12  C   UNL     1      28.628  38.983  48.126  1.00  0.00     0.002 C 
HETATM   13  C   UNL     1      28.317  40.473  48.047  1.00  0.00     0.027 C 
HETATM   14  H   UNL     1      26.781  42.726  47.432  1.00  0.00     0.163 HD
ENDROOT
BRANCH   1  15
HETATM   15  C   UNL     1      26.993  43.097  51.944  1.00  0.00     0.146 C 
BRANCH  15  16
HETATM   16  C   UNL     1      25.916  43.793  52.737  1.00  0.00     0.224 C 
HETATM   17  N   UNL     1      26.185  44.470  53.883  1.00  0.00    -0.327 N 
HETATM   18  H   UNL     1      25.339  44.737  54.378  1.00  0.00     0.169 HD
HETATM   19  O   UNL     1      24.755  43.754  52.309  1.00  0.00    -0.273 OA
BRANCH  17  20
HETATM   20  C   UNL     1      27.386  44.845  54.520  1.00  0.00     0.035 A 
HETATM   21  C   UNL     1      28.464  43.992  54.769  1.00  0.00     0.036 A 
HETATM   22  C   UNL     1      29.627  44.461  55.405  1.00  0.00    -0.060 A 
HETATM   23  C   UNL     1      30.797  43.548  55.635  1.00  0.00     0.048 C 
HETATM   24  C   UNL     1      29.718  45.809  55.762  1.00  0.00     0.007 A 
HETATM   25  C   UNL     1      28.661  46.674  55.496  1.00  0.00     0.003 A 
HETATM   26  C   UNL     1      27.507  46.195  54.874  1.00  0.00     0.029 A 
ENDBRANCH  17  20
ENDBRANCH  15  16
ENDBRANCH   1  15
TORSDOF 3
ENDMDL
MODEL 9
REMARK VINA RESULT:      -7.8      2.870      6.763
REMARK  3 active torsions:
REMARK  status: ('A' for Active; 'I' for Inactive)
REMARK    1  A    between atoms: C_4  and  N_5 
REMARK       I    between atoms: N_5  and  C_6 
REMARK    2  A    between atoms: C_6  and  C_7 
REMARK    3  A    between atoms: C_7  and  C_8 
ROOT
HETATM    1  C   UNL     1      26.157  43.530  51.655  1.00  0.00     0.286 C 
HETATM    2  N   UNL     1      25.606  42.789  50.442  1.00  0.00    -0.056 N 
HETATM    3  H   UNL     1      26.037  43.251  49.613  1.00  0.00     0.278 HD
HETATM    4  H   UNL     1      25.934  41.817  50.431  1.00  0.00     0.278 HD
HETATM    5  C   UNL     1      24.102  42.866  50.369  1.00  0.00     0.209 C 
HETATM    6  C   UNL     1      23.674  44.355  50.290  1.00  0.00     0.115 C 
HETATM    7  N   UNL     1      24.319  45.170  51.322  1.00  0.00    -0.353 N 
HETATM    8  C   UNL     1      25.594  44.962  51.791  1.00  0.00     0.249 C 
HETATM    9  O   UNL     1      26.189  45.855  52.383  1.00  0.00    -0.271 OA
HETATM   10  C   UNL     1      23.611  42.035  49.183  1.00  0.00     0.035 C 
HETATM   11  C   UNL     1      23.896  42.686  47.833  1.00  0.00     0.002 C 
HETATM   12  C   UNL     1      23.362  44.113  47.782  1.00  0.00     0.002 C 
HETATM   13  C   UNL     1      23.935  44.967  48.907  1.00  0.00     0.027 C 
HETATM   14  H   UNL     1      23.993  46.127  51.449  1.00  0.00     0.163 HD
ENDROOT
BRANCH   1  15
HETATM   15  C   UNL     1      27.690  43.515  51.666  1.00  0.00     0.146 C 
BRANCH  15  16
HETATM   16  C   UNL     1      28.206  42.274  52.349  1.00  0.00     0.224 C 
HETATM   17  N   UNL     1      28.969  42.330  53.471  1.00  0.00    -0.327 N 
HETATM   18  H   UNL     1      29.369  41.426  53.708  1.00  0.00     0.169 HD
HETATM   19  O   UNL     1      27.903  41.172  51.872  1.00  0.00    -0.273 OA
BRANCH  17  20
HETATM   20  C   UNL     1      29.328  43.381  54.339  1.00  0.00     0.035 A 
HETATM   21  C   UNL     1      28.569  44.531  54.566  1.00  0.00     0.036 A 
HETATM   22  C   UNL     1      29.007  45.524  55.460  1.00  0.00    -0.060 A 
HETATM   23  C   UNL     1      28.167  46.740  55.728  1.00  0.00     0.048 C 
HETATM   24  C   UNL     1      30.203  45.340  56.158  1.00  0.00     0.007 A 
HETATM   25  C   UNL     1      30.956  44.187  55.960  1.00  0.00     0.003 A 
HETATM   26  C   UNL     1      30.517  43.213  55.061  1.00  0.00     0.029 A 
ENDBRANCH  17  20
ENDBRANCH  15  16
ENDBRANCH   1  15
TORSDOF 3
ENDMDL
MODEL 10
REMARK VINA RESULT:      -7.7     11.308     13.536
REMARK  3 active torsions:
REMARK  status: ('A' for Active; 'I' for Inactive)
REMARK    1  A    between atoms: C_4  and  N_5 
REMARK       I    between atoms: N_5  and  C_6 
REMARK    2  A    between atoms: C_6  and  C_7 
REMARK    3  A    between atoms: C_7  and  C_8 
ROOT
HETATM    1  C   UNL     1      33.899  50.563  41.698  1.00  0.00     0.286 C 
HETATM    2  N   UNL     1      33.160  49.610  40.766  1.00  0.00    -0.056 N 
HETATM    3  H   UNL     1      32.417  50.182  40.312  1.00  0.00     0.278 HD
HETATM    4  H   UNL     1      33.776  49.289  40.012  1.00  0.00     0.278 HD
HETATM    5  C   UNL     1      32.551  48.450  41.513  1.00  0.00     0.209 C 
HETATM    6  C   UNL     1      31.558  48.995  42.572  1.00  0.00     0.115 C 
HETATM    7  N   UNL     1      32.148  50.058  43.389  1.00  0.00    -0.353 N 
HETATM    8  C   UNL     1      33.058  50.979  42.924  1.00  0.00     0.249 C 
HETATM    9  O   UNL     1      33.248  52.022  43.536  1.00  0.00    -0.271 OA
HETATM   10  C   UNL     1      31.900  47.492  40.515  1.00  0.00     0.035 C 
HETATM   11  C   UNL     1      30.603  48.032  39.921  1.00  0.00     0.002 C 
HETATM   12  C   UNL     1      29.628  48.456  41.012  1.00  0.00     0.002 C 
HETATM   13  C   UNL     1      30.246  49.490  41.946  1.00  0.00     0.027 C 
HETATM   14  H   UNL     1      31.631  50.378  44.206  1.00  0.00     0.163 HD
ENDROOT
BRANCH   1  15
HETATM   15  C   UNL     1      34.437  51.779  40.934  1.00  0.00     0.146 C 
BRANCH  15  16
HETATM   16  C   UNL     1      34.250  51.601  39.449  1.00  0.00     0.224 C 
HETATM   17  N   UNL     1      33.040  51.744  38.850  1.00  0.00    -0.327 N 
HETATM   18  H   UNL     1      33.052  51.432  37.883  1.00  0.00     0.169 HD
HETATM   19  O   UNL     1      35.244  51.332  38.761  1.00  0.00    -0.273 OA
BRANCH  17  20
HETATM   20  C   UNL     1      31.790  52.209  39.306  1.00  0.00     0.035 A 
HETATM   21  C   UNL     1      30.552  51.674  38.941  1.00  0.00     0.036 A 
HETATM   22  C   UNL     1      29.355  52.202  39.457  1.00  0.00    -0.060 A 
HETATM   23  C   UNL     1      28.030  51.597  39.090  1.00  0.00     0.048 C 
HETATM   24  C   UNL     1      29.407  53.254  40.374  1.00  0.00     0.007 A 
HETATM   25  C   UNL     1      30.635  53.778  40.765  1.00  0.00     0.003 A 
HETATM   26  C   UNL     1      31.817  53.255  40.238  1.00  0.00     0.029 A 
ENDBRANCH  17  20
ENDBRANCH  15  16
ENDBRANCH   1  15
TORSDOF 3
ENDMDL
