MODEL 1
REMARK VINA RESULT:      -8.2      0.000      0.000
REMARK  2 active torsions:
REMARK  status: ('A' for Active; 'I' for Inactive)
REMARK    1  A    between atoms: C_5  and  O_6 
REMARK    2  A    between atoms: C_5  and  C_7 
ROOT
HETATM    1  C   UNL     1      25.267  41.928  50.274  1.00  0.00     0.050 C 
HETATM    2  C   UNL     1      25.894  43.257  50.547  1.00  0.00    -0.035 A 
HETATM    3  C   UNL     1      25.779  43.901  51.769  1.00  0.00     0.051 A 
HETATM    4  C   UNL     1      26.388  45.137  52.037  1.00  0.00     0.018 A 
HETATM    5  C   UNL     1      26.046  45.570  53.439  1.00  0.00     0.198 A 
HETATM    6  C   UNL     1      25.162  44.376  53.930  1.00  0.00     0.266 A 
HETATM    7  O   UNL     1      24.576  44.283  55.000  1.00  0.00    -0.269 OA
HETATM    8  N   UNL     1      25.083  43.458  52.888  1.00  0.00    -0.323 N 
HETATM    9  C   UNL     1      27.137  45.774  51.062  1.00  0.00     0.013 A 
HETATM   10  C   UNL     1      27.291  45.138  49.828  1.00  0.00     0.001 A 
HETATM   11  C   UNL     1      26.682  43.894  49.576  1.00  0.00     0.009 A 
HETATM   12  H   UNL     1      24.541  42.611  52.953  1.00  0.00     0.169 HD
ENDROOT
BRANCH   5  13
HETATM   13  O   UNL     1      25.285  46.773  53.375  1.00  0.00    -0.371 OA
HETATM   14  H   UNL     1      25.441  47.208  54.231  1.00  0.00     0.212 HD
ENDBRANCH   5  13
BRANCH   5  15
HETATM   15  C   UNL     1      27.300  45.717  54.270  1.00  0.00     0.018 A 
HETATM   16  C   UNL     1      28.350  44.762  54.554  1.00  0.00     0.002 A 
HETATM   17  C   UNL     1      29.267  45.382  55.409  1.00  0.00     0.043 A 
HETATM   18  C   UNL     1      28.620  43.428  54.171  1.00  0.00     0.014 A 
HETATM   19  C   UNL     1      30.423  44.750  55.884  1.00  0.00     0.030 A 
HETATM   20  N   UNL     1      28.803  46.649  55.654  1.00  0.00    -0.365 N 
HETATM   21  C   UNL     1      30.666  43.438  55.473  1.00  0.00     0.002 A 
HETATM   22  C   UNL     1      29.778  42.785  54.628  1.00  0.00     0.001 A 
HETATM   23  H   UNL     1      29.264  47.320  56.253  1.00  0.00     0.165 HD
HETATM   24  C   UNL     1      27.637  46.864  54.979  1.00  0.00     0.100 A 
ENDBRANCH   5  15
TORSDOF 2
ENDMDL
MODEL 2
REMARK VINA RESULT:      -8.0      1.571      5.378
REMARK  2 active torsions:
REMARK  status: ('A' for Active; 'I' for Inactive)
REMARK    1  A    between atoms: C_5  and  O_6 
REMARK    2  A    between atoms: C_5  and  C_7 
ROOT
HETATM    1  C   UNL     1      30.384  45.775  56.211  1.00  0.00     0.050 C 
HETATM    2  C   UNL     1      29.389  44.979  55.429  1.00  0.00    -0.035 A 
HETATM    3  C   UNL     1      28.168  45.498  55.027  1.00  0.00     0.051 A 
HETATM    4  C   UNL     1      27.242  44.763  54.270  1.00  0.00     0.018 A 
HETATM    5  C   UNL     1      26.015  45.602  54.027  1.00  0.00     0.198 A 
HETATM    6  C   UNL     1      26.398  46.936  54.748  1.00  0.00     0.266 A 
HETATM    7  O   UNL     1      25.693  47.925  54.895  1.00  0.00    -0.269 OA
HETATM    8  N   UNL     1      27.672  46.771  55.283  1.00  0.00    -0.323 N 
HETATM    9  C   UNL     1      27.522  43.458  53.896  1.00  0.00     0.013 A 
HETATM   10  C   UNL     1      28.756  42.918  54.266  1.00  0.00     0.001 A 
HETATM   11  C   UNL     1      29.679  43.670  55.018  1.00  0.00     0.009 A 
HETATM   12  H   UNL     1      28.129  47.488  55.824  1.00  0.00     0.169 HD
ENDROOT
BRANCH   5  13
HETATM   13  O   UNL     1      24.902  44.981  54.662  1.00  0.00    -0.371 OA
HETATM   14  H   UNL     1      24.698  44.210  54.105  1.00  0.00     0.212 HD
ENDBRANCH   5  13
BRANCH   5  15
HETATM   15  C   UNL     1      25.800  45.809  52.545  1.00  0.00     0.018 A 
HETATM   16  C   UNL     1      25.301  44.898  51.537  1.00  0.00     0.002 A 
HETATM   17  C   UNL     1      25.333  45.566  50.309  1.00  0.00     0.043 A 
HETATM   18  C   UNL     1      24.823  43.567  51.538  1.00  0.00     0.014 A 
HETATM   19  C   UNL     1      24.910  44.986  49.107  1.00  0.00     0.030 A 
HETATM   20  N   UNL     1      25.837  46.821  50.540  1.00  0.00    -0.365 N 
HETATM   21  C   UNL     1      24.429  43.676  49.147  1.00  0.00     0.002 A 
HETATM   22  C   UNL     1      24.384  42.975  50.346  1.00  0.00     0.001 A 
HETATM   23  H   UNL     1      25.983  47.520  49.824  1.00  0.00     0.165 HD
HETATM   24  C   UNL     1      26.114  46.981  51.866  1.00  0.00     0.100 A 
ENDBRANCH   5  15
TORSDOF 2
ENDMDL
MODEL 3
REMARK VINA RESULT:      -7.9      2.202      3.171
REMARK  2 active torsions:
REMARK  status: ('A' for Active; 'I' for Inactive)
REMARK    1  A    between atoms: C_5  and  O_6 
REMARK    2  A    between atoms: C_5  and  C_7 
ROOT
HETATM    1  C   UNL     1      26.427  45.103  49.556  1.00  0.00     0.050 C 
HETATM    2  C   UNL     1      26.198  44.839  51.009  1.00  0.00    -0.035 A 
HETATM    3  C   UNL     1      27.187  44.338  51.841  1.00  0.00     0.051 A 
HETATM    4  C   UNL     1      26.985  44.113  53.212  1.00  0.00     0.018 A 
HETATM    5  C   UNL     1      28.241  43.543  53.817  1.00  0.00     0.198 A 
HETATM    6  C   UNL     1      29.194  43.497  52.578  1.00  0.00     0.266 A 
HETATM    7  O   UNL     1      30.330  43.041  52.535  1.00  0.00    -0.269 OA
HETATM    8  N   UNL     1      28.487  43.992  51.488  1.00  0.00    -0.323 N 
HETATM    9  C   UNL     1      25.757  44.385  53.793  1.00  0.00     0.013 A 
HETATM   10  C   UNL     1      24.749  44.914  52.983  1.00  0.00     0.001 A 
HETATM   11  C   UNL     1      24.968  45.142  51.611  1.00  0.00     0.009 A 
HETATM   12  H   UNL     1      28.881  44.037  50.561  1.00  0.00     0.169 HD
ENDROOT
BRANCH   5  13
HETATM   13  O   UNL     1      27.965  42.229  54.295  1.00  0.00    -0.371 OA
HETATM   14  H   UNL     1      27.005  42.123  54.179  1.00  0.00     0.212 HD
ENDBRANCH   5  13
BRANCH   5  15
HETATM   15  C   UNL     1      28.772  44.457  54.897  1.00  0.00     0.018 A 
HETATM   16  C   UNL     1      29.827  44.244  55.866  1.00  0.00     0.002 A 
HETATM   17  C   UNL     1      29.901  45.386  56.670  1.00  0.00     0.043 A 
HETATM   18  C   UNL     1      30.733  43.195  56.146  1.00  0.00     0.014 A 
HETATM   19  C   UNL     1      30.824  45.533  57.713  1.00  0.00     0.030 A 
HETATM   20  N   UNL     1      28.935  46.255  56.233  1.00  0.00    -0.365 N 
HETATM   21  C   UNL     1      31.714  44.484  57.951  1.00  0.00     0.002 A 
HETATM   22  C   UNL     1      31.671  43.330  57.178  1.00  0.00     0.001 A 
HETATM   23  H   UNL     1      28.753  47.161  56.643  1.00  0.00     0.165 HD
HETATM   24  C   UNL     1      28.260  45.718  55.176  1.00  0.00     0.100 A 
ENDBRANCH   5  15
TORSDOF 2
ENDMDL
MODEL 4
REMARK VINA RESULT:      -7.8      1.529      5.354
REMARK  2 active torsions:
REMARK  status: ('A' for Active; 'I' for Inactive)
REMARK    1  A    between atoms: C_5  and  O_6 
REMARK    2  A    between atoms: C_5  and  C_7 
ROOT
HETATM    1  C   UNL     1      30.357  46.166  56.532  1.00  0.00     0.050 C 
HETATM    2  C   UNL     1      29.906  44.950  55.788  1.00  0.00    -0.035 A 
HETATM    3  C   UNL     1      28.669  44.869  55.169  1.00  0.00     0.051 A 
HETATM    4  C   UNL     1      28.252  43.740  54.448  1.00  0.00     0.018 A 
HETATM    5  C   UNL     1      26.856  43.963  53.929  1.00  0.00     0.198 A 
HETATM    6  C   UNL     1      26.553  45.405  54.453  1.00  0.00     0.266 A 
HETATM    7  O   UNL     1      25.501  46.023  54.350  1.00  0.00    -0.269 OA
HETATM    8  N   UNL     1      27.675  45.842  55.148  1.00  0.00    -0.323 N 
HETATM    9  C   UNL     1      29.083  42.636  54.334  1.00  0.00     0.013 A 
HETATM   10  C   UNL     1      30.346  42.699  54.927  1.00  0.00     0.001 A 
HETATM   11  C   UNL     1      30.754  43.842  55.640  1.00  0.00     0.009 A 
HETATM   12  H   UNL     1      27.713  46.738  55.609  1.00  0.00     0.169 HD
ENDROOT
BRANCH   5  13
HETATM   13  O   UNL     1      25.984  43.010  54.531  1.00  0.00    -0.371 OA
HETATM   14  H   UNL     1      26.101  42.202  54.001  1.00  0.00     0.212 HD
ENDBRANCH   5  13
BRANCH   5  15
HETATM   15  C   UNL     1      26.834  43.901  52.419  1.00  0.00     0.018 A 
HETATM   16  C   UNL     1      26.873  42.759  51.530  1.00  0.00     0.002 A 
HETATM   17  C   UNL     1      26.871  43.243  50.218  1.00  0.00     0.043 A 
HETATM   18  C   UNL     1      26.908  41.356  51.703  1.00  0.00     0.014 A 
HETATM   19  C   UNL     1      26.893  42.411  49.092  1.00  0.00     0.030 A 
HETATM   20  N   UNL     1      26.847  44.612  50.289  1.00  0.00    -0.365 N 
HETATM   21  C   UNL     1      26.912  41.030  49.300  1.00  0.00     0.002 A 
HETATM   22  C   UNL     1      26.919  40.509  50.587  1.00  0.00     0.001 A 
HETATM   23  H   UNL     1      26.852  45.227  49.486  1.00  0.00     0.165 HD
HETATM   24  C   UNL     1      26.819  45.017  51.591  1.00  0.00     0.100 A 
ENDBRANCH   5  15
TORSDOF 2
ENDMDL
MODEL 5
REMARK VINA RESULT:      -7.6     13.267     15.325
REMARK  2 active torsions:
REMARK  status: ('A' for Active; 'I' for Inactive)
REMARK    1  A    between atoms: C_5  and  O_6 
REMARK    2  A    between atoms: C_5  and  C_7 
ROOT
HETATM    1  C   UNL     1      34.768  51.308  40.072  1.00  0.00     0.050 C 
HETATM    2  C   UNL     1      33.610  50.924  40.937  1.00  0.00    -0.035 A 
HETATM    3  C   UNL     1      32.489  51.725  41.082  1.00  0.00     0.051 A 
HETATM    4  C   UNL     1      31.388  51.356  41.871  1.00  0.00     0.018 A 
HETATM    5  C   UNL     1      30.357  52.454  41.838  1.00  0.00     0.198 A 
HETATM    6  C   UNL     1      31.038  53.496  40.890  1.00  0.00     0.266 A 
HETATM    7  O   UNL     1      30.622  54.609  40.596  1.00  0.00    -0.269 OA
HETATM    8  N   UNL     1      32.263  52.967  40.499  1.00  0.00    -0.323 N 
HETATM    9  C   UNL     1      31.389  50.151  42.555  1.00  0.00     0.013 A 
HETATM   10  C   UNL     1      32.496  49.311  42.407  1.00  0.00     0.001 A 
HETATM   11  C   UNL     1      33.589  49.691  41.605  1.00  0.00     0.009 A 
HETATM   12  H   UNL     1      32.905  53.469  39.905  1.00  0.00     0.169 HD
ENDROOT
BRANCH   5  13
HETATM   13  O   UNL     1      30.208  52.983  43.152  1.00  0.00    -0.371 OA
HETATM   14  H   UNL     1      31.099  53.291  43.395  1.00  0.00     0.212 HD
ENDBRANCH   5  13
BRANCH   5  15
HETATM   15  C   UNL     1      29.056  51.942  41.265  1.00  0.00     0.018 A 
HETATM   16  C   UNL     1      28.813  50.940  40.249  1.00  0.00     0.002 A 
HETATM   17  C   UNL     1      27.430  50.865  40.050  1.00  0.00     0.043 A 
HETATM   18  C   UNL     1      29.626  50.081  39.474  1.00  0.00     0.014 A 
HETATM   19  C   UNL     1      26.831  49.986  39.139  1.00  0.00     0.030 A 
HETATM   20  N   UNL     1      26.848  51.782  40.886  1.00  0.00    -0.365 N 
HETATM   21  C   UNL     1      27.664  49.142  38.402  1.00  0.00     0.002 A 
HETATM   22  C   UNL     1      29.042  49.186  38.567  1.00  0.00     0.001 A 
HETATM   23  H   UNL     1      25.853  51.954  40.944  1.00  0.00     0.165 HD
HETATM   24  C   UNL     1      27.802  52.427  41.619  1.00  0.00     0.100 A 
ENDBRANCH   5  15
TORSDOF 2
ENDMDL
MODEL 6
REMARK VINA RESULT:      -7.6      1.921      2.381
REMARK  2 active torsions:
REMARK  status: ('A' for Active; 'I' for Inactive)
REMARK    1  A    between atoms: C_5  and  O_6 
REMARK    2  A    between atoms: C_5  and  C_7 
ROOT
HETATM    1  C   UNL     1      23.813  45.556  49.438  1.00  0.00     0.050 C 
HETATM    2  C   UNL     1      24.868  46.205  50.276  1.00  0.00    -0.035 A 
HETATM    3  C   UNL     1      25.127  45.818  51.581  1.00  0.00     0.051 A 
HETATM    4  C   UNL     1      26.134  46.407  52.362  1.00  0.00     0.018 A 
HETATM    5  C   UNL     1      26.136  45.782  53.733  1.00  0.00     0.198 A 
HETATM    6  C   UNL     1      24.983  44.732  53.601  1.00  0.00     0.266 A 
HETATM    7  O   UNL     1      24.541  44.005  54.481  1.00  0.00    -0.269 OA
HETATM    8  N   UNL     1      24.476  44.829  52.309  1.00  0.00    -0.323 N 
HETATM    9  C   UNL     1      26.918  47.425  51.843  1.00  0.00     0.013 A 
HETATM   10  C   UNL     1      26.696  47.818  50.521  1.00  0.00     0.001 A 
HETATM   11  C   UNL     1      25.687  47.213  49.747  1.00  0.00     0.009 A 
HETATM   12  H   UNL     1      23.700  44.270  51.989  1.00  0.00     0.169 HD
ENDROOT
BRANCH   5  13
HETATM   13  O   UNL     1      25.806  46.780  54.693  1.00  0.00    -0.371 OA
HETATM   14  H   UNL     1      25.492  46.282  55.468  1.00  0.00     0.212 HD
ENDBRANCH   5  13
BRANCH   5  15
HETATM   15  C   UNL     1      27.465  45.120  54.013  1.00  0.00     0.018 A 
HETATM   16  C   UNL     1      28.384  45.300  55.117  1.00  0.00     0.002 A 
HETATM   17  C   UNL     1      29.493  44.479  54.884  1.00  0.00     0.043 A 
HETATM   18  C   UNL     1      28.392  46.078  56.297  1.00  0.00     0.014 A 
HETATM   19  C   UNL     1      30.582  44.391  55.759  1.00  0.00     0.030 A 
HETATM   20  N   UNL     1      29.279  43.835  53.692  1.00  0.00    -0.365 N 
HETATM   21  C   UNL     1      30.548  45.162  56.923  1.00  0.00     0.002 A 
HETATM   22  C   UNL     1      29.468  45.993  57.190  1.00  0.00     0.001 A 
HETATM   23  H   UNL     1      29.928  43.184  53.269  1.00  0.00     0.165 HD
HETATM   24  C   UNL     1      28.075  44.202  53.166  1.00  0.00     0.100 A 
ENDBRANCH   5  15
TORSDOF 2
ENDMDL
MODEL 7
REMARK VINA RESULT:      -7.5      7.968      9.383
REMARK  2 active torsions:
REMARK  status: ('A' for Active; 'I' for Inactive)
REMARK    1  A    between atoms: C_5  and  O_6 
REMARK    2  A    between atoms: C_5  and  C_7 
ROOT
HETATM    1  C   UNL     1      17.415  50.430  45.639  1.00  0.00     0.050 C 
HETATM    2  C   UNL     1      18.324  50.774  46.775  1.00  0.00    -0.035 A 
HETATM    3  C   UNL     1      19.273  49.892  47.265  1.00  0.00     0.051 A 
HETATM    4  C   UNL     1      20.146  50.220  48.314  1.00  0.00     0.018 A 
HETATM    5  C   UNL     1      21.028  49.038  48.621  1.00  0.00     0.198 A 
HETATM    6  C   UNL     1      20.531  47.993  47.568  1.00  0.00     0.266 A 
HETATM    7  O   UNL     1      20.894  46.830  47.453  1.00  0.00    -0.269 OA
HETATM    8  N   UNL     1      19.521  48.596  46.826  1.00  0.00    -0.323 N 
HETATM    9  C   UNL     1      20.081  51.467  48.914  1.00  0.00     0.013 A 
HETATM   10  C   UNL     1      19.151  52.386  48.425  1.00  0.00     0.001 A 
HETATM   11  C   UNL     1      18.287  52.046  47.366  1.00  0.00     0.009 A 
HETATM   12  H   UNL     1      19.019  48.110  46.099  1.00  0.00     0.169 HD
ENDROOT
BRANCH   5  13
HETATM   13  O   UNL     1      20.755  48.593  49.947  1.00  0.00    -0.371 OA
HETATM   14  H   UNL     1      20.417  49.382  50.405  1.00  0.00     0.212 HD
ENDBRANCH   5  13
BRANCH   5  15
HETATM   15  C   UNL     1      22.482  49.392  48.413  1.00  0.00     0.018 A 
HETATM   16  C   UNL     1      23.678  48.792  48.966  1.00  0.00     0.002 A 
HETATM   17  C   UNL     1      24.775  49.518  48.490  1.00  0.00     0.043 A 
HETATM   18  C   UNL     1      23.947  47.701  49.824  1.00  0.00     0.014 A 
HETATM   19  C   UNL     1      26.101  49.209  48.817  1.00  0.00     0.030 A 
HETATM   20  N   UNL     1      24.286  50.523  47.697  1.00  0.00    -0.365 N 
HETATM   21  C   UNL     1      26.330  48.115  49.654  1.00  0.00     0.002 A 
HETATM   22  C   UNL     1      25.268  47.370  50.152  1.00  0.00     0.001 A 
HETATM   23  H   UNL     1      24.858  51.213  47.229  1.00  0.00     0.165 HD
HETATM   24  C   UNL     1      22.924  50.457  47.637  1.00  0.00     0.100 A 
ENDBRANCH   5  15
TORSDOF 2
ENDMDL
MODEL 8
REMARK VINA RESULT:      -7.5     13.391     15.086
REMARK  2 active torsions:
REMARK  status: ('A' for Active; 'I' for Inactive)
REMARK    1  A    between atoms: C_5  and  O_6 
REMARK    2  A    between atoms: C_5  and  C_7 
ROOT
HETATM    1  C   UNL     1      34.712  49.786  41.340  1.00  0.00     0.050 C 
HETATM    2  C   UNL     1      33.498  50.567  41.727  1.00  0.00    -0.035 A 
HETATM    3  C   UNL     1      32.483  50.861  40.830  1.00  0.00     0.051 A 
HETATM    4  C   UNL     1      31.329  51.572  41.195  1.00  0.00     0.018 A 
HETATM    5  C   UNL     1      30.444  51.746  39.988  1.00  0.00     0.198 A 
HETATM    6  C   UNL     1      31.270  51.006  38.884  1.00  0.00     0.266 A 
HETATM    7  O   UNL     1      31.004  50.925  37.692  1.00  0.00    -0.269 OA
HETATM    8  N   UNL     1      32.427  50.520  39.483  1.00  0.00    -0.323 N 
HETATM    9  C   UNL     1      31.164  52.019  42.496  1.00  0.00     0.013 A 
HETATM   10  C   UNL     1      32.160  51.715  43.427  1.00  0.00     0.001 A 
HETATM   11  C   UNL     1      33.309  50.994  43.049  1.00  0.00     0.009 A 
HETATM   12  H   UNL     1      33.139  50.028  38.966  1.00  0.00     0.169 HD
ENDROOT
BRANCH   5  13
HETATM   13  O   UNL     1      30.336  53.136  39.695  1.00  0.00    -0.371 OA
HETATM   14  H   UNL     1      31.052  53.551  40.206  1.00  0.00     0.212 HD
ENDBRANCH   5  13
BRANCH   5  15
HETATM   15  C   UNL     1      29.101  51.091  40.215  1.00  0.00     0.018 A 
HETATM   16  C   UNL     1      28.760  49.694  40.386  1.00  0.00     0.002 A 
HETATM   17  C   UNL     1      27.371  49.611  40.524  1.00  0.00     0.043 A 
HETATM   18  C   UNL     1      29.489  48.484  40.440  1.00  0.00     0.014 A 
HETATM   19  C   UNL     1      26.688  48.404  40.718  1.00  0.00     0.030 A 
HETATM   20  N   UNL     1      26.875  50.886  40.429  1.00  0.00    -0.365 N 
HETATM   21  C   UNL     1      27.442  47.231  40.781  1.00  0.00     0.002 A 
HETATM   22  C   UNL     1      28.824  47.269  40.645  1.00  0.00     0.001 A 
HETATM   23  H   UNL     1      25.894  51.124  40.482  1.00  0.00     0.165 HD
HETATM   24  C   UNL     1      27.893  51.777  40.251  1.00  0.00     0.100 A 
ENDBRANCH   5  15
TORSDOF 2
ENDMDL
MODEL 9
REMARK VINA RESULT:      -7.5     12.750     14.295
REMARK  2 active torsions:
REMARK  status: ('A' for Active; 'I' for Inactive)
REMARK    1  A    between atoms: C_5  and  O_6 
REMARK    2  A    between atoms: C_5  and  C_7 
ROOT
HETATM    1  C   UNL     1      33.082  51.671  43.991  1.00  0.00     0.050 C 
HETATM    2  C   UNL     1      32.064  51.513  42.909  1.00  0.00    -0.035 A 
HETATM    3  C   UNL     1      31.934  50.348  42.170  1.00  0.00     0.051 A 
HETATM    4  C   UNL     1      30.962  50.185  41.171  1.00  0.00     0.018 A 
HETATM    5  C   UNL     1      31.107  48.823  40.546  1.00  0.00     0.198 A 
HETATM    6  C   UNL     1      32.303  48.229  41.361  1.00  0.00     0.266 A 
HETATM    7  O   UNL     1      32.856  47.152  41.184  1.00  0.00    -0.269 OA
HETATM    8  N   UNL     1      32.698  49.191  42.285  1.00  0.00    -0.323 N 
HETATM    9  C   UNL     1      30.082  51.215  40.877  1.00  0.00     0.013 A 
HETATM   10  C   UNL     1      30.173  52.392  41.622  1.00  0.00     0.001 A 
HETATM   11  C   UNL     1      31.148  52.538  42.628  1.00  0.00     0.009 A 
HETATM   12  H   UNL     1      33.475  49.054  42.912  1.00  0.00     0.169 HD
ENDROOT
BRANCH   5  13
HETATM   13  O   UNL     1      31.457  48.981  39.174  1.00  0.00    -0.371 OA
HETATM   14  H   UNL     1      31.622  49.935  39.072  1.00  0.00     0.212 HD
ENDBRANCH   5  13
BRANCH   5  15
HETATM   15  C   UNL     1      29.845  48.014  40.736  1.00  0.00     0.018 A 
HETATM   16  C   UNL     1      29.400  46.807  40.073  1.00  0.00     0.002 A 
HETATM   17  C   UNL     1      28.140  46.481  40.585  1.00  0.00     0.043 A 
HETATM   18  C   UNL     1      29.939  45.949  39.086  1.00  0.00     0.014 A 
HETATM   19  C   UNL     1      27.409  45.359  40.175  1.00  0.00     0.030 A 
HETATM   20  N   UNL     1      27.814  47.443  41.507  1.00  0.00    -0.365 N 
HETATM   21  C   UNL     1      27.979  44.526  39.210  1.00  0.00     0.002 A 
HETATM   22  C   UNL     1      29.227  44.816  38.672  1.00  0.00     0.001 A 
HETATM   23  H   UNL     1      26.948  47.466  42.028  1.00  0.00     0.165 HD
HETATM   24  C   UNL     1      28.821  48.358  41.611  1.00  0.00     0.100 A 
ENDBRANCH   5  15
TORSDOF 2
ENDMDL
MODEL 10
REMARK VINA RESULT:      -7.4      2.443      3.958
REMARK  2 active torsions:
REMARK  status: ('A' for Active; 'I' for Inactive)
REMARK    1  A    between atoms: C_5  and  O_6 
REMARK    2  A    between atoms: C_5  and  C_7 
ROOT
HETATM    1  C   UNL     1      26.386  47.938  49.911  1.00  0.00     0.050 C 
HETATM    2  C   UNL     1      26.068  46.957  50.994  1.00  0.00    -0.035 A 
HETATM    3  C   UNL     1      26.293  45.596  50.857  1.00  0.00     0.051 A 
HETATM    4  C   UNL     1      26.021  44.675  51.881  1.00  0.00     0.018 A 
HETATM    5  C   UNL     1      26.349  43.284  51.404  1.00  0.00     0.198 A 
HETATM    6  C   UNL     1      26.868  43.563  49.955  1.00  0.00     0.266 A 
HETATM    7  O   UNL     1      27.199  42.735  49.116  1.00  0.00    -0.269 OA
HETATM    8  N   UNL     1      26.805  44.937  49.745  1.00  0.00    -0.323 N 
HETATM    9  C   UNL     1      25.499  45.106  53.090  1.00  0.00     0.013 A 
HETATM   10  C   UNL     1      25.286  46.475  53.265  1.00  0.00     0.001 A 
HETATM   11  C   UNL     1      25.571  47.388  52.232  1.00  0.00     0.009 A 
HETATM   12  H   UNL     1      27.061  45.364  48.869  1.00  0.00     0.169 HD
ENDROOT
BRANCH   5  13
HETATM   13  O   UNL     1      25.151  42.514  51.375  1.00  0.00    -0.371 OA
HETATM   14  H   UNL     1      24.436  43.174  51.354  1.00  0.00     0.212 HD
ENDBRANCH   5  13
BRANCH   5  15
HETATM   15  C   UNL     1      27.420  42.664  52.271  1.00  0.00     0.018 A 
HETATM   16  C   UNL     1      28.278  43.266  53.270  1.00  0.00     0.002 A 
HETATM   17  C   UNL     1      29.127  42.267  53.758  1.00  0.00     0.043 A 
HETATM   18  C   UNL     1      28.424  44.563  53.815  1.00  0.00     0.014 A 
HETATM   19  C   UNL     1      30.089  42.492  54.750  1.00  0.00     0.030 A 
HETATM   20  N   UNL     1      28.822  41.110  53.088  1.00  0.00    -0.365 N 
HETATM   21  C   UNL     1      30.194  43.781  55.277  1.00  0.00     0.002 A 
HETATM   22  C   UNL     1      29.373  44.803  54.818  1.00  0.00     0.001 A 
HETATM   23  H   UNL     1      29.290  40.225  53.231  1.00  0.00     0.165 HD
HETATM   24  C   UNL     1      27.805  41.330  52.205  1.00  0.00     0.100 A 
ENDBRANCH   5  15
TORSDOF 2
ENDMDL
