MODEL 1
REMARK VINA RESULT:      -8.0      0.000      0.000
REMARK  9 active torsions:
REMARK  status: ('A' for Active; 'I' for Inactive)
REMARK    1  A    between atoms: C_2  and  C_3 
REMARK    2  A    between atoms: C_7  and  C_8 
REMARK    3  A    between atoms: C_8  and  C_9 
REMARK       I    between atoms: C_9  and  N_10 
REMARK    4  A    between atoms: N_10  and  C_11 
REMARK    5  A    between atoms: C_11  and  C_12 
REMARK    6  A    between atoms: C_12  and  C_13 
REMARK    7  A    between atoms: C_21  and  C_22 
REMARK    8  A    between atoms: C_32  and  C_33 
REMARK    9  A    between atoms: C_33  and  O_34 
ROOT
HETATM    1  C   UNL     1      27.911  42.356  52.462  1.00  0.00     0.051 C 
HETATM    2  N   UNL     1      27.700  41.462  51.438  1.00  0.00    -0.228 NA
HETATM    3  C   UNL     1      26.631  41.569  50.740  1.00  0.00     0.170 C 
HETATM    4  N   UNL     1      25.644  42.778  50.762  1.00  0.00    -0.318 N 
HETATM    5  C   UNL     1      24.813  42.651  49.774  1.00  0.00     0.011 C 
HETATM    6  C   UNL     1      25.984  43.833  51.756  1.00  0.00     0.166 C 
HETATM    7  S   UNL     1      26.209  40.383  49.542  1.00  0.00    -0.086 SA
HETATM    8  C   UNL     1      24.638  41.233  49.263  1.00  0.00     0.135 C 
HETATM    9  C   UNL     1      27.060  43.373  52.709  1.00  0.00     0.069 C 
ENDROOT
BRANCH   5  10
HETATM   10  C   UNL     1      24.264  43.811  48.981  1.00  0.00     0.156 C 
BRANCH  10  11
HETATM   11  C   UNL     1      22.785  43.952  49.341  1.00  0.00     0.222 C 
HETATM   12  N   UNL     1      21.968  44.531  48.407  1.00  0.00    -0.361 N 
HETATM   13  H   UNL     1      22.354  44.792  47.502  1.00  0.00     0.162 HD
HETATM   14  O   UNL     1      22.375  43.622  50.457  1.00  0.00    -0.273 OA
BRANCH  12  15
HETATM   15  C   UNL     1      20.740  45.208  48.803  1.00  0.00     0.124 C 
BRANCH  15  16
HETATM   16  C   UNL     1      20.521  46.629  48.268  1.00  0.00     0.053 C 
BRANCH  16  17
HETATM   17  C   UNL     1      19.560  47.534  49.034  1.00  0.00     0.189 C 
HETATM   18  N   UNL     1      20.190  48.647  49.849  1.00  0.00    -0.071 N 
HETATM   19  H   UNL     1      20.526  48.201  50.724  1.00  0.00     0.279 HD
HETATM   20  C   UNL     1      21.338  49.406  49.245  1.00  0.00     0.270 C 
HETATM   21  C   UNL     1      19.039  49.585  50.183  1.00  0.00     0.235 C 
HETATM   22  C   UNL     1      17.947  49.271  49.167  1.00  0.00     0.030 C 
HETATM   23  C   UNL     1      18.564  48.297  48.175  1.00  0.00     0.035 C 
ENDBRANCH  16  17
ENDBRANCH  15  16
ENDBRANCH  12  15
ENDBRANCH  10  11
ENDBRANCH   5  10
BRANCH   6  24
HETATM   24  C   UNL     1      26.330  45.163  51.084  1.00  0.00    -0.024 A 
HETATM   25  C   UNL     1      25.835  46.399  51.574  1.00  0.00    -0.053 A 
HETATM   26  C   UNL     1      24.945  46.511  52.788  1.00  0.00     0.049 C 
HETATM   27  C   UNL     1      26.211  47.597  50.939  1.00  0.00     0.014 A 
HETATM   28  C   UNL     1      27.056  47.600  49.825  1.00  0.00    -0.061 A 
HETATM   29  C   UNL     1      27.504  48.899  49.217  1.00  0.00     0.048 C 
HETATM   30  C   UNL     1      27.548  46.387  49.348  1.00  0.00     0.007 A 
HETATM   31  C   UNL     1      27.192  45.184  49.965  1.00  0.00     0.011 A 
ENDBRANCH   6  24
BRANCH   9  32
HETATM   32  C   UNL     1      27.018  44.027  54.038  1.00  0.00     0.293 C 
HETATM   33  O   UNL     1      26.397  43.591  54.986  1.00  0.00    -0.259 OA
BRANCH  32  34
HETATM   34  O   UNL     1      27.933  45.025  54.049  1.00  0.00    -0.323 OA
HETATM   35  C   UNL     1      27.868  45.916  55.166  1.00  0.00     0.213 C 
ENDBRANCH  32  34
ENDBRANCH   9  32
BRANCH   1  36
HETATM   36  C   UNL     1      29.162  42.037  53.276  1.00  0.00     0.056 C 
HETATM   37  C   UNL     1      30.358  42.944  52.991  1.00  0.00     0.011 C 
ENDBRANCH   1  36
TORSDOF 9
ENDMDL
MODEL 2
REMARK VINA RESULT:      -7.7      1.440      2.095
REMARK  9 active torsions:
REMARK  status: ('A' for Active; 'I' for Inactive)
REMARK    1  A    between atoms: C_2  and  C_3 
REMARK    2  A    between atoms: C_7  and  C_8 
REMARK    3  A    between atoms: C_8  and  C_9 
REMARK       I    between atoms: C_9  and  N_10 
REMARK    4  A    between atoms: N_10  and  C_11 
REMARK    5  A    between atoms: C_11  and  C_12 
REMARK    6  A    between atoms: C_12  and  C_13 
REMARK    7  A    between atoms: C_21  and  C_22 
REMARK    8  A    between atoms: C_32  and  C_33 
REMARK    9  A    between atoms: C_33  and  O_34 
ROOT
HETATM    1  C   UNL     1      26.356  43.120  52.398  1.00  0.00     0.051 C 
HETATM    2  N   UNL     1      26.358  42.185  51.390  1.00  0.00    -0.228 NA
HETATM    3  C   UNL     1      25.477  42.279  50.464  1.00  0.00     0.170 C 
HETATM    4  N   UNL     1      24.541  43.503  50.215  1.00  0.00    -0.318 N 
HETATM    5  C   UNL     1      23.952  43.345  49.070  1.00  0.00     0.011 C 
HETATM    6  C   UNL     1      24.676  44.595  51.217  1.00  0.00     0.166 C 
HETATM    7  S   UNL     1      25.305  41.048  49.249  1.00  0.00    -0.086 SA
HETATM    8  C   UNL     1      23.859  41.909  48.590  1.00  0.00     0.135 C 
HETATM    9  C   UNL     1      25.498  44.161  52.406  1.00  0.00     0.069 C 
ENDROOT
BRANCH   5  10
HETATM   10  C   UNL     1      23.625  44.478  48.128  1.00  0.00     0.156 C 
BRANCH  10  11
HETATM   11  C   UNL     1      22.181  44.900  48.403  1.00  0.00     0.222 C 
HETATM   12  N   UNL     1      21.669  45.908  47.632  1.00  0.00    -0.361 N 
HETATM   13  H   UNL     1      22.235  46.298  46.882  1.00  0.00     0.162 HD
HETATM   14  O   UNL     1      21.545  44.395  49.332  1.00  0.00    -0.273 OA
BRANCH  12  15
HETATM   15  C   UNL     1      20.584  46.749  48.124  1.00  0.00     0.124 C 
BRANCH  15  16
HETATM   16  C   UNL     1      20.975  47.986  48.944  1.00  0.00     0.053 C 
BRANCH  16  17
HETATM   17  C   UNL     1      20.325  49.316  48.571  1.00  0.00     0.189 C 
HETATM   18  N   UNL     1      19.048  49.670  49.309  1.00  0.00    -0.071 N 
HETATM   19  H   UNL     1      18.294  49.130  48.843  1.00  0.00     0.279 HD
HETATM   20  C   UNL     1      18.979  49.387  50.784  1.00  0.00     0.270 C 
HETATM   21  C   UNL     1      18.837  51.153  49.033  1.00  0.00     0.235 C 
HETATM   22  C   UNL     1      20.198  51.687  48.603  1.00  0.00     0.030 C 
HETATM   23  C   UNL     1      21.184  50.547  48.817  1.00  0.00     0.035 C 
ENDBRANCH  16  17
ENDBRANCH  15  16
ENDBRANCH  12  15
ENDBRANCH  10  11
ENDBRANCH   5  10
BRANCH   6  24
HETATM   24  C   UNL     1      25.199  45.889  50.588  1.00  0.00    -0.024 A 
HETATM   25  C   UNL     1      26.518  45.991  50.076  1.00  0.00    -0.053 A 
HETATM   26  C   UNL     1      27.505  44.848  50.098  1.00  0.00     0.049 C 
HETATM   27  C   UNL     1      26.937  47.193  49.477  1.00  0.00     0.014 A 
HETATM   28  C   UNL     1      26.088  48.298  49.382  1.00  0.00    -0.061 A 
HETATM   29  C   UNL     1      26.536  49.541  48.666  1.00  0.00     0.048 C 
HETATM   30  C   UNL     1      24.789  48.195  49.878  1.00  0.00     0.007 A 
HETATM   31  C   UNL     1      24.348  47.010  50.473  1.00  0.00     0.011 A 
ENDBRANCH   6  24
BRANCH   9  32
HETATM   32  C   UNL     1      25.175  44.874  53.664  1.00  0.00     0.293 C 
HETATM   33  O   UNL     1      24.636  44.349  54.618  1.00  0.00    -0.259 OA
BRANCH  32  34
HETATM   34  O   UNL     1      25.764  46.092  53.625  1.00  0.00    -0.323 OA
HETATM   35  C   UNL     1      26.843  46.291  54.543  1.00  0.00     0.213 C 
ENDBRANCH  32  34
ENDBRANCH   9  32
BRANCH   1  36
HETATM   36  C   UNL     1      27.383  42.817  53.486  1.00  0.00     0.056 C 
HETATM   37  C   UNL     1      28.019  41.431  53.395  1.00  0.00     0.011 C 
ENDBRANCH   1  36
TORSDOF 9
ENDMDL
MODEL 3
REMARK VINA RESULT:      -7.6      4.510     11.196
REMARK  9 active torsions:
REMARK  status: ('A' for Active; 'I' for Inactive)
REMARK    1  A    between atoms: C_2  and  C_3 
REMARK    2  A    between atoms: C_7  and  C_8 
REMARK    3  A    between atoms: C_8  and  C_9 
REMARK       I    between atoms: C_9  and  N_10 
REMARK    4  A    between atoms: N_10  and  C_11 
REMARK    5  A    between atoms: C_11  and  C_12 
REMARK    6  A    between atoms: C_12  and  C_13 
REMARK    7  A    between atoms: C_21  and  C_22 
REMARK    8  A    between atoms: C_32  and  C_33 
REMARK    9  A    between atoms: C_33  and  O_34 
ROOT
HETATM    1  C   UNL     1      16.552  48.854  45.417  1.00  0.00     0.051 C 
HETATM    2  N   UNL     1      16.637  47.642  46.062  1.00  0.00    -0.228 NA
HETATM    3  C   UNL     1      17.487  47.511  47.013  1.00  0.00     0.170 C 
HETATM    4  N   UNL     1      18.276  48.671  47.697  1.00  0.00    -0.318 N 
HETATM    5  C   UNL     1      18.861  48.202  48.757  1.00  0.00     0.011 C 
HETATM    6  C   UNL     1      18.038  50.014  47.102  1.00  0.00     0.166 C 
HETATM    7  S   UNL     1      17.774  45.971  47.764  1.00  0.00    -0.086 SA
HETATM    8  C   UNL     1      19.104  46.705  48.744  1.00  0.00     0.135 C 
HETATM    9  C   UNL     1      17.289  49.918  45.795  1.00  0.00     0.069 C 
ENDROOT
BRANCH   5  10
HETATM   10  C   UNL     1      19.044  48.986  50.033  1.00  0.00     0.156 C 
BRANCH  10  11
HETATM   11  C   UNL     1      20.392  49.702  49.940  1.00  0.00     0.222 C 
HETATM   12  N   UNL     1      21.377  49.087  49.216  1.00  0.00    -0.361 N 
HETATM   13  H   UNL     1      21.167  48.218  48.730  1.00  0.00     0.162 HD
HETATM   14  O   UNL     1      20.590  50.752  50.559  1.00  0.00    -0.273 OA
BRANCH  12  15
HETATM   15  C   UNL     1      22.784  49.345  49.496  1.00  0.00     0.124 C 
BRANCH  15  16
HETATM   16  C   UNL     1      23.784  48.239  49.132  1.00  0.00     0.053 C 
BRANCH  16  17
HETATM   17  C   UNL     1      24.367  47.408  50.272  1.00  0.00     0.189 C 
HETATM   18  N   UNL     1      23.934  45.956  50.334  1.00  0.00    -0.071 N 
HETATM   19  H   UNL     1      22.993  45.960  50.770  1.00  0.00     0.279 HD
HETATM   20  C   UNL     1      23.846  45.186  49.046  1.00  0.00     0.270 C 
HETATM   21  C   UNL     1      24.919  45.297  51.291  1.00  0.00     0.235 C 
HETATM   22  C   UNL     1      26.128  46.224  51.336  1.00  0.00     0.030 C 
HETATM   23  C   UNL     1      25.883  47.287  50.276  1.00  0.00     0.035 C 
ENDBRANCH  16  17
ENDBRANCH  15  16
ENDBRANCH  12  15
ENDBRANCH  10  11
ENDBRANCH   5  10
BRANCH   6  24
HETATM   24  C   UNL     1      17.365  50.967  48.092  1.00  0.00    -0.024 A 
HETATM   25  C   UNL     1      18.014  52.138  48.561  1.00  0.00    -0.053 A 
HETATM   26  C   UNL     1      19.401  52.546  48.125  1.00  0.00     0.049 C 
HETATM   27  C   UNL     1      17.337  52.999  49.443  1.00  0.00     0.014 A 
HETATM   28  C   UNL     1      16.039  52.725  49.882  1.00  0.00    -0.061 A 
HETATM   29  C   UNL     1      15.311  53.703  50.761  1.00  0.00     0.048 C 
HETATM   30  C   UNL     1      15.398  51.578  49.415  1.00  0.00     0.007 A 
HETATM   31  C   UNL     1      16.048  50.710  48.534  1.00  0.00     0.011 A 
ENDBRANCH   6  24
BRANCH   9  32
HETATM   32  C   UNL     1      17.551  51.035  44.858  1.00  0.00     0.293 C 
HETATM   33  O   UNL     1      16.933  52.081  44.865  1.00  0.00    -0.259 OA
BRANCH  32  34
HETATM   34  O   UNL     1      18.692  50.763  44.182  1.00  0.00    -0.323 OA
HETATM   35  C   UNL     1      18.588  50.777  42.755  1.00  0.00     0.213 C 
ENDBRANCH  32  34
ENDBRANCH   9  32
BRANCH   1  36
HETATM   36  C   UNL     1      15.582  48.827  44.238  1.00  0.00     0.056 C 
HETATM   37  C   UNL     1      14.258  49.548  44.484  1.00  0.00     0.011 C 
ENDBRANCH   1  36
TORSDOF 9
ENDMDL
MODEL 4
REMARK VINA RESULT:      -7.6      3.156      9.212
REMARK  9 active torsions:
REMARK  status: ('A' for Active; 'I' for Inactive)
REMARK    1  A    between atoms: C_2  and  C_3 
REMARK    2  A    between atoms: C_7  and  C_8 
REMARK    3  A    between atoms: C_8  and  C_9 
REMARK       I    between atoms: C_9  and  N_10 
REMARK    4  A    between atoms: N_10  and  C_11 
REMARK    5  A    between atoms: C_11  and  C_12 
REMARK    6  A    between atoms: C_12  and  C_13 
REMARK    7  A    between atoms: C_21  and  C_22 
REMARK    8  A    between atoms: C_32  and  C_33 
REMARK    9  A    between atoms: C_33  and  O_34 
ROOT
HETATM    1  C   UNL     1      20.263  50.532  49.301  1.00  0.00     0.051 C 
HETATM    2  N   UNL     1      21.602  50.725  49.053  1.00  0.00    -0.228 NA
HETATM    3  C   UNL     1      22.370  49.700  49.001  1.00  0.00     0.170 C 
HETATM    4  N   UNL     1      21.903  48.211  48.940  1.00  0.00    -0.318 N 
HETATM    5  C   UNL     1      22.930  47.468  48.665  1.00  0.00     0.011 C 
HETATM    6  C   UNL     1      20.429  48.024  49.030  1.00  0.00     0.166 C 
HETATM    7  S   UNL     1      24.094  49.866  48.860  1.00  0.00    -0.086 SA
HETATM    8  C   UNL     1      24.274  48.075  49.023  1.00  0.00     0.135 C 
HETATM    9  C   UNL     1      19.729  49.300  49.429  1.00  0.00     0.069 C 
ENDROOT
BRANCH   5  10
HETATM   10  C   UNL     1      22.867  46.228  47.808  1.00  0.00     0.156 C 
BRANCH  10  11
HETATM   11  C   UNL     1      23.419  45.069  48.637  1.00  0.00     0.222 C 
HETATM   12  N   UNL     1      23.055  45.016  49.956  1.00  0.00    -0.361 N 
HETATM   13  H   UNL     1      22.399  45.705  50.318  1.00  0.00     0.162 HD
HETATM   14  O   UNL     1      24.218  44.267  48.144  1.00  0.00    -0.273 OA
BRANCH  12  15
HETATM   15  C   UNL     1      23.899  44.350  50.940  1.00  0.00     0.124 C 
BRANCH  15  16
HETATM   16  C   UNL     1      25.072  45.156  51.516  1.00  0.00     0.053 C 
BRANCH  16  17
HETATM   17  C   UNL     1      25.571  44.783  52.909  1.00  0.00     0.189 C 
HETATM   18  N   UNL     1      26.188  43.406  53.055  1.00  0.00    -0.071 N 
HETATM   19  H   UNL     1      25.391  42.744  53.124  1.00  0.00     0.279 HD
HETATM   20  C   UNL     1      27.102  42.919  51.966  1.00  0.00     0.270 C 
HETATM   21  C   UNL     1      26.914  43.445  54.393  1.00  0.00     0.235 C 
HETATM   22  C   UNL     1      27.115  44.923  54.707  1.00  0.00     0.030 C 
HETATM   23  C   UNL     1      26.664  45.681  53.467  1.00  0.00     0.035 C 
ENDBRANCH  16  17
ENDBRANCH  15  16
ENDBRANCH  12  15
ENDBRANCH  10  11
ENDBRANCH   5  10
BRANCH   6  24
HETATM   24  C   UNL     1      19.850  47.417  47.750  1.00  0.00    -0.024 A 
HETATM   25  C   UNL     1      19.479  46.050  47.672  1.00  0.00    -0.053 A 
HETATM   26  C   UNL     1      19.613  45.089  48.830  1.00  0.00     0.049 C 
HETATM   27  C   UNL     1      18.920  45.550  46.482  1.00  0.00     0.014 A 
HETATM   28  C   UNL     1      18.728  46.367  45.365  1.00  0.00    -0.061 A 
HETATM   29  C   UNL     1      18.055  45.826  44.135  1.00  0.00     0.048 C 
HETATM   30  C   UNL     1      19.085  47.713  45.444  1.00  0.00     0.007 A 
HETATM   31  C   UNL     1      19.638  48.233  46.616  1.00  0.00     0.011 A 
ENDBRANCH   6  24
BRANCH   9  32
HETATM   32  C   UNL     1      18.444  49.095  50.137  1.00  0.00     0.293 C 
HETATM   33  O   UNL     1      18.341  49.043  51.347  1.00  0.00    -0.259 OA
BRANCH  32  34
HETATM   34  O   UNL     1      17.441  49.195  49.234  1.00  0.00    -0.323 OA
HETATM   35  C   UNL     1      16.693  47.998  49.001  1.00  0.00     0.213 C 
ENDBRANCH  32  34
ENDBRANCH   9  32
BRANCH   1  36
HETATM   36  C   UNL     1      19.496  51.844  49.448  1.00  0.00     0.056 C 
HETATM   37  C   UNL     1      18.916  52.393  48.146  1.00  0.00     0.011 C 
ENDBRANCH   1  36
TORSDOF 9
ENDMDL
MODEL 5
REMARK VINA RESULT:      -7.2     10.939     13.874
REMARK  9 active torsions:
REMARK  status: ('A' for Active; 'I' for Inactive)
REMARK    1  A    between atoms: C_2  and  C_3 
REMARK    2  A    between atoms: C_7  and  C_8 
REMARK    3  A    between atoms: C_8  and  C_9 
REMARK       I    between atoms: C_9  and  N_10 
REMARK    4  A    between atoms: N_10  and  C_11 
REMARK    5  A    between atoms: C_11  and  C_12 
REMARK    6  A    between atoms: C_12  and  C_13 
REMARK    7  A    between atoms: C_21  and  C_22 
REMARK    8  A    between atoms: C_32  and  C_33 
REMARK    9  A    between atoms: C_33  and  O_34 
ROOT
HETATM    1  C   UNL     1      28.167  44.789  39.266  1.00  0.00     0.051 C 
HETATM    2  N   UNL     1      29.156  45.560  39.831  1.00  0.00    -0.228 NA
HETATM    3  C   UNL     1      29.279  46.777  39.448  1.00  0.00     0.170 C 
HETATM    4  N   UNL     1      28.253  47.568  38.578  1.00  0.00    -0.318 N 
HETATM    5  C   UNL     1      28.589  48.821  38.582  1.00  0.00     0.011 C 
HETATM    6  C   UNL     1      27.087  46.765  38.118  1.00  0.00     0.166 C 
HETATM    7  S   UNL     1      30.603  47.765  39.986  1.00  0.00    -0.086 SA
HETATM    8  C   UNL     1      30.049  49.092  38.890  1.00  0.00     0.135 C 
HETATM    9  C   UNL     1      27.290  45.292  38.373  1.00  0.00     0.069 C 
ENDROOT
BRANCH   5  10
HETATM   10  C   UNL     1      27.597  49.958  38.571  1.00  0.00     0.156 C 
BRANCH  10  11
HETATM   11  C   UNL     1      27.562  50.549  39.981  1.00  0.00     0.222 C 
HETATM   12  N   UNL     1      27.790  51.894  40.100  1.00  0.00    -0.361 N 
HETATM   13  H   UNL     1      27.918  52.452  39.259  1.00  0.00     0.162 HD
HETATM   14  O   UNL     1      27.408  49.819  40.964  1.00  0.00    -0.273 OA
BRANCH  12  15
HETATM   15  C   UNL     1      28.321  52.456  41.335  1.00  0.00     0.124 C 
BRANCH  15  16
HETATM   16  C   UNL     1      29.825  52.757  41.376  1.00  0.00     0.053 C 
BRANCH  16  17
HETATM   17  C   UNL     1      30.751  51.665  41.904  1.00  0.00     0.189 C 
HETATM   18  N   UNL     1      31.855  51.210  40.968  1.00  0.00    -0.071 N 
HETATM   19  H   UNL     1      31.406  50.557  40.298  1.00  0.00     0.279 HD
HETATM   20  C   UNL     1      32.589  52.256  40.176  1.00  0.00     0.270 C 
HETATM   21  C   UNL     1      32.817  50.427  41.852  1.00  0.00     0.235 C 
HETATM   22  C   UNL     1      32.520  50.876  43.278  1.00  0.00     0.030 C 
HETATM   23  C   UNL     1      31.530  52.026  43.159  1.00  0.00     0.035 C 
ENDBRANCH  16  17
ENDBRANCH  15  16
ENDBRANCH  12  15
ENDBRANCH  10  11
ENDBRANCH   5  10
BRANCH   6  24
HETATM   24  C   UNL     1      25.770  47.282  38.702  1.00  0.00    -0.024 A 
HETATM   25  C   UNL     1      24.786  47.904  37.892  1.00  0.00    -0.053 A 
HETATM   26  C   UNL     1      24.943  48.100  36.403  1.00  0.00     0.049 C 
HETATM   27  C   UNL     1      23.578  48.330  38.473  1.00  0.00     0.014 A 
HETATM   28  C   UNL     1      23.325  48.167  39.838  1.00  0.00    -0.061 A 
HETATM   29  C   UNL     1      21.994  48.559  40.416  1.00  0.00     0.048 C 
HETATM   30  C   UNL     1      24.288  47.548  40.633  1.00  0.00     0.007 A 
HETATM   31  C   UNL     1      25.494  47.112  40.077  1.00  0.00     0.011 A 
ENDBRANCH   6  24
BRANCH   9  32
HETATM   32  C   UNL     1      26.557  44.404  37.441  1.00  0.00     0.293 C 
HETATM   33  O   UNL     1      25.439  43.980  37.651  1.00  0.00    -0.259 OA
BRANCH  32  34
HETATM   34  O   UNL     1      27.249  44.345  36.279  1.00  0.00    -0.323 OA
HETATM   35  C   UNL     1      27.660  43.038  35.865  1.00  0.00     0.213 C 
ENDBRANCH  32  34
ENDBRANCH   9  32
BRANCH   1  36
HETATM   36  C   UNL     1      28.214  43.335  39.733  1.00  0.00     0.056 C 
HETATM   37  C   UNL     1      27.452  43.056  41.026  1.00  0.00     0.011 C 
ENDBRANCH   1  36
TORSDOF 9
ENDMDL
MODEL 6
REMARK VINA RESULT:      -7.1      6.859      9.741
REMARK  9 active torsions:
REMARK  status: ('A' for Active; 'I' for Inactive)
REMARK    1  A    between atoms: C_2  and  C_3 
REMARK    2  A    between atoms: C_7  and  C_8 
REMARK    3  A    between atoms: C_8  and  C_9 
REMARK       I    between atoms: C_9  and  N_10 
REMARK    4  A    between atoms: N_10  and  C_11 
REMARK    5  A    between atoms: C_11  and  C_12 
REMARK    6  A    between atoms: C_12  and  C_13 
REMARK    7  A    between atoms: C_21  and  C_22 
REMARK    8  A    between atoms: C_32  and  C_33 
REMARK    9  A    between atoms: C_33  and  O_34 
ROOT
HETATM    1  C   UNL     1      21.043  49.221  48.951  1.00  0.00     0.051 C 
HETATM    2  N   UNL     1      21.614  48.177  48.261  1.00  0.00    -0.228 NA
HETATM    3  C   UNL     1      20.847  47.278  47.764  1.00  0.00     0.170 C 
HETATM    4  N   UNL     1      19.293  47.370  47.640  1.00  0.00    -0.318 N 
HETATM    5  C   UNL     1      18.881  46.396  46.889  1.00  0.00     0.011 C 
HETATM    6  C   UNL     1      18.700  48.598  48.236  1.00  0.00     0.166 C 
HETATM    7  S   UNL     1      21.493  45.844  47.026  1.00  0.00    -0.086 SA
HETATM    8  C   UNL     1      19.816  45.203  46.819  1.00  0.00     0.135 C 
HETATM    9  C   UNL     1      19.706  49.357  49.066  1.00  0.00     0.069 C 
ENDROOT
BRANCH   5  10
HETATM   10  C   UNL     1      17.724  46.506  45.927  1.00  0.00     0.156 C 
BRANCH  10  11
HETATM   11  C   UNL     1      18.265  47.100  44.627  1.00  0.00     0.222 C 
HETATM   12  N   UNL     1      17.396  47.839  43.870  1.00  0.00    -0.361 N 
HETATM   13  H   UNL     1      16.455  48.009  44.218  1.00  0.00     0.162 HD
HETATM   14  O   UNL     1      19.415  46.852  44.253  1.00  0.00    -0.273 OA
BRANCH  12  15
HETATM   15  C   UNL     1      17.585  47.975  42.431  1.00  0.00     0.124 C 
BRANCH  15  16
HETATM   16  C   UNL     1      17.922  49.374  41.899  1.00  0.00     0.053 C 
BRANCH  16  17
HETATM   17  C   UNL     1      19.394  49.715  41.685  1.00  0.00     0.189 C 
HETATM   18  N   UNL     1      20.087  49.010  40.535  1.00  0.00    -0.071 N 
HETATM   19  H   UNL     1      20.320  48.060  40.884  1.00  0.00     0.279 HD
HETATM   20  C   UNL     1      19.336  48.857  39.241  1.00  0.00     0.270 C 
HETATM   21  C   UNL     1      21.378  49.788  40.321  1.00  0.00     0.235 C 
HETATM   22  C   UNL     1      21.149  51.146  40.973  1.00  0.00     0.030 C 
HETATM   23  C   UNL     1      19.683  51.176  41.380  1.00  0.00     0.035 C 
ENDBRANCH  16  17
ENDBRANCH  15  16
ENDBRANCH  12  15
ENDBRANCH  10  11
ENDBRANCH   5  10
BRANCH   6  24
HETATM   24  C   UNL     1      18.031  49.481  47.180  1.00  0.00    -0.024 A 
HETATM   25  C   UNL     1      16.622  49.632  47.116  1.00  0.00    -0.053 A 
HETATM   26  C   UNL     1      15.672  48.953  48.074  1.00  0.00     0.049 C 
HETATM   27  C   UNL     1      16.059  50.483  46.147  1.00  0.00     0.014 A 
HETATM   28  C   UNL     1      16.856  51.179  45.234  1.00  0.00    -0.061 A 
HETATM   29  C   UNL     1      16.233  52.142  44.262  1.00  0.00     0.048 C 
HETATM   30  C   UNL     1      18.241  51.037  45.302  1.00  0.00     0.007 A 
HETATM   31  C   UNL     1      18.823  50.201  46.259  1.00  0.00     0.011 A 
ENDBRANCH   6  24
BRANCH   9  32
HETATM   32  C   UNL     1      19.113  50.167  50.155  1.00  0.00     0.293 C 
HETATM   33  O   UNL     1      18.762  49.707  51.224  1.00  0.00    -0.259 OA
BRANCH  32  34
HETATM   34  O   UNL     1      19.236  51.474  49.828  1.00  0.00    -0.323 OA
HETATM   35  C   UNL     1      18.013  52.208  49.723  1.00  0.00     0.213 C 
ENDBRANCH  32  34
ENDBRANCH   9  32
BRANCH   1  36
HETATM   36  C   UNL     1      22.080  50.148  49.580  1.00  0.00     0.056 C 
HETATM   37  C   UNL     1      22.788  51.076  48.595  1.00  0.00     0.011 C 
ENDBRANCH   1  36
TORSDOF 9
ENDMDL
MODEL 7
REMARK VINA RESULT:      -7.0      1.857      2.544
REMARK  9 active torsions:
REMARK  status: ('A' for Active; 'I' for Inactive)
REMARK    1  A    between atoms: C_2  and  C_3 
REMARK    2  A    between atoms: C_7  and  C_8 
REMARK    3  A    between atoms: C_8  and  C_9 
REMARK       I    between atoms: C_9  and  N_10 
REMARK    4  A    between atoms: N_10  and  C_11 
REMARK    5  A    between atoms: C_11  and  C_12 
REMARK    6  A    between atoms: C_12  and  C_13 
REMARK    7  A    between atoms: C_21  and  C_22 
REMARK    8  A    between atoms: C_32  and  C_33 
REMARK    9  A    between atoms: C_33  and  O_34 
ROOT
HETATM    1  C   UNL     1      27.281  41.030  49.344  1.00  0.00     0.051 C 
HETATM    2  N   UNL     1      26.338  40.780  48.374  1.00  0.00    -0.228 NA
HETATM    3  C   UNL     1      25.124  41.128  48.594  1.00  0.00     0.170 C 
HETATM    4  N   UNL     1      24.634  42.044  49.759  1.00  0.00    -0.318 N 
HETATM    5  C   UNL     1      23.397  42.366  49.537  1.00  0.00     0.011 C 
HETATM    6  C   UNL     1      25.703  42.459  50.708  1.00  0.00     0.166 C 
HETATM    7  S   UNL     1      23.847  40.700  47.497  1.00  0.00    -0.086 SA
HETATM    8  C   UNL     1      22.638  41.409  48.638  1.00  0.00     0.135 C 
HETATM    9  C   UNL     1      26.977  41.681  50.485  1.00  0.00     0.069 C 
ENDROOT
BRANCH   5  10
HETATM   10  C   UNL     1      22.801  43.708  49.885  1.00  0.00     0.156 C 
BRANCH  10  11
HETATM   11  C   UNL     1      22.990  44.621  48.673  1.00  0.00     0.222 C 
HETATM   12  N   UNL     1      22.443  45.874  48.745  1.00  0.00    -0.361 N 
HETATM   13  H   UNL     1      21.985  46.168  49.605  1.00  0.00     0.162 HD
HETATM   14  O   UNL     1      23.549  44.206  47.654  1.00  0.00    -0.273 OA
BRANCH  12  15
HETATM   15  C   UNL     1      22.070  46.598  47.536  1.00  0.00     0.124 C 
BRANCH  15  16
HETATM   16  C   UNL     1      21.143  47.809  47.704  1.00  0.00     0.053 C 
BRANCH  16  17
HETATM   17  C   UNL     1      20.043  47.719  48.759  1.00  0.00     0.189 C 
HETATM   18  N   UNL     1      20.156  48.675  49.930  1.00  0.00    -0.071 N 
HETATM   19  H   UNL     1      20.856  48.256  50.572  1.00  0.00     0.279 HD
HETATM   20  C   UNL     1      20.573  50.092  49.652  1.00  0.00     0.270 C 
HETATM   21  C   UNL     1      18.788  48.635  50.599  1.00  0.00     0.235 C 
HETATM   22  C   UNL     1      17.834  48.088  49.544  1.00  0.00     0.030 C 
HETATM   23  C   UNL     1      18.637  48.000  48.255  1.00  0.00     0.035 C 
ENDBRANCH  16  17
ENDBRANCH  15  16
ENDBRANCH  12  15
ENDBRANCH  10  11
ENDBRANCH   5  10
BRANCH   6  24
HETATM   24  C   UNL     1      25.932  43.972  50.688  1.00  0.00    -0.024 A 
HETATM   25  C   UNL     1      25.642  44.786  51.813  1.00  0.00    -0.053 A 
HETATM   26  C   UNL     1      25.099  44.240  53.112  1.00  0.00     0.049 C 
HETATM   27  C   UNL     1      25.903  46.167  51.754  1.00  0.00     0.014 A 
HETATM   28  C   UNL     1      26.433  46.763  50.606  1.00  0.00    -0.061 A 
HETATM   29  C   UNL     1      26.777  48.226  50.600  1.00  0.00     0.048 C 
HETATM   30  C   UNL     1      26.726  45.962  49.504  1.00  0.00     0.007 A 
HETATM   31  C   UNL     1      26.479  44.586  49.540  1.00  0.00     0.011 A 
ENDBRANCH   6  24
BRANCH   9  32
HETATM   32  C   UNL     1      27.827  41.543  51.691  1.00  0.00     0.293 C 
HETATM   33  O   UNL     1      27.835  40.558  52.402  1.00  0.00    -0.259 OA
BRANCH  32  34
HETATM   34  O   UNL     1      28.699  42.578  51.716  1.00  0.00    -0.323 OA
HETATM   35  C   UNL     1      29.619  42.590  52.812  1.00  0.00     0.213 C 
ENDBRANCH  32  34
ENDBRANCH   9  32
BRANCH   1  36
HETATM   36  C   UNL     1      28.654  40.461  48.992  1.00  0.00     0.056 C 
HETATM   37  C   UNL     1      28.682  38.949  48.779  1.00  0.00     0.011 C 
ENDBRANCH   1  36
TORSDOF 9
ENDMDL
MODEL 8
REMARK VINA RESULT:      -7.0     18.609     22.096
REMARK  9 active torsions:
REMARK  status: ('A' for Active; 'I' for Inactive)
REMARK    1  A    between atoms: C_2  and  C_3 
REMARK    2  A    between atoms: C_7  and  C_8 
REMARK    3  A    between atoms: C_8  and  C_9 
REMARK       I    between atoms: C_9  and  N_10 
REMARK    4  A    between atoms: N_10  and  C_11 
REMARK    5  A    between atoms: C_11  and  C_12 
REMARK    6  A    between atoms: C_12  and  C_13 
REMARK    7  A    between atoms: C_21  and  C_22 
REMARK    8  A    between atoms: C_32  and  C_33 
REMARK    9  A    between atoms: C_33  and  O_34 
ROOT
HETATM    1  C   UNL     1      37.568  51.984  68.977  1.00  0.00     0.051 C 
HETATM    2  N   UNL     1      36.712  51.229  69.745  1.00  0.00    -0.228 NA
HETATM    3  C   UNL     1      36.252  50.137  69.258  1.00  0.00     0.170 C 
HETATM    4  N   UNL     1      36.761  49.430  67.962  1.00  0.00    -0.318 N 
HETATM    5  C   UNL     1      36.231  48.247  67.903  1.00  0.00     0.011 C 
HETATM    6  C   UNL     1      37.822  50.174  67.231  1.00  0.00     0.166 C 
HETATM    7  S   UNL     1      35.040  49.213  70.091  1.00  0.00    -0.086 SA
HETATM    8  C   UNL     1      34.941  48.084  68.683  1.00  0.00     0.135 C 
HETATM    9  C   UNL     1      37.983  51.579  67.760  1.00  0.00     0.069 C 
ENDROOT
BRANCH   5  10
HETATM   10  C   UNL     1      36.941  47.033  67.357  1.00  0.00     0.156 C 
BRANCH  10  11
HETATM   11  C   UNL     1      36.336  46.727  65.986  1.00  0.00     0.222 C 
HETATM   12  N   UNL     1      36.326  45.417  65.588  1.00  0.00    -0.361 N 
HETATM   13  H   UNL     1      36.664  44.700  66.226  1.00  0.00     0.162 HD
HETATM   14  O   UNL     1      35.948  47.640  65.252  1.00  0.00    -0.273 OA
BRANCH  12  15
HETATM   15  C   UNL     1      36.311  45.065  64.173  1.00  0.00     0.124 C 
BRANCH  15  16
HETATM   16  C   UNL     1      37.635  45.188  63.408  1.00  0.00     0.053 C 
BRANCH  16  17
HETATM   17  C   UNL     1      38.351  43.897  63.020  1.00  0.00     0.189 C 
HETATM   18  N   UNL     1      39.668  43.622  63.721  1.00  0.00    -0.071 N 
HETATM   19  H   UNL     1      40.375  44.204  63.233  1.00  0.00     0.279 HD
HETATM   20  C   UNL     1      39.762  43.914  65.192  1.00  0.00     0.270 C 
HETATM   21  C   UNL     1      39.959  42.154  63.441  1.00  0.00     0.235 C 
HETATM   22  C   UNL     1      38.620  41.538  63.052  1.00  0.00     0.030 C 
HETATM   23  C   UNL     1      37.575  42.618  63.292  1.00  0.00     0.035 C 
ENDBRANCH  16  17
ENDBRANCH  15  16
ENDBRANCH  12  15
ENDBRANCH  10  11
ENDBRANCH   5  10
BRANCH   6  24
HETATM   24  C   UNL     1      39.146  49.406  67.204  1.00  0.00    -0.024 A 
HETATM   25  C   UNL     1      39.727  48.961  65.988  1.00  0.00    -0.053 A 
HETATM   26  C   UNL     1      39.106  49.209  64.634  1.00  0.00     0.049 C 
HETATM   27  C   UNL     1      40.962  48.289  66.016  1.00  0.00     0.014 A 
HETATM   28  C   UNL     1      41.631  48.037  67.218  1.00  0.00    -0.061 A 
HETATM   29  C   UNL     1      42.987  47.389  67.210  1.00  0.00     0.048 C 
HETATM   30  C   UNL     1      41.064  48.482  68.411  1.00  0.00     0.007 A 
HETATM   31  C   UNL     1      39.840  49.156  68.408  1.00  0.00     0.011 A 
ENDBRANCH   6  24
BRANCH   9  32
HETATM   32  C   UNL     1      38.497  52.550  66.767  1.00  0.00     0.293 C 
HETATM   33  O   UNL     1      39.668  52.640  66.454  1.00  0.00    -0.259 OA
BRANCH  32  34
HETATM   34  O   UNL     1      37.440  53.128  66.151  1.00  0.00    -0.323 OA
HETATM   35  C   UNL     1      37.430  54.559  66.143  1.00  0.00     0.213 C 
ENDBRANCH  32  34
ENDBRANCH   9  32
BRANCH   1  36
HETATM   36  C   UNL     1      37.943  53.308  69.640  1.00  0.00     0.056 C 
HETATM   37  C   UNL     1      36.803  54.321  69.730  1.00  0.00     0.011 C 
ENDBRANCH   1  36
TORSDOF 9
ENDMDL
MODEL 9
REMARK VINA RESULT:      -6.9      3.689      9.249
REMARK  9 active torsions:
REMARK  status: ('A' for Active; 'I' for Inactive)
REMARK    1  A    between atoms: C_2  and  C_3 
REMARK    2  A    between atoms: C_7  and  C_8 
REMARK    3  A    between atoms: C_8  and  C_9 
REMARK       I    between atoms: C_9  and  N_10 
REMARK    4  A    between atoms: N_10  and  C_11 
REMARK    5  A    between atoms: C_11  and  C_12 
REMARK    6  A    between atoms: C_12  and  C_13 
REMARK    7  A    between atoms: C_21  and  C_22 
REMARK    8  A    between atoms: C_32  and  C_33 
REMARK    9  A    between atoms: C_33  and  O_34 
ROOT
HETATM    1  C   UNL     1      20.343  50.217  49.395  1.00  0.00     0.051 C 
HETATM    2  N   UNL     1      21.705  50.230  49.200  1.00  0.00    -0.228 NA
HETATM    3  C   UNL     1      22.313  49.112  49.046  1.00  0.00     0.170 C 
HETATM    4  N   UNL     1      21.633  47.729  48.802  1.00  0.00    -0.318 N 
HETATM    5  C   UNL     1      22.548  46.873  48.466  1.00  0.00     0.011 C 
HETATM    6  C   UNL     1      20.145  47.759  48.836  1.00  0.00     0.166 C 
HETATM    7  S   UNL     1      24.047  49.029  48.964  1.00  0.00    -0.086 SA
HETATM    8  C   UNL     1      23.951  47.225  48.921  1.00  0.00     0.135 C 
HETATM    9  C   UNL     1      19.627  49.075  49.366  1.00  0.00     0.069 C 
ENDROOT
BRANCH   5  10
HETATM   10  C   UNL     1      22.335  45.761  47.468  1.00  0.00     0.156 C 
BRANCH  10  11
HETATM   11  C   UNL     1      22.065  44.481  48.260  1.00  0.00     0.222 C 
HETATM   12  N   UNL     1      22.441  44.472  49.576  1.00  0.00    -0.361 N 
HETATM   13  H   UNL     1      22.830  45.317  49.989  1.00  0.00     0.162 HD
HETATM   14  O   UNL     1      21.597  43.485  47.703  1.00  0.00    -0.273 OA
BRANCH  12  15
HETATM   15  C   UNL     1      22.753  43.221  50.256  1.00  0.00     0.124 C 
BRANCH  15  16
HETATM   16  C   UNL     1      24.208  43.007  50.694  1.00  0.00     0.053 C 
BRANCH  16  17
HETATM   17  C   UNL     1      25.090  42.124  49.816  1.00  0.00     0.189 C 
HETATM   18  N   UNL     1      26.193  42.827  49.049  1.00  0.00    -0.071 N 
HETATM   19  H   UNL     1      25.734  43.254  48.221  1.00  0.00     0.279 HD
HETATM   20  C   UNL     1      26.973  43.902  49.753  1.00  0.00     0.270 C 
HETATM   21  C   UNL     1      27.114  41.710  48.579  1.00  0.00     0.235 C 
HETATM   22  C   UNL     1      26.809  40.521  49.483  1.00  0.00     0.030 C 
HETATM   23  C   UNL     1      25.859  41.039  50.553  1.00  0.00     0.035 C 
ENDBRANCH  16  17
ENDBRANCH  15  16
ENDBRANCH  12  15
ENDBRANCH  10  11
ENDBRANCH   5  10
BRANCH   6  24
HETATM   24  C   UNL     1      19.533  47.395  47.482  1.00  0.00    -0.024 A 
HETATM   25  C   UNL     1      18.829  46.180  47.282  1.00  0.00    -0.053 A 
HETATM   26  C   UNL     1      18.616  45.158  48.374  1.00  0.00     0.049 C 
HETATM   27  C   UNL     1      18.257  45.908  46.026  1.00  0.00     0.014 A 
HETATM   28  C   UNL     1      18.373  46.805  44.960  1.00  0.00    -0.061 A 
HETATM   29  C   UNL     1      17.684  46.526  43.655  1.00  0.00     0.048 C 
HETATM   30  C   UNL     1      19.058  48.003  45.158  1.00  0.00     0.007 A 
HETATM   31  C   UNL     1      19.632  48.296  46.399  1.00  0.00     0.011 A 
ENDBRANCH   6  24
BRANCH   9  32
HETATM   32  C   UNL     1      18.299  48.990  50.017  1.00  0.00     0.293 C 
HETATM   33  O   UNL     1      18.140  48.764  51.199  1.00  0.00    -0.259 OA
BRANCH  32  34
HETATM   34  O   UNL     1      17.365  49.408  49.131  1.00  0.00    -0.323 OA
HETATM   35  C   UNL     1      16.428  48.417  48.700  1.00  0.00     0.213 C 
ENDBRANCH  32  34
ENDBRANCH   9  32
BRANCH   1  36
HETATM   36  C   UNL     1      19.775  51.606  49.675  1.00  0.00     0.056 C 
HETATM   37  C   UNL     1      19.283  52.357  48.439  1.00  0.00     0.011 C 
ENDBRANCH   1  36
TORSDOF 9
ENDMDL
MODEL 10
REMARK VINA RESULT:      -6.9      9.375     11.939
REMARK  9 active torsions:
REMARK  status: ('A' for Active; 'I' for Inactive)
REMARK    1  A    between atoms: C_2  and  C_3 
REMARK    2  A    between atoms: C_7  and  C_8 
REMARK    3  A    between atoms: C_8  and  C_9 
REMARK       I    between atoms: C_9  and  N_10 
REMARK    4  A    between atoms: N_10  and  C_11 
REMARK    5  A    between atoms: C_11  and  C_12 
REMARK    6  A    between atoms: C_12  and  C_13 
REMARK    7  A    between atoms: C_21  and  C_22 
REMARK    8  A    between atoms: C_32  and  C_33 
REMARK    9  A    between atoms: C_33  and  O_34 
ROOT
HETATM    1  C   UNL     1      18.551  48.015  43.711  1.00  0.00     0.051 C 
HETATM    2  N   UNL     1      18.772  48.979  42.754  1.00  0.00    -0.228 NA
HETATM    3  C   UNL     1      18.110  50.074  42.824  1.00  0.00     0.170 C 
HETATM    4  N   UNL     1      17.248  50.545  44.038  1.00  0.00    -0.318 N 
HETATM    5  C   UNL     1      16.919  51.786  43.853  1.00  0.00     0.011 C 
HETATM    6  C   UNL     1      17.163  49.561  45.151  1.00  0.00     0.166 C 
HETATM    7  S   UNL     1      18.204  51.270  41.567  1.00  0.00    -0.086 SA
HETATM    8  C   UNL     1      16.934  52.244  42.407  1.00  0.00     0.135 C 
HETATM    9  C   UNL     1      17.711  48.214  44.747  1.00  0.00     0.069 C 
ENDROOT
BRANCH   5  10
HETATM   10  C   UNL     1      16.801  52.800  44.964  1.00  0.00     0.156 C 
BRANCH  10  11
HETATM   11  C   UNL     1      15.312  53.002  45.243  1.00  0.00     0.222 C 
HETATM   12  N   UNL     1      14.921  54.240  45.679  1.00  0.00    -0.361 N 
HETATM   13  H   UNL     1      15.613  54.983  45.749  1.00  0.00     0.162 HD
HETATM   14  O   UNL     1      14.521  52.060  45.148  1.00  0.00    -0.273 OA
BRANCH  12  15
HETATM   15  C   UNL     1      13.714  54.406  46.479  1.00  0.00     0.124 C 
BRANCH  15  16
HETATM   16  C   UNL     1      13.797  55.354  47.683  1.00  0.00     0.053 C 
BRANCH  16  17
HETATM   17  C   UNL     1      14.403  54.808  48.973  1.00  0.00     0.189 C 
HETATM   18  N   UNL     1      13.490  54.778  50.184  1.00  0.00    -0.071 N 
HETATM   19  H   UNL     1      13.481  55.747  50.555  1.00  0.00     0.279 HD
HETATM   20  C   UNL     1      12.065  54.342  49.987  1.00  0.00     0.270 C 
HETATM   21  C   UNL     1      14.199  53.874  51.183  1.00  0.00     0.235 C 
HETATM   22  C   UNL     1      15.182  53.047  50.362  1.00  0.00     0.030 C 
HETATM   23  C   UNL     1      14.886  53.368  48.904  1.00  0.00     0.035 C 
ENDBRANCH  16  17
ENDBRANCH  15  16
ENDBRANCH  12  15
ENDBRANCH  10  11
ENDBRANCH   5  10
BRANCH   6  24
HETATM   24  C   UNL     1      17.808  50.090  46.434  1.00  0.00    -0.024 A 
HETATM   25  C   UNL     1      17.065  50.253  47.632  1.00  0.00    -0.053 A 
HETATM   26  C   UNL     1      15.597  49.914  47.748  1.00  0.00     0.049 C 
HETATM   27  C   UNL     1      17.713  50.711  48.793  1.00  0.00     0.014 A 
HETATM   28  C   UNL     1      19.075  51.023  48.795  1.00  0.00    -0.061 A 
HETATM   29  C   UNL     1      19.758  51.433  50.070  1.00  0.00     0.048 C 
HETATM   30  C   UNL     1      19.808  50.855  47.621  1.00  0.00     0.007 A 
HETATM   31  C   UNL     1      19.186  50.397  46.456  1.00  0.00     0.011 A 
ENDBRANCH   6  24
BRANCH   9  32
HETATM   32  C   UNL     1      17.124  47.070  45.483  1.00  0.00     0.293 C 
HETATM   33  O   UNL     1      16.180  46.420  45.081  1.00  0.00    -0.259 OA
BRANCH  32  34
HETATM   34  O   UNL     1      17.938  46.772  46.523  1.00  0.00    -0.323 OA
HETATM   35  C   UNL     1      17.287  46.517  47.771  1.00  0.00     0.213 C 
ENDBRANCH  32  34
ENDBRANCH   9  32
BRANCH   1  36
HETATM   36  C   UNL     1      19.321  46.725  43.436  1.00  0.00     0.056 C 
HETATM   37  C   UNL     1      19.277  46.252  41.984  1.00  0.00     0.011 C 
ENDBRANCH   1  36
TORSDOF 9
ENDMDL
