MODEL 1
REMARK VINA RESULT:      -9.4      0.000      0.000
REMARK  6 active torsions:
REMARK  status: ('A' for Active; 'I' for Inactive)
REMARK    1  A    between atoms: C_2  and  O_3 
REMARK    2  A    between atoms: O_3  and  C_4 
REMARK    3  A    between atoms: C_5  and  O_6 
REMARK    4  A    between atoms: O_6  and  C_7 
REMARK    5  A    between atoms: C_7  and  C_8 
REMARK    6  A    between atoms: C_18  and  C_19 
ROOT
HETATM    1  C   UNL     1      24.962  45.154  50.564  1.00  0.00     0.103 A 
HETATM    2  C   UNL     1      24.902  43.873  51.113  1.00  0.00     0.112 A 
HETATM    3  C   UNL     1      23.959  42.945  50.679  1.00  0.00     0.041 A 
HETATM    4  C   UNL     1      23.140  43.262  49.595  1.00  0.00     0.014 A 
HETATM    5  C   UNL     1      23.260  44.503  48.935  1.00  0.00    -0.013 A 
HETATM    6  C   UNL     1      24.151  45.458  49.468  1.00  0.00     0.050 A 
ENDROOT
BRANCH   5   7
HETATM    7  C   UNL     1      22.486  44.730  47.636  1.00  0.00     0.219 C 
HETATM    8  N   UNL     1      21.078  44.416  47.717  1.00  0.00    -0.332 N 
HETATM    9  C   UNL     1      20.157  45.270  48.273  1.00  0.00     0.256 C 
HETATM   10  H   UNL     1      20.799  43.448  47.671  1.00  0.00     0.165 HD
HETATM   11  O   UNL     1      19.050  44.885  48.630  1.00  0.00    -0.267 OA
HETATM   12  C   UNL     1      20.605  46.644  48.430  1.00  0.00     0.073 A 
HETATM   13  C   UNL     1      21.807  47.008  47.868  1.00  0.00     0.088 A 
HETATM   14  C   UNL     1      19.996  47.733  49.126  1.00  0.00    -0.023 A 
HETATM   15  S   UNL     1      22.180  48.645  48.112  1.00  0.00    -0.074 SA
HETATM   16  N   UNL     1      22.603  46.124  47.220  1.00  0.00    -0.358 N 
HETATM   17  C   UNL     1      20.768  48.877  49.035  1.00  0.00     0.018 A 
HETATM   18  C   UNL     1      20.461  50.175  49.696  1.00  0.00     0.281 C 
HETATM   19  N   UNL     1      19.013  50.226  50.176  1.00  0.00    -0.070 N 
HETATM   20  C   UNL     1      18.596  48.917  50.842  1.00  0.00     0.239 C 
HETATM   21  H   UNL     1      18.987  50.948  50.907  1.00  0.00     0.279 HD
HETATM   22  C   UNL     1      18.066  50.677  49.102  1.00  0.00     0.270 C 
HETATM   23  C   UNL     1      18.704  47.715  49.887  1.00  0.00     0.068 C 
HETATM   24  H   UNL     1      23.555  46.418  47.023  1.00  0.00     0.162 HD
ENDBRANCH   5   7
BRANCH   1  25
HETATM   25  O   UNL     1      25.883  46.021  51.090  1.00  0.00    -0.349 OA
BRANCH  25  26
HETATM   26  C   UNL     1      25.323  47.129  51.802  1.00  0.00     0.171 C 
HETATM   27  C   UNL     1      25.804  47.054  53.240  1.00  0.00     0.034 C 
ENDBRANCH  25  26
ENDBRANCH   1  25
BRANCH   2  28
HETATM   28  O   UNL     1      25.796  43.537  52.131  1.00  0.00    -0.272 OA
BRANCH  28  29
HETATM   29  C   UNL     1      27.021  43.167  51.611  1.00  0.00     0.298 C 
HETATM   30  O   UNL     1      27.272  42.738  50.494  1.00  0.00    -0.259 OA
BRANCH  29  31
HETATM   31  C   UNL     1      28.059  43.331  52.653  1.00  0.00     0.040 A 
HETATM   32  C   UNL     1      27.743  44.063  53.804  1.00  0.00     0.019 A 
HETATM   33  C   UNL     1      28.680  44.183  54.834  1.00  0.00     0.020 A 
HETATM   34  C   UNL     1      29.920  43.556  54.715  1.00  0.00     0.011 A 
HETATM   35 BR   UNL     1      31.176  43.693  56.121  1.00  0.00    -0.051 Br
HETATM   36  C   UNL     1      30.238  42.818  53.574  1.00  0.00     0.020 A 
HETATM   37  C   UNL     1      29.308  42.705  52.538  1.00  0.00     0.019 A 
ENDBRANCH  29  31
ENDBRANCH  28  29
ENDBRANCH   2  28
TORSDOF 6
ENDMDL
MODEL 2
REMARK VINA RESULT:      -8.5      1.186      2.345
REMARK  6 active torsions:
REMARK  status: ('A' for Active; 'I' for Inactive)
REMARK    1  A    between atoms: C_2  and  O_3 
REMARK    2  A    between atoms: O_3  and  C_4 
REMARK    3  A    between atoms: C_5  and  O_6 
REMARK    4  A    between atoms: O_6  and  C_7 
REMARK    5  A    between atoms: C_7  and  C_8 
REMARK    6  A    between atoms: C_18  and  C_19 
ROOT
HETATM    1  C   UNL     1      24.295  43.432  50.193  1.00  0.00     0.103 A 
HETATM    2  C   UNL     1      24.712  44.593  50.846  1.00  0.00     0.112 A 
HETATM    3  C   UNL     1      24.502  45.850  50.288  1.00  0.00     0.041 A 
HETATM    4  C   UNL     1      23.757  45.958  49.113  1.00  0.00     0.014 A 
HETATM    5  C   UNL     1      23.213  44.814  48.492  1.00  0.00    -0.013 A 
HETATM    6  C   UNL     1      23.536  43.549  49.027  1.00  0.00     0.050 A 
ENDROOT
BRANCH   5   7
HETATM    7  C   UNL     1      22.243  44.994  47.324  1.00  0.00     0.219 C 
HETATM    8  N   UNL     1      20.884  44.597  47.608  1.00  0.00    -0.332 N 
HETATM    9  C   UNL     1      20.006  45.395  48.301  1.00  0.00     0.256 C 
HETATM   10  H   UNL     1      20.658  43.614  47.596  1.00  0.00     0.165 HD
HETATM   11  O   UNL     1      18.988  44.945  48.813  1.00  0.00    -0.267 OA
HETATM   12  C   UNL     1      20.391  46.793  48.402  1.00  0.00     0.073 A 
HETATM   13  C   UNL     1      21.473  47.227  47.673  1.00  0.00     0.088 A 
HETATM   14  C   UNL     1      19.829  47.844  49.190  1.00  0.00    -0.023 A 
HETATM   15  S   UNL     1      21.783  48.884  47.873  1.00  0.00    -0.074 SA
HETATM   16  N   UNL     1      22.216  46.392  46.907  1.00  0.00    -0.358 N 
HETATM   17  C   UNL     1      20.511  49.032  48.995  1.00  0.00     0.018 A 
HETATM   18  C   UNL     1      20.228  50.310  49.705  1.00  0.00     0.281 C 
HETATM   19  N   UNL     1      18.867  50.275  50.393  1.00  0.00    -0.070 N 
HETATM   20  C   UNL     1      18.630  48.944  51.103  1.00  0.00     0.239 C 
HETATM   21  H   UNL     1      18.906  50.994  51.126  1.00  0.00     0.279 HD
HETATM   22  C   UNL     1      17.747  50.669  49.474  1.00  0.00     0.270 C 
HETATM   23  C   UNL     1      18.666  47.750  50.132  1.00  0.00     0.068 C 
HETATM   24  H   UNL     1      23.110  46.742  46.574  1.00  0.00     0.162 HD
ENDBRANCH   5   7
BRANCH   1  25
HETATM   25  O   UNL     1      24.593  42.234  50.788  1.00  0.00    -0.349 OA
BRANCH  25  26
HETATM   26  C   UNL     1      25.421  41.369  50.006  1.00  0.00     0.171 C 
HETATM   27  C   UNL     1      26.526  40.840  50.903  1.00  0.00     0.034 C 
ENDBRANCH  25  26
ENDBRANCH   1  25
BRANCH   2  28
HETATM   28  O   UNL     1      25.368  44.473  52.072  1.00  0.00    -0.272 OA
BRANCH  28  29
HETATM   29  C   UNL     1      26.738  44.520  51.907  1.00  0.00     0.298 C 
HETATM   30  O   UNL     1      27.387  44.318  50.889  1.00  0.00    -0.259 OA
BRANCH  29  31
HETATM   31  C   UNL     1      27.373  44.832  53.207  1.00  0.00     0.040 A 
HETATM   32  C   UNL     1      28.434  44.029  53.644  1.00  0.00     0.019 A 
HETATM   33  C   UNL     1      29.096  44.335  54.835  1.00  0.00     0.020 A 
HETATM   34  C   UNL     1      28.704  45.451  55.575  1.00  0.00     0.011 A 
HETATM   35 BR   UNL     1      29.619  45.883  57.172  1.00  0.00    -0.051 Br
HETATM   36  C   UNL     1      27.652  46.259  55.141  1.00  0.00     0.020 A 
HETATM   37  C   UNL     1      26.982  45.950  53.956  1.00  0.00     0.019 A 
ENDBRANCH  29  31
ENDBRANCH  28  29
ENDBRANCH   2  28
TORSDOF 6
ENDMDL
MODEL 3
REMARK VINA RESULT:      -8.5     12.519     14.050
REMARK  6 active torsions:
REMARK  status: ('A' for Active; 'I' for Inactive)
REMARK    1  A    between atoms: C_2  and  O_3 
REMARK    2  A    between atoms: O_3  and  C_4 
REMARK    3  A    between atoms: C_5  and  O_6 
REMARK    4  A    between atoms: O_6  and  C_7 
REMARK    5  A    between atoms: C_7  and  C_8 
REMARK    6  A    between atoms: C_18  and  C_19 
ROOT
HETATM    1  C   UNL     1      31.115  52.132  41.610  1.00  0.00     0.103 A 
HETATM    2  C   UNL     1      31.456  52.440  40.293  1.00  0.00     0.112 A 
HETATM    3  C   UNL     1      30.600  52.143  39.236  1.00  0.00     0.041 A 
HETATM    4  C   UNL     1      29.328  51.639  39.512  1.00  0.00     0.014 A 
HETATM    5  C   UNL     1      28.902  51.433  40.841  1.00  0.00    -0.013 A 
HETATM    6  C   UNL     1      29.834  51.643  41.880  1.00  0.00     0.050 A 
ENDROOT
BRANCH   5   7
HETATM    7  C   UNL     1      27.441  51.069  41.104  1.00  0.00     0.219 C 
HETATM    8  N   UNL     1      26.614  51.023  39.920  1.00  0.00    -0.332 N 
HETATM    9  C   UNL     1      26.601  49.949  39.064  1.00  0.00     0.256 C 
HETATM   10  H   UNL     1      26.288  51.893  39.529  1.00  0.00     0.165 HD
HETATM   11  O   UNL     1      26.164  50.036  37.923  1.00  0.00    -0.267 OA
HETATM   12  C   UNL     1      27.166  48.724  39.603  1.00  0.00     0.073 A 
HETATM   13  C   UNL     1      27.496  48.687  40.938  1.00  0.00     0.088 A 
HETATM   14  C   UNL     1      27.482  47.494  38.947  1.00  0.00    -0.023 A 
HETATM   15  S   UNL     1      28.119  47.185  41.424  1.00  0.00    -0.074 SA
HETATM   16  N   UNL     1      27.358  49.763  41.750  1.00  0.00    -0.358 N 
HETATM   17  C   UNL     1      28.019  46.579  39.836  1.00  0.00     0.018 A 
HETATM   18  C   UNL     1      28.515  45.223  39.475  1.00  0.00     0.281 C 
HETATM   19  N   UNL     1      28.024  44.799  38.094  1.00  0.00    -0.070 N 
HETATM   20  C   UNL     1      28.132  45.940  37.085  1.00  0.00     0.239 C 
HETATM   21  H   UNL     1      28.673  44.067  37.779  1.00  0.00     0.279 HD
HETATM   22  C   UNL     1      26.663  44.167  38.136  1.00  0.00     0.270 C 
HETATM   23  C   UNL     1      27.296  47.165  37.496  1.00  0.00     0.068 C 
HETATM   24  H   UNL     1      27.815  49.720  42.656  1.00  0.00     0.162 HD
ENDBRANCH   5   7
BRANCH   1  25
HETATM   25  O   UNL     1      32.041  52.407  42.581  1.00  0.00    -0.349 OA
BRANCH  25  26
HETATM   26  C   UNL     1      32.184  51.389  43.576  1.00  0.00     0.171 C 
HETATM   27  C   UNL     1      33.032  51.949  44.703  1.00  0.00     0.034 C 
ENDBRANCH  25  26
ENDBRANCH   1  25
BRANCH   2  28
HETATM   28  O   UNL     1      32.693  53.037  40.043  1.00  0.00    -0.272 OA
BRANCH  28  29
HETATM   29  C   UNL     1      33.547  52.159  39.406  1.00  0.00     0.298 C 
HETATM   30  O   UNL     1      33.457  51.698  38.276  1.00  0.00    -0.259 OA
BRANCH  29  31
HETATM   31  C   UNL     1      34.642  51.790  40.331  1.00  0.00     0.040 A 
HETATM   32  C   UNL     1      34.555  50.577  41.022  1.00  0.00     0.019 A 
HETATM   33  C   UNL     1      35.602  50.170  41.854  1.00  0.00     0.020 A 
HETATM   34  C   UNL     1      36.737  50.972  41.976  1.00  0.00     0.011 A 
HETATM   35 BR   UNL     1      38.166  50.408  43.077  1.00  0.00    -0.051 Br
HETATM   36  C   UNL     1      36.833  52.179  41.283  1.00  0.00     0.020 A 
HETATM   37  C   UNL     1      35.784  52.593  40.459  1.00  0.00     0.019 A 
ENDBRANCH  29  31
ENDBRANCH  28  29
ENDBRANCH   2  28
TORSDOF 6
ENDMDL
MODEL 4
REMARK VINA RESULT:      -8.1     10.924     12.458
REMARK  6 active torsions:
REMARK  status: ('A' for Active; 'I' for Inactive)
REMARK    1  A    between atoms: C_2  and  O_3 
REMARK    2  A    between atoms: O_3  and  C_4 
REMARK    3  A    between atoms: C_5  and  O_6 
REMARK    4  A    between atoms: O_6  and  C_7 
REMARK    5  A    between atoms: C_7  and  C_8 
REMARK    6  A    between atoms: C_18  and  C_19 
ROOT
HETATM    1  C   UNL     1      29.846  49.712  39.947  1.00  0.00     0.103 A 
HETATM    2  C   UNL     1      31.104  49.416  40.473  1.00  0.00     0.112 A 
HETATM    3  C   UNL     1      31.633  48.131  40.400  1.00  0.00     0.041 A 
HETATM    4  C   UNL     1      30.947  47.151  39.682  1.00  0.00     0.014 A 
HETATM    5  C   UNL     1      29.731  47.449  39.030  1.00  0.00    -0.013 A 
HETATM    6  C   UNL     1      29.172  48.731  39.215  1.00  0.00     0.050 A 
ENDROOT
BRANCH   5   7
HETATM    7  C   UNL     1      29.116  46.406  38.096  1.00  0.00     0.219 C 
HETATM    8  N   UNL     1      29.235  45.043  38.560  1.00  0.00    -0.332 N 
HETATM    9  C   UNL     1      28.400  44.507  39.510  1.00  0.00     0.256 C 
HETATM   10  H   UNL     1      30.118  44.572  38.444  1.00  0.00     0.165 HD
HETATM   11  O   UNL     1      28.691  43.489  40.126  1.00  0.00    -0.267 OA
HETATM   12  C   UNL     1      27.173  45.250  39.744  1.00  0.00     0.073 A 
HETATM   13  C   UNL     1      26.871  46.296  38.903  1.00  0.00     0.088 A 
HETATM   14  C   UNL     1      26.188  45.094  40.767  1.00  0.00    -0.023 A 
HETATM   15  S   UNL     1      25.399  47.047  39.286  1.00  0.00    -0.074 SA
HETATM   16  N   UNL     1      27.697  46.684  37.901  1.00  0.00    -0.358 N 
HETATM   17  C   UNL     1      25.174  46.025  40.629  1.00  0.00     0.018 A 
HETATM   18  C   UNL     1      24.023  46.184  41.559  1.00  0.00     0.281 C 
HETATM   19  N   UNL     1      23.870  44.969  42.470  1.00  0.00    -0.070 N 
HETATM   20  C   UNL     1      25.220  44.497  43.006  1.00  0.00     0.239 C 
HETATM   21  H   UNL     1      23.331  45.294  43.281  1.00  0.00     0.279 HD
HETATM   22  C   UNL     1      23.064  43.873  41.837  1.00  0.00     0.270 C 
HETATM   23  C   UNL     1      26.186  44.088  41.879  1.00  0.00     0.068 C 
HETATM   24  H   UNL     1      27.507  47.582  37.467  1.00  0.00     0.162 HD
ENDBRANCH   5   7
BRANCH   1  25
HETATM   25  O   UNL     1      29.378  50.989  40.113  1.00  0.00    -0.349 OA
BRANCH  25  26
HETATM   26  C   UNL     1      28.329  51.120  41.077  1.00  0.00     0.171 C 
HETATM   27  C   UNL     1      28.108  52.600  41.333  1.00  0.00     0.034 C 
ENDBRANCH  25  26
ENDBRANCH   1  25
BRANCH   2  28
HETATM   28  O   UNL     1      31.823  50.434  41.101  1.00  0.00    -0.272 OA
BRANCH  28  29
HETATM   29  C   UNL     1      31.966  50.179  42.450  1.00  0.00     0.298 C 
HETATM   30  O   UNL     1      31.224  49.541  43.185  1.00  0.00    -0.259 OA
BRANCH  29  31
HETATM   31  C   UNL     1      33.192  50.848  42.943  1.00  0.00     0.040 A 
HETATM   32  C   UNL     1      34.371  50.715  42.201  1.00  0.00     0.019 A 
HETATM   33  C   UNL     1      35.529  51.385  42.604  1.00  0.00     0.020 A 
HETATM   34  C   UNL     1      35.496  52.196  43.739  1.00  0.00     0.011 A 
HETATM   35 BR   UNL     1      37.054  53.127  44.268  1.00  0.00    -0.051 Br
HETATM   36  C   UNL     1      34.321  52.339  44.479  1.00  0.00     0.020 A 
HETATM   37  C   UNL     1      33.165  51.662  44.083  1.00  0.00     0.019 A 
ENDBRANCH  29  31
ENDBRANCH  28  29
ENDBRANCH   2  28
TORSDOF 6
ENDMDL
MODEL 5
REMARK VINA RESULT:      -8.0     15.093     17.378
REMARK  6 active torsions:
REMARK  status: ('A' for Active; 'I' for Inactive)
REMARK    1  A    between atoms: C_2  and  O_3 
REMARK    2  A    between atoms: O_3  and  C_4 
REMARK    3  A    between atoms: C_5  and  O_6 
REMARK    4  A    between atoms: O_6  and  C_7 
REMARK    5  A    between atoms: C_7  and  C_8 
REMARK    6  A    between atoms: C_18  and  C_19 
ROOT
HETATM    1  C   UNL     1      33.245  51.348  41.398  1.00  0.00     0.103 A 
HETATM    2  C   UNL     1      33.170  51.877  40.108  1.00  0.00     0.112 A 
HETATM    3  C   UNL     1      34.320  52.170  39.380  1.00  0.00     0.041 A 
HETATM    4  C   UNL     1      35.565  51.816  39.901  1.00  0.00     0.014 A 
HETATM    5  C   UNL     1      35.670  51.165  41.148  1.00  0.00    -0.013 A 
HETATM    6  C   UNL     1      34.494  50.982  41.906  1.00  0.00     0.050 A 
ENDROOT
BRANCH   5   7
HETATM    7  C   UNL     1      37.030  50.621  41.589  1.00  0.00     0.219 C 
HETATM    8  N   UNL     1      38.163  51.330  41.042  1.00  0.00    -0.332 N 
HETATM    9  C   UNL     1      38.610  52.523  41.555  1.00  0.00     0.256 C 
HETATM   10  H   UNL     1      38.436  51.138  40.090  1.00  0.00     0.165 HD
HETATM   11  O   UNL     1      39.342  53.269  40.915  1.00  0.00    -0.267 OA
HETATM   12  C   UNL     1      38.130  52.840  42.889  1.00  0.00     0.073 A 
HETATM   13  C   UNL     1      37.433  51.876  43.579  1.00  0.00     0.088 A 
HETATM   14  C   UNL     1      38.236  54.053  43.638  1.00  0.00    -0.023 A 
HETATM   15  S   UNL     1      36.962  52.384  45.129  1.00  0.00    -0.074 SA
HETATM   16  N   UNL     1      37.141  50.667  43.043  1.00  0.00    -0.358 N 
HETATM   17  C   UNL     1      37.626  53.931  44.873  1.00  0.00     0.018 A 
HETATM   18  C   UNL     1      37.497  55.021  45.878  1.00  0.00     0.281 C 
HETATM   19  N   UNL     1      38.438  56.181  45.564  1.00  0.00    -0.070 N 
HETATM   20  C   UNL     1      38.437  56.518  44.075  1.00  0.00     0.239 C 
HETATM   21  H   UNL     1      38.045  56.998  46.049  1.00  0.00     0.279 HD
HETATM   22  C   UNL     1      39.813  55.976  46.129  1.00  0.00     0.270 C 
HETATM   23  C   UNL     1      38.893  55.330  43.208  1.00  0.00     0.068 C 
HETATM   24  H   UNL     1      36.451  50.100  43.528  1.00  0.00     0.162 HD
ENDBRANCH   5   7
BRANCH   1  25
HETATM   25  O   UNL     1      32.066  51.144  42.064  1.00  0.00    -0.349 OA
BRANCH  25  26
HETATM   26  C   UNL     1      32.147  50.220  43.153  1.00  0.00     0.171 C 
HETATM   27  C   UNL     1      31.407  48.957  42.754  1.00  0.00     0.034 C 
ENDBRANCH  25  26
ENDBRANCH   1  25
BRANCH   2  28
HETATM   28  O   UNL     1      31.912  52.132  39.561  1.00  0.00    -0.272 OA
BRANCH  28  29
HETATM   29  C   UNL     1      31.627  51.247  38.541  1.00  0.00     0.298 C 
HETATM   30  O   UNL     1      32.048  51.252  37.392  1.00  0.00    -0.259 OA
BRANCH  29  31
HETATM   31  C   UNL     1      30.657  50.240  39.029  1.00  0.00     0.040 A 
HETATM   32  C   UNL     1      30.973  48.884  38.890  1.00  0.00     0.019 A 
HETATM   33  C   UNL     1      30.108  47.910  39.398  1.00  0.00     0.020 A 
HETATM   34  C   UNL     1      28.941  48.300  40.055  1.00  0.00     0.011 A 
HETATM   35 BR   UNL     1      27.787  46.984  40.769  1.00  0.00    -0.051 Br
HETATM   36  C   UNL     1      28.625  49.651  40.204  1.00  0.00     0.020 A 
HETATM   37  C   UNL     1      29.482  50.626  39.689  1.00  0.00     0.019 A 
ENDBRANCH  29  31
ENDBRANCH  28  29
ENDBRANCH   2  28
TORSDOF 6
ENDMDL
MODEL 6
REMARK VINA RESULT:      -8.0      3.255      5.395
REMARK  6 active torsions:
REMARK  status: ('A' for Active; 'I' for Inactive)
REMARK    1  A    between atoms: C_2  and  O_3 
REMARK    2  A    between atoms: O_3  and  C_4 
REMARK    3  A    between atoms: C_5  and  O_6 
REMARK    4  A    between atoms: O_6  and  C_7 
REMARK    5  A    between atoms: C_7  and  C_8 
REMARK    6  A    between atoms: C_18  and  C_19 
ROOT
HETATM    1  C   UNL     1      26.532  43.474  49.955  1.00  0.00     0.103 A 
HETATM    2  C   UNL     1      26.869  44.189  51.104  1.00  0.00     0.112 A 
HETATM    3  C   UNL     1      25.945  45.014  51.740  1.00  0.00     0.041 A 
HETATM    4  C   UNL     1      24.625  45.032  51.288  1.00  0.00     0.014 A 
HETATM    5  C   UNL     1      24.219  44.224  50.205  1.00  0.00    -0.013 A 
HETATM    6  C   UNL     1      25.204  43.484  49.519  1.00  0.00     0.050 A 
ENDROOT
BRANCH   5   7
HETATM    7  C   UNL     1      22.730  44.125  49.871  1.00  0.00     0.219 C 
HETATM    8  N   UNL     1      22.235  45.185  49.023  1.00  0.00    -0.332 N 
HETATM    9  C   UNL     1      22.416  45.192  47.661  1.00  0.00     0.256 C 
HETATM   10  H   UNL     1      22.045  46.084  49.439  1.00  0.00     0.165 HD
HETATM   11  O   UNL     1      22.291  46.214  46.997  1.00  0.00    -0.267 OA
HETATM   12  C   UNL     1      22.790  43.913  47.082  1.00  0.00     0.073 A 
HETATM   13  C   UNL     1      22.764  42.798  47.886  1.00  0.00     0.088 A 
HETATM   14  C   UNL     1      23.233  43.600  45.759  1.00  0.00    -0.023 A 
HETATM   15  S   UNL     1      23.200  41.379  47.063  1.00  0.00    -0.074 SA
HETATM   16  N   UNL     1      22.449  42.859  49.202  1.00  0.00    -0.358 N 
HETATM   17  C   UNL     1      23.499  42.248  45.629  1.00  0.00     0.018 A 
HETATM   18  C   UNL     1      24.035  41.593  44.406  1.00  0.00     0.281 C 
HETATM   19  N   UNL     1      23.906  42.501  43.186  1.00  0.00    -0.070 N 
HETATM   20  C   UNL     1      24.302  43.940  43.512  1.00  0.00     0.239 C 
HETATM   21  H   UNL     1      24.595  42.156  42.506  1.00  0.00     0.279 HD
HETATM   22  C   UNL     1      22.564  42.387  42.523  1.00  0.00     0.270 C 
HETATM   23  C   UNL     1      23.420  44.552  44.616  1.00  0.00     0.068 C 
HETATM   24  H   UNL     1      22.655  42.040  49.766  1.00  0.00     0.162 HD
ENDBRANCH   5   7
BRANCH   1  25
HETATM   25  O   UNL     1      27.519  42.732  49.363  1.00  0.00    -0.349 OA
BRANCH  25  26
HETATM   26  C   UNL     1      27.167  41.370  49.101  1.00  0.00     0.171 C 
HETATM   27  C   UNL     1      27.506  41.067  47.653  1.00  0.00     0.034 C 
ENDBRANCH  25  26
ENDBRANCH   1  25
BRANCH   2  28
HETATM   28  O   UNL     1      28.169  44.082  51.603  1.00  0.00    -0.272 OA
BRANCH  28  29
HETATM   29  C   UNL     1      28.229  43.167  52.634  1.00  0.00     0.298 C 
HETATM   30  O   UNL     1      27.834  42.009  52.646  1.00  0.00    -0.259 OA
BRANCH  29  31
HETATM   31  C   UNL     1      28.842  43.811  53.818  1.00  0.00     0.040 A 
HETATM   32  C   UNL     1      28.202  44.920  54.383  1.00  0.00     0.019 A 
HETATM   33  C   UNL     1      28.720  45.511  55.539  1.00  0.00     0.020 A 
HETATM   34  C   UNL     1      29.866  44.979  56.131  1.00  0.00     0.011 A 
HETATM   35 BR   UNL     1      30.549  45.760  57.711  1.00  0.00    -0.051 Br
HETATM   36  C   UNL     1      30.503  43.869  55.577  1.00  0.00     0.020 A 
HETATM   37  C   UNL     1      29.994  43.282  54.417  1.00  0.00     0.019 A 
ENDBRANCH  29  31
ENDBRANCH  28  29
ENDBRANCH   2  28
TORSDOF 6
ENDMDL
MODEL 7
REMARK VINA RESULT:      -8.0      4.490      6.814
REMARK  6 active torsions:
REMARK  status: ('A' for Active; 'I' for Inactive)
REMARK    1  A    between atoms: C_2  and  O_3 
REMARK    2  A    between atoms: O_3  and  C_4 
REMARK    3  A    between atoms: C_5  and  O_6 
REMARK    4  A    between atoms: O_6  and  C_7 
REMARK    5  A    between atoms: C_7  and  C_8 
REMARK    6  A    between atoms: C_18  and  C_19 
ROOT
HETATM    1  C   UNL     1      26.494  42.273  50.848  1.00  0.00     0.103 A 
HETATM    2  C   UNL     1      26.870  43.613  50.751  1.00  0.00     0.112 A 
HETATM    3  C   UNL     1      26.206  44.490  49.898  1.00  0.00     0.041 A 
HETATM    4  C   UNL     1      25.070  44.049  49.218  1.00  0.00     0.014 A 
HETATM    5  C   UNL     1      24.587  42.734  49.390  1.00  0.00    -0.013 A 
HETATM    6  C   UNL     1      25.346  41.843  50.177  1.00  0.00     0.050 A 
ENDROOT
BRANCH   5   7
HETATM    7  C   UNL     1      23.236  42.355  48.783  1.00  0.00     0.219 C 
HETATM    8  N   UNL     1      22.829  43.177  47.667  1.00  0.00    -0.332 N 
HETATM    9  C   UNL     1      23.314  42.993  46.395  1.00  0.00     0.256 C 
HETATM   10  H   UNL     1      22.447  44.090  47.857  1.00  0.00     0.165 HD
HETATM   11  O   UNL     1      23.228  43.864  45.537  1.00  0.00    -0.267 OA
HETATM   12  C   UNL     1      23.956  41.711  46.158  1.00  0.00     0.073 A 
HETATM   13  C   UNL     1      23.875  40.749  47.137  1.00  0.00     0.088 A 
HETATM   14  C   UNL     1      24.722  41.262  45.038  1.00  0.00    -0.023 A 
HETATM   15  S   UNL     1      24.648  39.301  46.705  1.00  0.00    -0.074 SA
HETATM   16  N   UNL     1      23.263  40.970  48.325  1.00  0.00    -0.358 N 
HETATM   17  C   UNL     1      25.164  39.964  45.224  1.00  0.00     0.018 A 
HETATM   18  C   UNL     1      26.037  39.212  44.283  1.00  0.00     0.281 C 
HETATM   19  N   UNL     1      26.087  39.882  42.913  1.00  0.00    -0.070 N 
HETATM   20  C   UNL     1      26.229  41.398  43.034  1.00  0.00     0.239 C 
HETATM   21  H   UNL     1      26.948  39.542  42.466  1.00  0.00     0.279 HD
HETATM   22  C   UNL     1      24.954  39.459  42.023  1.00  0.00     0.270 C 
HETATM   23  C   UNL     1      25.054  42.036  43.797  1.00  0.00     0.068 C 
HETATM   24  H   UNL     1      23.428  40.293  49.064  1.00  0.00     0.162 HD
ENDBRANCH   5   7
BRANCH   1  25
HETATM   25  O   UNL     1      27.238  41.468  51.670  1.00  0.00    -0.349 OA
BRANCH  25  26
HETATM   26  C   UNL     1      28.178  40.628  50.992  1.00  0.00     0.171 C 
HETATM   27  C   UNL     1      29.075  39.990  52.037  1.00  0.00     0.034 C 
ENDBRANCH  25  26
ENDBRANCH   1  25
BRANCH   2  28
HETATM   28  O   UNL     1      27.948  44.063  51.515  1.00  0.00    -0.272 OA
BRANCH  28  29
HETATM   29  C   UNL     1      27.524  44.524  52.746  1.00  0.00     0.298 C 
HETATM   30  O   UNL     1      26.462  45.061  53.030  1.00  0.00    -0.259 OA
BRANCH  29  31
HETATM   31  C   UNL     1      28.598  44.306  53.741  1.00  0.00     0.040 A 
HETATM   32  C   UNL     1      28.654  45.145  54.860  1.00  0.00     0.019 A 
HETATM   33  C   UNL     1      29.616  44.926  55.850  1.00  0.00     0.020 A 
HETATM   34  C   UNL     1      30.505  43.858  55.722  1.00  0.00     0.011 A 
HETATM   35 BR   UNL     1      31.787  43.543  57.076  1.00  0.00    -0.051 Br
HETATM   36  C   UNL     1      30.448  43.013  54.613  1.00  0.00     0.020 A 
HETATM   37  C   UNL     1      29.495  43.236  53.618  1.00  0.00     0.019 A 
ENDBRANCH  29  31
ENDBRANCH  28  29
ENDBRANCH   2  28
TORSDOF 6
ENDMDL
MODEL 8
REMARK VINA RESULT:      -7.9     13.321     14.915
REMARK  6 active torsions:
REMARK  status: ('A' for Active; 'I' for Inactive)
REMARK    1  A    between atoms: C_2  and  O_3 
REMARK    2  A    between atoms: O_3  and  C_4 
REMARK    3  A    between atoms: C_5  and  O_6 
REMARK    4  A    between atoms: O_6  and  C_7 
REMARK    5  A    between atoms: C_7  and  C_8 
REMARK    6  A    between atoms: C_18  and  C_19 
ROOT
HETATM    1  C   UNL     1      31.307  51.130  41.463  1.00  0.00     0.103 A 
HETATM    2  C   UNL     1      31.532  52.241  40.649  1.00  0.00     0.112 A 
HETATM    3  C   UNL     1      30.502  52.813  39.907  1.00  0.00     0.041 A 
HETATM    4  C   UNL     1      29.200  52.341  40.074  1.00  0.00     0.014 A 
HETATM    5  C   UNL     1      28.917  51.300  40.984  1.00  0.00    -0.013 A 
HETATM    6  C   UNL     1      29.998  50.674  41.637  1.00  0.00     0.050 A 
ENDROOT
BRANCH   5   7
HETATM    7  C   UNL     1      27.458  50.950  41.279  1.00  0.00     0.219 C 
HETATM    8  N   UNL     1      26.584  51.011  40.130  1.00  0.00    -0.332 N 
HETATM    9  C   UNL     1      26.510  50.004  39.199  1.00  0.00     0.256 C 
HETATM   10  H   UNL     1      26.265  51.914  39.817  1.00  0.00     0.165 HD
HETATM   11  O   UNL     1      26.031  50.185  38.086  1.00  0.00    -0.267 OA
HETATM   12  C   UNL     1      27.065  48.729  39.623  1.00  0.00     0.073 A 
HETATM   13  C   UNL     1      27.447  48.587  40.936  1.00  0.00     0.088 A 
HETATM   14  C   UNL     1      27.324  47.545  38.866  1.00  0.00    -0.023 A 
HETATM   15  S   UNL     1      28.050  47.039  41.285  1.00  0.00    -0.074 SA
HETATM   16  N   UNL     1      27.368  49.602  41.830  1.00  0.00    -0.358 N 
HETATM   17  C   UNL     1      27.873  46.555  39.662  1.00  0.00     0.018 A 
HETATM   18  C   UNL     1      28.320  45.219  39.183  1.00  0.00     0.281 C 
HETATM   19  N   UNL     1      27.765  44.910  37.796  1.00  0.00    -0.070 N 
HETATM   20  C   UNL     1      27.862  46.120  36.870  1.00  0.00     0.239 C 
HETATM   21  H   UNL     1      28.382  44.189  37.402  1.00  0.00     0.279 HD
HETATM   22  C   UNL     1      26.391  44.307  37.848  1.00  0.00     0.270 C 
HETATM   23  C   UNL     1      27.073  47.329  37.404  1.00  0.00     0.068 C 
HETATM   24  H   UNL     1      27.859  49.482  42.711  1.00  0.00     0.162 HD
ENDBRANCH   5   7
BRANCH   1  25
HETATM   25  O   UNL     1      32.389  50.598  42.114  1.00  0.00    -0.349 OA
BRANCH  25  26
HETATM   26  C   UNL     1      32.895  49.389  41.540  1.00  0.00     0.171 C 
HETATM   27  C   UNL     1      34.402  49.522  41.417  1.00  0.00     0.034 C 
ENDBRANCH  25  26
ENDBRANCH   1  25
BRANCH   2  28
HETATM   28  O   UNL     1      32.824  52.765  40.571  1.00  0.00    -0.272 OA
BRANCH  28  29
HETATM   29  C   UNL     1      33.416  52.443  39.367  1.00  0.00     0.298 C 
HETATM   30  O   UNL     1      32.969  51.752  38.462  1.00  0.00    -0.259 OA
BRANCH  29  31
HETATM   31  C   UNL     1      34.765  53.050  39.313  1.00  0.00     0.040 A 
HETATM   32  C   UNL     1      35.881  52.205  39.342  1.00  0.00     0.019 A 
HETATM   33  C   UNL     1      37.166  52.742  39.229  1.00  0.00     0.020 A 
HETATM   34  C   UNL     1      37.327  54.119  39.070  1.00  0.00     0.011 A 
HETATM   35 BR   UNL     1      39.063  54.842  38.886  1.00  0.00    -0.051 Br
HETATM   36  C   UNL     1      36.218  54.965  39.032  1.00  0.00     0.020 A 
HETATM   37  C   UNL     1      34.933  54.433  39.155  1.00  0.00     0.019 A 
ENDBRANCH  29  31
ENDBRANCH  28  29
ENDBRANCH   2  28
TORSDOF 6
ENDMDL
MODEL 9
REMARK VINA RESULT:      -7.9     13.397     14.607
REMARK  6 active torsions:
REMARK  status: ('A' for Active; 'I' for Inactive)
REMARK    1  A    between atoms: C_2  and  O_3 
REMARK    2  A    between atoms: O_3  and  C_4 
REMARK    3  A    between atoms: C_5  and  O_6 
REMARK    4  A    between atoms: O_6  and  C_7 
REMARK    5  A    between atoms: C_7  and  C_8 
REMARK    6  A    between atoms: C_18  and  C_19 
ROOT
HETATM    1  C   UNL     1      33.021  50.704  41.244  1.00  0.00     0.103 A 
HETATM    2  C   UNL     1      33.976  51.250  40.385  1.00  0.00     0.112 A 
HETATM    3  C   UNL     1      33.680  52.345  39.578  1.00  0.00     0.041 A 
HETATM    4  C   UNL     1      32.447  52.982  39.720  1.00  0.00     0.014 A 
HETATM    5  C   UNL     1      31.504  52.533  40.669  1.00  0.00    -0.013 A 
HETATM    6  C   UNL     1      31.795  51.357  41.392  1.00  0.00     0.050 A 
ENDROOT
BRANCH   5   7
HETATM    7  C   UNL     1      30.253  53.374  40.927  1.00  0.00     0.219 C 
HETATM    8  N   UNL     1      29.564  53.802  39.732  1.00  0.00    -0.332 N 
HETATM    9  C   UNL     1      28.718  52.981  39.027  1.00  0.00     0.256 C 
HETATM   10  H   UNL     1      29.938  54.583  39.216  1.00  0.00     0.165 HD
HETATM   11  O   UNL     1      28.396  53.222  37.870  1.00  0.00    -0.267 OA
HETATM   12  C   UNL     1      28.263  51.802  39.745  1.00  0.00     0.073 A 
HETATM   13  C   UNL     1      28.563  51.694  41.083  1.00  0.00     0.088 A 
HETATM   14  C   UNL     1      27.547  50.660  39.271  1.00  0.00    -0.023 A 
HETATM   15  S   UNL     1      27.944  50.280  41.787  1.00  0.00    -0.074 SA
HETATM   16  N   UNL     1      29.302  52.621  41.738  1.00  0.00    -0.358 N 
HETATM   17  C   UNL     1      27.323  49.753  40.292  1.00  0.00     0.018 A 
HETATM   18  C   UNL     1      26.660  48.430  40.134  1.00  0.00     0.281 C 
HETATM   19  N   UNL     1      25.915  48.335  38.806  1.00  0.00    -0.070 N 
HETATM   20  C   UNL     1      26.738  48.913  37.657  1.00  0.00     0.239 C 
HETATM   21  H   UNL     1      25.811  47.331  38.614  1.00  0.00     0.279 HD
HETATM   22  C   UNL     1      24.525  48.896  38.884  1.00  0.00     0.270 C 
HETATM   23  C   UNL     1      27.075  50.401  37.871  1.00  0.00     0.068 C 
HETATM   24  H   UNL     1      29.653  52.368  42.657  1.00  0.00     0.162 HD
ENDBRANCH   5   7
BRANCH   1  25
HETATM   25  O   UNL     1      33.380  49.592  41.959  1.00  0.00    -0.349 OA
BRANCH  25  26
HETATM   26  C   UNL     1      32.333  48.634  42.137  1.00  0.00     0.171 C 
HETATM   27  C   UNL     1      32.477  47.575  41.060  1.00  0.00     0.034 C 
ENDBRANCH  25  26
ENDBRANCH   1  25
BRANCH   2  28
HETATM   28  O   UNL     1      35.241  50.662  40.330  1.00  0.00    -0.272 OA
BRANCH  28  29
HETATM   29  C   UNL     1      36.216  51.608  40.087  1.00  0.00     0.298 C 
HETATM   30  O   UNL     1      36.792  51.853  39.036  1.00  0.00    -0.259 OA
BRANCH  29  31
HETATM   31  C   UNL     1      36.528  52.317  41.349  1.00  0.00     0.040 A 
HETATM   32  C   UNL     1      36.347  51.639  42.560  1.00  0.00     0.019 A 
HETATM   33  C   UNL     1      36.692  52.257  43.765  1.00  0.00     0.020 A 
HETATM   34  C   UNL     1      37.232  53.543  43.750  1.00  0.00     0.011 A 
HETATM   35 BR   UNL     1      37.728  54.368  45.377  1.00  0.00    -0.051 Br
HETATM   36  C   UNL     1      37.423  54.221  42.545  1.00  0.00     0.020 A 
HETATM   37  C   UNL     1      37.070  53.610  41.340  1.00  0.00     0.019 A 
ENDBRANCH  29  31
ENDBRANCH  28  29
ENDBRANCH   2  28
TORSDOF 6
ENDMDL
MODEL 10
REMARK VINA RESULT:      -7.8     19.405     21.696
REMARK  6 active torsions:
REMARK  status: ('A' for Active; 'I' for Inactive)
REMARK    1  A    between atoms: C_2  and  O_3 
REMARK    2  A    between atoms: O_3  and  C_4 
REMARK    3  A    between atoms: C_5  and  O_6 
REMARK    4  A    between atoms: O_6  and  C_7 
REMARK    5  A    between atoms: C_7  and  C_8 
REMARK    6  A    between atoms: C_18  and  C_19 
ROOT
HETATM    1  C   UNL     1      40.379  43.711  65.470  1.00  0.00     0.103 A 
HETATM    2  C   UNL     1      41.223  44.082  64.423  1.00  0.00     0.112 A 
HETATM    3  C   UNL     1      40.756  44.165  63.114  1.00  0.00     0.041 A 
HETATM    4  C   UNL     1      39.394  43.990  62.865  1.00  0.00     0.014 A 
HETATM    5  C   UNL     1      38.491  43.737  63.919  1.00  0.00    -0.013 A 
HETATM    6  C   UNL     1      39.015  43.554  65.216  1.00  0.00     0.050 A 
ENDROOT
BRANCH   5   7
HETATM    7  C   UNL     1      36.990  43.749  63.628  1.00  0.00     0.219 C 
HETATM    8  N   UNL     1      36.181  43.090  64.628  1.00  0.00    -0.332 N 
HETATM    9  C   UNL     1      35.833  43.688  65.814  1.00  0.00     0.256 C 
HETATM   10  H   UNL     1      36.138  42.083  64.621  1.00  0.00     0.165 HD
HETATM   11  O   UNL     1      35.437  43.039  66.774  1.00  0.00    -0.267 OA
HETATM   12  C   UNL     1      35.996  45.132  65.848  1.00  0.00     0.073 A 
HETATM   13  C   UNL     1      36.308  45.783  64.677  1.00  0.00     0.088 A 
HETATM   14  C   UNL     1      35.913  46.038  66.950  1.00  0.00    -0.023 A 
HETATM   15  S   UNL     1      36.440  47.464  64.870  1.00  0.00    -0.074 SA
HETATM   16  N   UNL     1      36.513  45.123  63.512  1.00  0.00    -0.358 N 
HETATM   17  C   UNL     1      36.148  47.340  66.544  1.00  0.00     0.018 A 
HETATM   18  C   UNL     1      36.200  48.524  67.444  1.00  0.00     0.281 C 
HETATM   19  N   UNL     1      35.593  48.212  68.809  1.00  0.00    -0.070 N 
HETATM   20  C   UNL     1      36.042  46.846  69.324  1.00  0.00     0.239 C 
HETATM   21  H   UNL     1      35.983  48.910  69.455  1.00  0.00     0.279 HD
HETATM   22  C   UNL     1      34.104  48.398  68.834  1.00  0.00     0.270 C 
HETATM   23  C   UNL     1      35.626  45.701  68.382  1.00  0.00     0.068 C 
HETATM   24  H   UNL     1      36.940  45.646  62.753  1.00  0.00     0.162 HD
ENDBRANCH   5   7
BRANCH   1  25
HETATM   25  O   UNL     1      40.936  43.600  66.717  1.00  0.00    -0.349 OA
BRANCH  25  26
HETATM   26  C   UNL     1      39.991  43.522  67.789  1.00  0.00     0.171 C 
HETATM   27  C   UNL     1      39.612  44.937  68.185  1.00  0.00     0.034 C 
ENDBRANCH  25  26
ENDBRANCH   1  25
BRANCH   2  28
HETATM   28  O   UNL     1      42.563  44.351  64.705  1.00  0.00    -0.272 OA
BRANCH  28  29
HETATM   29  C   UNL     1      42.899  45.637  64.330  1.00  0.00     0.298 C 
HETATM   30  O   UNL     1      43.641  45.994  63.425  1.00  0.00    -0.259 OA
BRANCH  29  31
HETATM   31  C   UNL     1      42.234  46.597  65.240  1.00  0.00     0.040 A 
HETATM   32  C   UNL     1      41.126  47.309  64.768  1.00  0.00     0.019 A 
HETATM   33  C   UNL     1      40.438  48.176  65.621  1.00  0.00     0.020 A 
HETATM   34  C   UNL     1      40.852  48.312  66.946  1.00  0.00     0.011 A 
HETATM   35 BR   UNL     1      39.903  49.460  68.109  1.00  0.00    -0.051 Br
HETATM   36  C   UNL     1      41.951  47.598  67.425  1.00  0.00     0.020 A 
HETATM   37  C   UNL     1      42.648  46.739  66.572  1.00  0.00     0.019 A 
ENDBRANCH  29  31
ENDBRANCH  28  29
ENDBRANCH   2  28
TORSDOF 6
ENDMDL
