MODEL 1
REMARK VINA RESULT:      -8.3      0.000      0.000
REMARK  2 active torsions:
REMARK  status: ('A' for Active; 'I' for Inactive)
REMARK    1  A    between atoms: C_10  and  C_11 
REMARK    2  A    between atoms: C_12  and  O_13 
ROOT
HETATM    1  C   UNL     1      38.468  53.197  46.865  1.00  0.00     0.076 C 
HETATM    2  C   UNL     1      38.125  53.185  45.429  1.00  0.00     0.050 A 
HETATM    3  O   UNL     1      36.929  52.628  45.091  1.00  0.00    -0.312 OA
HETATM    4  C   UNL     1      36.808  52.695  43.724  1.00  0.00     0.121 A 
HETATM    5  C   UNL     1      35.679  52.176  43.024  1.00  0.00     0.163 A 
HETATM    6  N   UNL     1      35.533  52.108  41.722  1.00  0.00    -0.221 NA
HETATM    7  C   UNL     1      34.307  51.490  41.495  1.00  0.00     0.149 A 
HETATM    8  C   UNL     1      33.694  51.213  42.711  1.00  0.00     0.046 A 
HETATM    9  C   UNL     1      32.406  50.605  43.143  1.00  0.00     0.070 C 
HETATM   10  C   UNL     1      31.558  49.886  42.084  1.00  0.00     0.045 C 
HETATM   11  C   UNL     1      32.330  49.341  40.871  1.00  0.00     0.132 C 
HETATM   12  N   UNL     1      32.836  50.316  39.933  1.00  0.00    -0.355 N 
HETATM   13  C   UNL     1      33.832  51.238  40.133  1.00  0.00     0.272 C 
HETATM   14  O   UNL     1      34.281  51.821  39.147  1.00  0.00    -0.266 OA
HETATM   15  N   UNL     1      34.588  51.661  43.659  1.00  0.00    -0.340 N 
HETATM   16  H   UNL     1      34.481  51.620  44.663  1.00  0.00     0.167 HD
HETATM   17  C   UNL     1      37.935  53.311  43.209  1.00  0.00     0.043 A 
HETATM   18  C   UNL     1      38.777  53.627  44.301  1.00  0.00     0.035 A 
HETATM   19  H   UNL     1      32.632  50.186  38.951  1.00  0.00     0.162 HD
ENDROOT
BRANCH  10  20
HETATM   20  C   UNL     1      30.267  50.647  41.766  1.00  0.00    -0.019 A 
HETATM   21  C   UNL     1      29.019  49.979  41.747  1.00  0.00     0.074 A 
HETATM   22  C   UNL     1      27.849  50.684  41.440  1.00  0.00     0.037 A 
HETATM   23  C   UNL     1      27.894  52.054  41.181  1.00  0.00     0.003 A 
HETATM   24  C   UNL     1      29.105  52.730  41.241  1.00  0.00     0.001 A 
HETATM   25  C   UNL     1      30.279  52.035  41.539  1.00  0.00     0.010 A 
BRANCH  21  26
HETATM   26  O   UNL     1      29.043  48.638  42.039  1.00  0.00    -0.355 OA
HETATM   27  C   UNL     1      28.663  47.737  41.006  1.00  0.00     0.210 C 
ENDBRANCH  21  26
ENDBRANCH  10  20
TORSDOF 2
ENDMDL
MODEL 2
REMARK VINA RESULT:      -8.2     12.418     14.064
REMARK  2 active torsions:
REMARK  status: ('A' for Active; 'I' for Inactive)
REMARK    1  A    between atoms: C_10  and  C_11 
REMARK    2  A    between atoms: C_12  and  O_13 
ROOT
HETATM    1  C   UNL     1      31.802  43.715  57.452  1.00  0.00     0.076 C 
HETATM    2  C   UNL     1      30.667  44.571  57.055  1.00  0.00     0.050 A 
HETATM    3  O   UNL     1      30.115  44.326  55.833  1.00  0.00    -0.312 OA
HETATM    4  C   UNL     1      29.100  45.232  55.645  1.00  0.00     0.121 A 
HETATM    5  C   UNL     1      28.320  45.278  54.451  1.00  0.00     0.163 A 
HETATM    6  N   UNL     1      27.406  46.171  54.151  1.00  0.00    -0.221 NA
HETATM    7  C   UNL     1      26.946  45.849  52.877  1.00  0.00     0.149 A 
HETATM    8  C   UNL     1      27.592  44.705  52.425  1.00  0.00     0.046 A 
HETATM    9  C   UNL     1      27.537  43.863  51.198  1.00  0.00     0.070 C 
HETATM   10  C   UNL     1      26.768  44.406  49.986  1.00  0.00     0.045 C 
HETATM   11  C   UNL     1      26.643  45.937  49.908  1.00  0.00     0.132 C 
HETATM   12  N   UNL     1      25.758  46.565  50.862  1.00  0.00    -0.355 N 
HETATM   13  C   UNL     1      25.919  46.662  52.221  1.00  0.00     0.272 C 
HETATM   14  O   UNL     1      25.181  47.432  52.833  1.00  0.00    -0.266 OA
HETATM   15  N   UNL     1      28.454  44.368  53.446  1.00  0.00    -0.340 N 
HETATM   16  H   UNL     1      29.094  43.586  53.467  1.00  0.00     0.167 HD
HETATM   17  C   UNL     1      29.011  46.039  56.765  1.00  0.00     0.043 A 
HETATM   18  C   UNL     1      30.012  45.614  57.669  1.00  0.00     0.035 A 
HETATM   19  H   UNL     1      25.062  47.211  50.517  1.00  0.00     0.162 HD
ENDROOT
BRANCH  10  20
HETATM   20  C   UNL     1      25.482  43.617  49.718  1.00  0.00    -0.019 A 
HETATM   21  C   UNL     1      25.503  42.451  48.917  1.00  0.00     0.074 A 
HETATM   22  C   UNL     1      24.318  41.748  48.668  1.00  0.00     0.037 A 
HETATM   23  C   UNL     1      23.113  42.168  49.231  1.00  0.00     0.003 A 
HETATM   24  C   UNL     1      23.087  43.284  50.055  1.00  0.00     0.001 A 
HETATM   25  C   UNL     1      24.262  43.996  50.304  1.00  0.00     0.010 A 
BRANCH  21  26
HETATM   26  O   UNL     1      26.726  42.077  48.418  1.00  0.00    -0.355 OA
HETATM   27  C   UNL     1      27.304  40.882  48.930  1.00  0.00     0.210 C 
ENDBRANCH  21  26
ENDBRANCH  10  20
TORSDOF 2
ENDMDL
MODEL 3
REMARK VINA RESULT:      -8.1     12.956     17.210
REMARK  2 active torsions:
REMARK  status: ('A' for Active; 'I' for Inactive)
REMARK    1  A    between atoms: C_10  and  C_11 
REMARK    2  A    between atoms: C_12  and  O_13 
ROOT
HETATM    1  C   UNL     1      13.612  54.890  47.237  1.00  0.00     0.076 C 
HETATM    2  C   UNL     1      14.184  54.076  48.327  1.00  0.00     0.050 A 
HETATM    3  O   UNL     1      15.282  53.331  48.023  1.00  0.00    -0.312 OA
HETATM    4  C   UNL     1      15.644  52.638  49.152  1.00  0.00     0.121 A 
HETATM    5  C   UNL     1      16.747  51.734  49.182  1.00  0.00     0.163 A 
HETATM    6  N   UNL     1      17.095  50.961  50.184  1.00  0.00    -0.221 NA
HETATM    7  C   UNL     1      18.191  50.223  49.749  1.00  0.00     0.149 A 
HETATM    8  C   UNL     1      18.520  50.600  48.452  1.00  0.00     0.046 A 
HETATM    9  C   UNL     1      19.568  50.221  47.464  1.00  0.00     0.070 C 
HETATM   10  C   UNL     1      20.419  48.978  47.758  1.00  0.00     0.045 C 
HETATM   11  C   UNL     1      19.770  47.928  48.674  1.00  0.00     0.132 C 
HETATM   12  N   UNL     1      19.638  48.277  50.070  1.00  0.00    -0.355 N 
HETATM   13  C   UNL     1      18.830  49.237  50.623  1.00  0.00     0.272 C 
HETATM   14  O   UNL     1      18.682  49.228  51.845  1.00  0.00    -0.266 OA
HETATM   15  N   UNL     1      17.588  51.560  48.123  1.00  0.00    -0.340 N 
HETATM   16  H   UNL     1      17.513  52.060  47.249  1.00  0.00     0.167 HD
HETATM   17  C   UNL     1      14.769  52.965  50.173  1.00  0.00     0.043 A 
HETATM   18  C   UNL     1      13.835  53.888  49.646  1.00  0.00     0.035 A 
HETATM   19  H   UNL     1      19.975  47.621  50.762  1.00  0.00     0.162 HD
ENDROOT
BRANCH  10  20
HETATM   20  C   UNL     1      21.873  49.340  48.083  1.00  0.00    -0.019 A 
HETATM   21  C   UNL     1      22.858  48.332  48.209  1.00  0.00     0.074 A 
HETATM   22  C   UNL     1      24.179  48.677  48.521  1.00  0.00     0.037 A 
HETATM   23  C   UNL     1      24.546  50.013  48.678  1.00  0.00     0.003 A 
HETATM   24  C   UNL     1      23.598  51.014  48.513  1.00  0.00     0.001 A 
HETATM   25  C   UNL     1      22.276  50.681  48.209  1.00  0.00     0.010 A 
BRANCH  21  26
HETATM   26  O   UNL     1      22.436  47.041  48.013  1.00  0.00    -0.355 OA
HETATM   27  C   UNL     1      23.090  46.019  48.756  1.00  0.00     0.210 C 
ENDBRANCH  21  26
ENDBRANCH  10  20
TORSDOF 2
ENDMDL
MODEL 4
REMARK VINA RESULT:      -8.0     12.489     15.452
REMARK  2 active torsions:
REMARK  status: ('A' for Active; 'I' for Inactive)
REMARK    1  A    between atoms: C_10  and  C_11 
REMARK    2  A    between atoms: C_12  and  O_13 
ROOT
HETATM    1  C   UNL     1      19.432  44.137  47.023  1.00  0.00     0.076 C 
HETATM    2  C   UNL     1      20.546  45.083  47.237  1.00  0.00     0.050 A 
HETATM    3  O   UNL     1      21.363  44.835  48.297  1.00  0.00    -0.312 OA
HETATM    4  C   UNL     1      22.311  45.828  48.335  1.00  0.00     0.121 A 
HETATM    5  C   UNL     1      23.320  45.893  49.342  1.00  0.00     0.163 A 
HETATM    6  N   UNL     1      24.194  46.857  49.509  1.00  0.00    -0.221 NA
HETATM    7  C   UNL     1      24.940  46.521  50.634  1.00  0.00     0.149 A 
HETATM    8  C   UNL     1      24.509  45.297  51.129  1.00  0.00     0.046 A 
HETATM    9  C   UNL     1      24.897  44.404  52.256  1.00  0.00     0.070 C 
HETATM   10  C   UNL     1      25.855  44.961  53.318  1.00  0.00     0.045 C 
HETATM   11  C   UNL     1      25.858  46.490  53.475  1.00  0.00     0.132 C 
HETATM   12  N   UNL     1      26.461  47.251  52.405  1.00  0.00    -0.355 N 
HETATM   13  C   UNL     1      26.007  47.399  51.119  1.00  0.00     0.272 C 
HETATM   14  O   UNL     1      26.528  48.270  50.423  1.00  0.00    -0.266 OA
HETATM   15  N   UNL     1      23.483  44.925  50.287  1.00  0.00    -0.340 N 
HETATM   16  H   UNL     1      22.924  44.085  50.344  1.00  0.00     0.167 HD
HETATM   17  C   UNL     1      22.089  46.695  47.279  1.00  0.00     0.043 A 
HETATM   18  C   UNL     1      20.959  46.216  46.574  1.00  0.00     0.035 A 
HETATM   19  H   UNL     1      27.155  47.947  52.644  1.00  0.00     0.162 HD
ENDROOT
BRANCH  10  20
HETATM   20  C   UNL     1      27.233  44.293  53.258  1.00  0.00    -0.019 A 
HETATM   21  C   UNL     1      28.115  44.355  54.363  1.00  0.00     0.074 A 
HETATM   22  C   UNL     1      29.377  43.753  54.289  1.00  0.00     0.037 A 
HETATM   23  C   UNL     1      29.766  43.060  53.143  1.00  0.00     0.003 A 
HETATM   24  C   UNL     1      28.893  42.955  52.069  1.00  0.00     0.001 A 
HETATM   25  C   UNL     1      27.635  43.557  52.130  1.00  0.00     0.010 A 
BRANCH  21  26
HETATM   26  O   UNL     1      27.658  45.026  55.470  1.00  0.00    -0.355 OA
HETATM   27  C   UNL     1      28.552  45.938  56.098  1.00  0.00     0.210 C 
ENDBRANCH  21  26
ENDBRANCH  10  20
TORSDOF 2
ENDMDL
MODEL 5
REMARK VINA RESULT:      -7.9     11.528     14.035
REMARK  2 active torsions:
REMARK  status: ('A' for Active; 'I' for Inactive)
REMARK    1  A    between atoms: C_10  and  C_11 
REMARK    2  A    between atoms: C_12  and  O_13 
ROOT
HETATM    1  C   UNL     1      20.317  50.949  49.243  1.00  0.00     0.076 C 
HETATM    2  C   UNL     1      21.725  50.557  49.033  1.00  0.00     0.050 A 
HETATM    3  O   UNL     1      22.067  49.290  49.394  1.00  0.00    -0.312 OA
HETATM    4  C   UNL     1      23.408  49.131  49.141  1.00  0.00     0.121 A 
HETATM    5  C   UNL     1      24.108  47.922  49.428  1.00  0.00     0.163 A 
HETATM    6  N   UNL     1      25.401  47.723  49.313  1.00  0.00    -0.221 NA
HETATM    7  C   UNL     1      25.638  46.422  49.745  1.00  0.00     0.149 A 
HETATM    8  C   UNL     1      24.436  45.822  50.097  1.00  0.00     0.046 A 
HETATM    9  C   UNL     1      24.017  44.483  50.596  1.00  0.00     0.070 C 
HETATM   10  C   UNL     1      25.111  43.516  51.068  1.00  0.00     0.045 C 
HETATM   11  C   UNL     1      26.418  44.170  51.545  1.00  0.00     0.132 C 
HETATM   12  N   UNL     1      27.256  44.762  50.528  1.00  0.00    -0.355 N 
HETATM   13  C   UNL     1      26.996  45.872  49.764  1.00  0.00     0.272 C 
HETATM   14  O   UNL     1      27.925  46.356  49.120  1.00  0.00    -0.266 OA
HETATM   15  N   UNL     1      23.486  46.798  49.883  1.00  0.00    -0.340 N 
HETATM   16  H   UNL     1      22.491  46.721  50.038  1.00  0.00     0.167 HD
HETATM   17  C   UNL     1      23.901  50.308  48.605  1.00  0.00     0.043 A 
HETATM   18  C   UNL     1      22.823  51.220  48.533  1.00  0.00     0.035 A 
HETATM   19  H   UNL     1      28.235  44.510  50.506  1.00  0.00     0.162 HD
ENDROOT
BRANCH  10  20
HETATM   20  C   UNL     1      25.269  42.320  50.123  1.00  0.00    -0.019 A 
HETATM   21  C   UNL     1      26.121  41.241  50.458  1.00  0.00     0.074 A 
HETATM   22  C   UNL     1      26.268  40.162  49.578  1.00  0.00     0.037 A 
HETATM   23  C   UNL     1      25.555  40.122  48.380  1.00  0.00     0.003 A 
HETATM   24  C   UNL     1      24.682  41.152  48.060  1.00  0.00     0.001 A 
HETATM   25  C   UNL     1      24.533  42.236  48.928  1.00  0.00     0.010 A 
BRANCH  21  26
HETATM   26  O   UNL     1      26.771  41.330  51.664  1.00  0.00    -0.355 OA
HETATM   27  C   UNL     1      28.142  40.953  51.699  1.00  0.00     0.210 C 
ENDBRANCH  21  26
ENDBRANCH  10  20
TORSDOF 2
ENDMDL
MODEL 6
REMARK VINA RESULT:      -7.9     12.670     15.409
REMARK  2 active torsions:
REMARK  status: ('A' for Active; 'I' for Inactive)
REMARK    1  A    between atoms: C_10  and  C_11 
REMARK    2  A    between atoms: C_12  and  O_13 
ROOT
HETATM    1  C   UNL     1      26.858  36.744  48.220  1.00  0.00     0.076 C 
HETATM    2  C   UNL     1      27.046  38.190  47.987  1.00  0.00     0.050 A 
HETATM    3  O   UNL     1      26.953  39.002  49.076  1.00  0.00    -0.312 OA
HETATM    4  C   UNL     1      27.135  40.295  48.650  1.00  0.00     0.121 A 
HETATM    5  C   UNL     1      27.076  41.414  49.533  1.00  0.00     0.163 A 
HETATM    6  N   UNL     1      27.136  42.680  49.194  1.00  0.00    -0.221 NA
HETATM    7  C   UNL     1      26.990  43.410  50.369  1.00  0.00     0.149 A 
HETATM    8  C   UNL     1      26.870  42.539  51.445  1.00  0.00     0.046 A 
HETATM    9  C   UNL     1      26.716  42.679  52.919  1.00  0.00     0.070 C 
HETATM   10  C   UNL     1      26.392  44.071  53.481  1.00  0.00     0.045 C 
HETATM   11  C   UNL     1      25.686  45.032  52.511  1.00  0.00     0.132 C 
HETATM   12  N   UNL     1      26.481  45.557  51.424  1.00  0.00    -0.355 N 
HETATM   13  C   UNL     1      26.994  44.874  50.351  1.00  0.00     0.272 C 
HETATM   14  O   UNL     1      27.443  45.533  49.414  1.00  0.00    -0.266 OA
HETATM   15  N   UNL     1      26.930  41.283  50.882  1.00  0.00    -0.340 N 
HETATM   16  H   UNL     1      26.870  40.397  51.365  1.00  0.00     0.167 HD
HETATM   17  C   UNL     1      27.357  40.286  47.284  1.00  0.00     0.043 A 
HETATM   18  C   UNL     1      27.303  38.937  46.860  1.00  0.00     0.035 A 
HETATM   19  H   UNL     1      26.486  46.557  51.274  1.00  0.00     0.162 HD
ENDROOT
BRANCH  10  20
HETATM   20  C   UNL     1      27.566  44.661  54.269  1.00  0.00    -0.019 A 
HETATM   21  C   UNL     1      27.484  45.960  54.825  1.00  0.00     0.074 A 
HETATM   22  C   UNL     1      28.571  46.492  55.530  1.00  0.00     0.037 A 
HETATM   23  C   UNL     1      29.730  45.740  55.720  1.00  0.00     0.003 A 
HETATM   24  C   UNL     1      29.806  44.448  55.219  1.00  0.00     0.001 A 
HETATM   25  C   UNL     1      28.731  43.910  54.508  1.00  0.00     0.010 A 
BRANCH  21  26
HETATM   26  O   UNL     1      26.305  46.634  54.625  1.00  0.00    -0.355 OA
HETATM   27  C   UNL     1      26.289  48.025  54.920  1.00  0.00     0.210 C 
ENDBRANCH  21  26
ENDBRANCH  10  20
TORSDOF 2
ENDMDL
MODEL 7
REMARK VINA RESULT:      -7.9     11.392     14.348
REMARK  2 active torsions:
REMARK  status: ('A' for Active; 'I' for Inactive)
REMARK    1  A    between atoms: C_10  and  C_11 
REMARK    2  A    between atoms: C_12  and  O_13 
ROOT
HETATM    1  C   UNL     1      27.979  49.410  49.277  1.00  0.00     0.076 C 
HETATM    2  C   UNL     1      26.741  48.608  49.338  1.00  0.00     0.050 A 
HETATM    3  O   UNL     1      25.571  49.275  49.139  1.00  0.00    -0.312 OA
HETATM    4  C   UNL     1      24.547  48.367  49.256  1.00  0.00     0.121 A 
HETATM    5  C   UNL     1      23.174  48.732  49.129  1.00  0.00     0.163 A 
HETATM    6  N   UNL     1      22.138  47.952  49.326  1.00  0.00    -0.221 NA
HETATM    7  C   UNL     1      21.008  48.742  49.138  1.00  0.00     0.149 A 
HETATM    8  C   UNL     1      21.395  50.029  48.785  1.00  0.00     0.046 A 
HETATM    9  C   UNL     1      20.695  51.296  48.437  1.00  0.00     0.070 C 
HETATM   10  C   UNL     1      19.185  51.379  48.696  1.00  0.00     0.045 C 
HETATM   11  C   UNL     1      18.645  50.446  49.793  1.00  0.00     0.132 C 
HETATM   12  N   UNL     1      18.604  49.036  49.482  1.00  0.00    -0.355 N 
HETATM   13  C   UNL     1      19.664  48.184  49.299  1.00  0.00     0.272 C 
HETATM   14  O   UNL     1      19.431  46.976  49.273  1.00  0.00    -0.266 OA
HETATM   15  N   UNL     1      22.773  49.989  48.786  1.00  0.00    -0.340 N 
HETATM   16  H   UNL     1      23.403  50.751  48.580  1.00  0.00     0.167 HD
HETATM   17  C   UNL     1      25.087  47.120  49.518  1.00  0.00     0.043 A 
HETATM   18  C   UNL     1      26.493  47.274  49.568  1.00  0.00     0.035 A 
HETATM   19  H   UNL     1      17.739  48.535  49.638  1.00  0.00     0.162 HD
ENDROOT
BRANCH  10  20
HETATM   20  C   UNL     1      18.378  51.415  47.394  1.00  0.00    -0.019 A 
HETATM   21  C   UNL     1      17.114  52.051  47.344  1.00  0.00     0.074 A 
HETATM   22  C   UNL     1      16.381  52.063  46.151  1.00  0.00     0.037 A 
HETATM   23  C   UNL     1      16.899  51.480  44.994  1.00  0.00     0.003 A 
HETATM   24  C   UNL     1      18.156  50.892  45.019  1.00  0.00     0.001 A 
HETATM   25  C   UNL     1      18.892  50.869  46.205  1.00  0.00     0.010 A 
BRANCH  21  26
HETATM   26  O   UNL     1      16.677  52.630  48.509  1.00  0.00    -0.355 OA
HETATM   27  C   UNL     1      15.452  52.156  49.056  1.00  0.00     0.210 C 
ENDBRANCH  21  26
ENDBRANCH  10  20
TORSDOF 2
ENDMDL
MODEL 8
REMARK VINA RESULT:      -7.7     13.125     14.365
REMARK  2 active torsions:
REMARK  status: ('A' for Active; 'I' for Inactive)
REMARK    1  A    between atoms: C_10  and  C_11 
REMARK    2  A    between atoms: C_12  and  O_13 
ROOT
HETATM    1  C   UNL     1      28.870  46.331  55.684  1.00  0.00     0.076 C 
HETATM    2  C   UNL     1      29.329  45.018  55.188  1.00  0.00     0.050 A 
HETATM    3  O   UNL     1      28.668  44.505  54.114  1.00  0.00    -0.312 OA
HETATM    4  C   UNL     1      29.225  43.283  53.824  1.00  0.00     0.121 A 
HETATM    5  C   UNL     1      28.754  42.453  52.764  1.00  0.00     0.163 A 
HETATM    6  N   UNL     1      29.160  41.236  52.487  1.00  0.00    -0.221 NA
HETATM    7  C   UNL     1      28.393  40.801  51.411  1.00  0.00     0.149 A 
HETATM    8  C   UNL     1      27.525  41.812  51.020  1.00  0.00     0.046 A 
HETATM    9  C   UNL     1      26.496  41.984  49.957  1.00  0.00     0.070 C 
HETATM   10  C   UNL     1      26.056  40.740  49.173  1.00  0.00     0.045 C 
HETATM   11  C   UNL     1      26.233  39.398  49.901  1.00  0.00     0.132 C 
HETATM   12  N   UNL     1      27.588  38.923  50.066  1.00  0.00    -0.355 N 
HETATM   13  C   UNL     1      28.578  39.461  50.849  1.00  0.00     0.272 C 
HETATM   14  O   UNL     1      29.588  38.786  51.040  1.00  0.00    -0.266 OA
HETATM   15  N   UNL     1      27.779  42.845  51.896  1.00  0.00    -0.340 N 
HETATM   16  H   UNL     1      27.328  43.749  51.918  1.00  0.00     0.167 HD
HETATM   17  C   UNL     1      30.253  43.040  54.719  1.00  0.00     0.043 A 
HETATM   18  C   UNL     1      30.321  44.152  55.591  1.00  0.00     0.035 A 
HETATM   19  H   UNL     1      27.802  37.976  49.783  1.00  0.00     0.162 HD
ENDROOT
BRANCH  10  20
HETATM   20  C   UNL     1      26.532  40.779  47.717  1.00  0.00    -0.019 A 
HETATM   21  C   UNL     1      25.614  40.630  46.651  1.00  0.00     0.074 A 
HETATM   22  C   UNL     1      26.065  40.651  45.326  1.00  0.00     0.037 A 
HETATM   23  C   UNL     1      27.416  40.851  45.040  1.00  0.00     0.003 A 
HETATM   24  C   UNL     1      28.321  41.043  46.075  1.00  0.00     0.001 A 
HETATM   25  C   UNL     1      27.881  41.017  47.401  1.00  0.00     0.010 A 
BRANCH  21  26
HETATM   26  O   UNL     1      24.297  40.466  47.001  1.00  0.00    -0.355 OA
HETATM   27  C   UNL     1      23.665  39.249  46.622  1.00  0.00     0.210 C 
ENDBRANCH  21  26
ENDBRANCH  10  20
TORSDOF 2
ENDMDL
MODEL 9
REMARK VINA RESULT:      -7.4     12.403     15.787
REMARK  2 active torsions:
REMARK  status: ('A' for Active; 'I' for Inactive)
REMARK    1  A    between atoms: C_10  and  C_11 
REMARK    2  A    between atoms: C_12  and  O_13 
ROOT
HETATM    1  C   UNL     1      21.280  39.613  47.339  1.00  0.00     0.076 C 
HETATM    2  C   UNL     1      22.225  40.739  47.205  1.00  0.00     0.050 A 
HETATM    3  O   UNL     1      22.872  41.132  48.337  1.00  0.00    -0.312 OA
HETATM    4  C   UNL     1      23.680  42.194  48.009  1.00  0.00     0.121 A 
HETATM    5  C   UNL     1      24.487  42.873  48.970  1.00  0.00     0.163 A 
HETATM    6  N   UNL     1      25.204  43.953  48.762  1.00  0.00    -0.221 NA
HETATM    7  C   UNL     1      25.780  44.284  49.984  1.00  0.00     0.149 A 
HETATM    8  C   UNL     1      25.412  43.345  50.940  1.00  0.00     0.046 A 
HETATM    9  C   UNL     1      25.701  43.123  52.384  1.00  0.00     0.070 C 
HETATM   10  C   UNL     1      26.393  44.251  53.162  1.00  0.00     0.045 C 
HETATM   11  C   UNL     1      26.195  45.668  52.598  1.00  0.00     0.132 C 
HETATM   12  N   UNL     1      26.881  45.977  51.365  1.00  0.00    -0.355 N 
HETATM   13  C   UNL     1      26.640  45.462  50.116  1.00  0.00     0.272 C 
HETATM   14  O   UNL     1      27.170  46.017  49.154  1.00  0.00    -0.266 OA
HETATM   15  N   UNL     1      24.595  42.465  50.265  1.00  0.00    -0.340 N 
HETATM   16  H   UNL     1      24.135  41.649  50.645  1.00  0.00     0.167 HD
HETATM   17  C   UNL     1      23.544  42.455  46.657  1.00  0.00     0.043 A 
HETATM   18  C   UNL     1      22.614  41.521  46.141  1.00  0.00     0.035 A 
HETATM   19  H   UNL     1      27.440  46.818  51.325  1.00  0.00     0.162 HD
ENDROOT
BRANCH  10  20
HETATM   20  C   UNL     1      27.828  43.884  53.555  1.00  0.00    -0.019 A 
HETATM   21  C   UNL     1      28.429  44.447  54.706  1.00  0.00     0.074 A 
HETATM   22  C   UNL     1      29.746  44.114  55.045  1.00  0.00     0.037 A 
HETATM   23  C   UNL     1      30.468  43.203  54.274  1.00  0.00     0.003 A 
HETATM   24  C   UNL     1      29.875  42.610  53.168  1.00  0.00     0.001 A 
HETATM   25  C   UNL     1      28.564  42.940  52.818  1.00  0.00     0.010 A 
BRANCH  21  26
HETATM   26  O   UNL     1      27.653  45.313  55.436  1.00  0.00    -0.355 OA
HETATM   27  C   UNL     1      28.206  46.587  55.744  1.00  0.00     0.210 C 
ENDBRANCH  21  26
ENDBRANCH  10  20
TORSDOF 2
ENDMDL
MODEL 10
REMARK VINA RESULT:      -7.2      4.226      9.209
REMARK  2 active torsions:
REMARK  status: ('A' for Active; 'I' for Inactive)
REMARK    1  A    between atoms: C_10  and  C_11 
REMARK    2  A    between atoms: C_12  and  O_13 
ROOT
HETATM    1  C   UNL     1      25.657  43.313  42.914  1.00  0.00     0.076 C 
HETATM    2  C   UNL     1      25.507  44.317  41.842  1.00  0.00     0.050 A 
HETATM    3  O   UNL     1      26.342  45.392  41.890  1.00  0.00    -0.312 OA
HETATM    4  C   UNL     1      26.033  46.210  40.830  1.00  0.00     0.121 A 
HETATM    5  C   UNL     1      26.700  47.447  40.591  1.00  0.00     0.163 A 
HETATM    6  N   UNL     1      26.399  48.330  39.668  1.00  0.00    -0.221 NA
HETATM    7  C   UNL     1      27.281  49.393  39.838  1.00  0.00     0.149 A 
HETATM    8  C   UNL     1      28.153  49.111  40.881  1.00  0.00     0.046 A 
HETATM    9  C   UNL     1      29.304  49.801  41.526  1.00  0.00     0.070 C 
HETATM   10  C   UNL     1      29.548  51.275  41.175  1.00  0.00     0.045 C 
HETATM   11  C   UNL     1      28.315  52.059  40.697  1.00  0.00     0.132 C 
HETATM   12  N   UNL     1      27.811  51.737  39.383  1.00  0.00    -0.355 N 
HETATM   13  C   UNL     1      27.212  50.573  38.973  1.00  0.00     0.272 C 
HETATM   14  O   UNL     1      26.642  50.574  37.883  1.00  0.00    -0.266 OA
HETATM   15  N   UNL     1      27.761  47.871  41.336  1.00  0.00    -0.340 N 
HETATM   16  H   UNL     1      28.168  47.345  42.096  1.00  0.00     0.167 HD
HETATM   17  C   UNL     1      25.004  45.630  40.108  1.00  0.00     0.043 A 
HETATM   18  C   UNL     1      24.670  44.417  40.754  1.00  0.00     0.035 A 
HETATM   19  H   UNL     1      27.649  52.495  38.733  1.00  0.00     0.162 HD
ENDROOT
BRANCH  10  20
HETATM   20  C   UNL     1      30.823  51.466  40.346  1.00  0.00    -0.019 A 
HETATM   21  C   UNL     1      31.968  52.077  40.911  1.00  0.00     0.074 A 
HETATM   22  C   UNL     1      33.121  52.259  40.137  1.00  0.00     0.037 A 
HETATM   23  C   UNL     1      33.166  51.814  38.816  1.00  0.00     0.003 A 
HETATM   24  C   UNL     1      32.065  51.173  38.264  1.00  0.00     0.001 A 
HETATM   25  C   UNL     1      30.908  50.993  39.025  1.00  0.00     0.010 A 
BRANCH  21  26
HETATM   26  O   UNL     1      31.866  52.466  42.223  1.00  0.00    -0.355 OA
HETATM   27  C   UNL     1      32.582  51.704  43.188  1.00  0.00     0.210 C 
ENDBRANCH  21  26
ENDBRANCH  10  20
TORSDOF 2
ENDMDL
