MODEL 1
REMARK VINA RESULT:      -8.7      0.000      0.000
REMARK  5 active torsions:
REMARK  status: ('A' for Active; 'I' for Inactive)
REMARK    1  A    between atoms: C_3  and  N_4 
REMARK       I    between atoms: N_4  and  C_5 
REMARK       I    between atoms: C_5  and  N_6 
REMARK    2  A    between atoms: N_6  and  C_7 
REMARK    3  A    between atoms: C_7  and  C_8 
REMARK    4  A    between atoms: C_16  and  N_17 
REMARK       I    between atoms: N_17  and  C_18 
REMARK    5  A    between atoms: C_18  and  C_19 
ROOT
HETATM    1  C   UNL     1      26.143  48.406  49.411  1.00  0.00     0.050 C 
HETATM    2  C   UNL     1      25.833  47.385  50.474  1.00  0.00    -0.035 A 
HETATM    3  C   UNL     1      24.824  46.418  50.316  1.00  0.00     0.044 A 
HETATM    4  C   UNL     1      24.580  45.472  51.336  1.00  0.00     0.059 A 
HETATM    5  C   UNL     1      25.303  45.509  52.528  1.00  0.00     0.037 A 
HETATM    6  C   UNL     1      26.271  46.513  52.691  1.00  0.00     0.030 A 
HETATM    7  C   UNL     1      26.538  47.433  51.677  1.00  0.00     0.011 A 
ENDROOT
BRANCH   3   8
HETATM    8  N   UNL     1      24.124  46.375  49.096  1.00  0.00    -0.308 N 
HETATM    9  C   UNL     1      23.020  47.055  48.681  1.00  0.00     0.321 C 
HETATM   10  N   UNL     1      22.628  48.119  49.428  1.00  0.00    -0.336 N 
HETATM   11  O   UNL     1      22.496  46.768  47.606  1.00  0.00    -0.247 OA
HETATM   12  H   UNL     1      23.290  48.496  50.094  1.00  0.00     0.164 HD
HETATM   13  H   UNL     1      24.546  45.866  48.331  1.00  0.00     0.170 HD
BRANCH  10  14
HETATM   14  C   UNL     1      21.694  49.074  48.885  1.00  0.00     0.202 C 
BRANCH  14  15
HETATM   15  C   UNL     1      20.362  48.862  49.521  1.00  0.00     0.121 A 
HETATM   16  N   UNL     1      19.458  47.950  49.206  1.00  0.00    -0.244 NA
HETATM   17  C   UNL     1      18.409  48.156  50.063  1.00  0.00     0.135 A 
HETATM   18  C   UNL     1      18.678  49.194  50.920  1.00  0.00     0.109 A 
HETATM   19  N   UNL     1      19.925  49.632  50.572  1.00  0.00    -0.352 N 
HETATM   20  H   UNL     1      20.441  50.383  51.009  1.00  0.00     0.166 HD
ENDBRANCH  14  15
ENDBRANCH  10  14
ENDBRANCH   3   8
BRANCH   5  21
HETATM   21  N   UNL     1      25.226  44.586  53.587  1.00  0.00    -0.323 N 
HETATM   22  C   UNL     1      26.116  43.819  54.290  1.00  0.00     0.256 C 
HETATM   23  O   UNL     1      25.740  43.326  55.357  1.00  0.00    -0.267 OA
HETATM   24  H   UNL     1      24.325  44.538  54.050  1.00  0.00     0.169 HD
BRANCH  22  25
HETATM   25  C   UNL     1      27.483  43.508  53.848  1.00  0.00     0.032 A 
HETATM   26  C   UNL     1      27.721  42.656  52.766  1.00  0.00     0.017 A 
HETATM   27  C   UNL     1      29.031  42.270  52.473  1.00  0.00     0.001 A 
HETATM   28  C   UNL     1      30.094  42.715  53.259  1.00  0.00     0.000 A 
HETATM   29  C   UNL     1      29.853  43.544  54.353  1.00  0.00     0.001 A 
HETATM   30  C   UNL     1      28.548  43.933  54.654  1.00  0.00     0.017 A 
ENDBRANCH  22  25
ENDBRANCH   5  21
TORSDOF 5
ENDMDL
MODEL 2
REMARK VINA RESULT:      -8.4      1.988      2.812
REMARK  5 active torsions:
REMARK  status: ('A' for Active; 'I' for Inactive)
REMARK    1  A    between atoms: C_3  and  N_4 
REMARK       I    between atoms: N_4  and  C_5 
REMARK       I    between atoms: C_5  and  N_6 
REMARK    2  A    between atoms: N_6  and  C_7 
REMARK    3  A    between atoms: C_7  and  C_8 
REMARK    4  A    between atoms: C_16  and  N_17 
REMARK       I    between atoms: N_17  and  C_18 
REMARK    5  A    between atoms: C_18  and  C_19 
ROOT
HETATM    1  C   UNL     1      26.385  50.033  47.973  1.00  0.00     0.050 C 
HETATM    2  C   UNL     1      25.909  48.925  48.876  1.00  0.00    -0.035 A 
HETATM    3  C   UNL     1      24.554  48.763  49.218  1.00  0.00     0.044 A 
HETATM    4  C   UNL     1      24.155  47.700  50.057  1.00  0.00     0.059 A 
HETATM    5  C   UNL     1      25.098  46.823  50.592  1.00  0.00     0.037 A 
HETATM    6  C   UNL     1      26.451  47.029  50.283  1.00  0.00     0.030 A 
HETATM    7  C   UNL     1      26.852  48.059  49.432  1.00  0.00     0.011 A 
ENDROOT
BRANCH   3   8
HETATM    8  N   UNL     1      23.612  49.638  48.646  1.00  0.00    -0.308 N 
HETATM    9  C   UNL     1      22.423  49.385  48.033  1.00  0.00     0.321 C 
HETATM   10  N   UNL     1      21.904  48.138  48.171  1.00  0.00    -0.336 N 
HETATM   11  O   UNL     1      21.811  50.303  47.487  1.00  0.00    -0.247 OA
HETATM   12  H   UNL     1      22.285  47.548  48.900  1.00  0.00     0.164 HD
HETATM   13  H   UNL     1      23.736  50.629  48.803  1.00  0.00     0.170 HD
BRANCH  10  14
HETATM   14  C   UNL     1      20.521  47.894  47.847  1.00  0.00     0.202 C 
BRANCH  14  15
HETATM   15  C   UNL     1      19.664  48.442  48.937  1.00  0.00     0.121 A 
HETATM   16  N   UNL     1      18.907  49.525  48.896  1.00  0.00    -0.244 NA
HETATM   17  C   UNL     1      18.322  49.616  50.131  1.00  0.00     0.135 A 
HETATM   18  C   UNL     1      18.711  48.571  50.932  1.00  0.00     0.109 A 
HETATM   19  N   UNL     1      19.559  47.826  50.161  1.00  0.00    -0.352 N 
HETATM   20  H   UNL     1      20.025  46.971  50.435  1.00  0.00     0.166 HD
ENDBRANCH  14  15
ENDBRANCH  10  14
ENDBRANCH   3   8
BRANCH   5  21
HETATM   21  N   UNL     1      24.837  45.679  51.367  1.00  0.00    -0.323 N 
HETATM   22  C   UNL     1      25.146  45.256  52.632  1.00  0.00     0.256 C 
HETATM   23  O   UNL     1      24.510  44.306  53.098  1.00  0.00    -0.267 OA
HETATM   24  H   UNL     1      24.156  45.038  50.973  1.00  0.00     0.169 HD
BRANCH  22  25
HETATM   25  C   UNL     1      26.211  45.830  53.468  1.00  0.00     0.032 A 
HETATM   26  C   UNL     1      27.334  45.082  53.828  1.00  0.00     0.017 A 
HETATM   27  C   UNL     1      28.247  45.612  54.742  1.00  0.00     0.001 A 
HETATM   28  C   UNL     1      28.036  46.871  55.305  1.00  0.00     0.000 A 
HETATM   29  C   UNL     1      26.901  47.605  54.965  1.00  0.00     0.001 A 
HETATM   30  C   UNL     1      25.984  47.082  54.054  1.00  0.00     0.017 A 
ENDBRANCH  22  25
ENDBRANCH   5  21
TORSDOF 5
ENDMDL
MODEL 3
REMARK VINA RESULT:      -8.2     11.892     13.314
REMARK  5 active torsions:
REMARK  status: ('A' for Active; 'I' for Inactive)
REMARK    1  A    between atoms: C_3  and  N_4 
REMARK       I    between atoms: N_4  and  C_5 
REMARK       I    between atoms: C_5  and  N_6 
REMARK    2  A    between atoms: N_6  and  C_7 
REMARK    3  A    between atoms: C_7  and  C_8 
REMARK    4  A    between atoms: C_16  and  N_17 
REMARK       I    between atoms: N_17  and  C_18 
REMARK    5  A    between atoms: C_18  and  C_19 
ROOT
HETATM    1  C   UNL     1      28.569  53.106  38.041  1.00  0.00     0.050 C 
HETATM    2  C   UNL     1      29.117  52.909  39.430  1.00  0.00    -0.035 A 
HETATM    3  C   UNL     1      28.448  52.141  40.401  1.00  0.00     0.044 A 
HETATM    4  C   UNL     1      29.009  51.974  41.686  1.00  0.00     0.059 A 
HETATM    5  C   UNL     1      30.209  52.599  42.025  1.00  0.00     0.037 A 
HETATM    6  C   UNL     1      30.837  53.404  41.062  1.00  0.00     0.030 A 
HETATM    7  C   UNL     1      30.305  53.552  39.781  1.00  0.00     0.011 A 
ENDROOT
BRANCH   3   8
HETATM    8  N   UNL     1      27.254  51.493  40.033  1.00  0.00    -0.308 N 
HETATM    9  C   UNL     1      26.962  50.168  39.919  1.00  0.00     0.321 C 
HETATM   10  N   UNL     1      27.847  49.288  40.453  1.00  0.00    -0.336 N 
HETATM   11  O   UNL     1      25.877  49.821  39.456  1.00  0.00    -0.247 OA
HETATM   12  H   UNL     1      28.534  49.647  41.104  1.00  0.00     0.164 HD
HETATM   13  H   UNL     1      26.419  52.057  39.954  1.00  0.00     0.170 HD
BRANCH  10  14
HETATM   14  C   UNL     1      27.457  47.916  40.670  1.00  0.00     0.202 C 
BRANCH  14  15
HETATM   15  C   UNL     1      28.305  47.032  39.820  1.00  0.00     0.121 A 
HETATM   16  N   UNL     1      28.771  45.833  40.122  1.00  0.00    -0.244 NA
HETATM   17  C   UNL     1      29.493  45.429  39.031  1.00  0.00     0.135 A 
HETATM   18  C   UNL     1      29.458  46.384  38.044  1.00  0.00     0.109 A 
HETATM   19  N   UNL     1      28.693  47.396  38.553  1.00  0.00    -0.352 N 
HETATM   20  H   UNL     1      28.450  48.258  38.084  1.00  0.00     0.166 HD
ENDBRANCH  14  15
ENDBRANCH  10  14
ENDBRANCH   3   8
BRANCH   5  21
HETATM   21  N   UNL     1      30.921  52.454  43.229  1.00  0.00    -0.323 N 
HETATM   22  C   UNL     1      31.993  51.716  43.655  1.00  0.00     0.256 C 
HETATM   23  O   UNL     1      32.540  52.045  44.711  1.00  0.00    -0.267 OA
HETATM   24  H   UNL     1      30.692  53.131  43.949  1.00  0.00     0.169 HD
BRANCH  22  25
HETATM   25  C   UNL     1      32.521  50.532  42.962  1.00  0.00     0.032 A 
HETATM   26  C   UNL     1      33.714  50.586  42.238  1.00  0.00     0.017 A 
HETATM   27  C   UNL     1      34.104  49.484  41.473  1.00  0.00     0.001 A 
HETATM   28  C   UNL     1      33.303  48.343  41.418  1.00  0.00     0.000 A 
HETATM   29  C   UNL     1      32.100  48.300  42.119  1.00  0.00     0.001 A 
HETATM   30  C   UNL     1      31.704  49.396  42.883  1.00  0.00     0.017 A 
ENDBRANCH  22  25
ENDBRANCH   5  21
TORSDOF 5
ENDMDL
MODEL 4
REMARK VINA RESULT:      -8.2      4.355      7.303
REMARK  5 active torsions:
REMARK  status: ('A' for Active; 'I' for Inactive)
REMARK    1  A    between atoms: C_3  and  N_4 
REMARK       I    between atoms: N_4  and  C_5 
REMARK       I    between atoms: C_5  and  N_6 
REMARK    2  A    between atoms: N_6  and  C_7 
REMARK    3  A    between atoms: C_7  and  C_8 
REMARK    4  A    between atoms: C_16  and  N_17 
REMARK       I    between atoms: N_17  and  C_18 
REMARK    5  A    between atoms: C_18  and  C_19 
ROOT
HETATM    1  C   UNL     1      30.961  43.249  55.787  1.00  0.00     0.050 C 
HETATM    2  C   UNL     1      29.863  44.212  55.419  1.00  0.00    -0.035 A 
HETATM    3  C   UNL     1      28.695  43.800  54.751  1.00  0.00     0.044 A 
HETATM    4  C   UNL     1      27.687  44.738  54.439  1.00  0.00     0.059 A 
HETATM    5  C   UNL     1      27.850  46.088  54.749  1.00  0.00     0.037 A 
HETATM    6  C   UNL     1      29.044  46.491  55.368  1.00  0.00     0.030 A 
HETATM    7  C   UNL     1      30.033  45.567  55.705  1.00  0.00     0.011 A 
ENDROOT
BRANCH   3   8
HETATM    8  N   UNL     1      28.531  42.430  54.474  1.00  0.00    -0.308 N 
HETATM    9  C   UNL     1      28.274  41.786  53.302  1.00  0.00     0.321 C 
HETATM   10  N   UNL     1      28.417  42.499  52.156  1.00  0.00    -0.336 N 
HETATM   11  O   UNL     1      28.043  40.578  53.309  1.00  0.00    -0.247 OA
HETATM   12  H   UNL     1      28.928  43.372  52.205  1.00  0.00     0.164 HD
HETATM   13  H   UNL     1      28.757  41.773  55.208  1.00  0.00     0.170 HD
BRANCH  10  14
HETATM   14  C   UNL     1      28.492  41.817  50.888  1.00  0.00     0.202 C 
BRANCH  14  15
HETATM   15  C   UNL     1      27.159  41.885  50.223  1.00  0.00     0.121 A 
HETATM   16  N   UNL     1      26.890  42.322  49.005  1.00  0.00    -0.244 NA
HETATM   17  C   UNL     1      25.535  42.190  48.854  1.00  0.00     0.135 A 
HETATM   18  C   UNL     1      24.970  41.654  49.984  1.00  0.00     0.109 A 
HETATM   19  N   UNL     1      26.012  41.456  50.846  1.00  0.00    -0.352 N 
HETATM   20  H   UNL     1      25.955  41.061  51.775  1.00  0.00     0.166 HD
ENDBRANCH  14  15
ENDBRANCH  10  14
ENDBRANCH   3   8
BRANCH   5  21
HETATM   21  N   UNL     1      26.901  47.112  54.575  1.00  0.00    -0.323 N 
HETATM   22  C   UNL     1      25.931  47.407  53.655  1.00  0.00     0.256 C 
HETATM   23  O   UNL     1      25.077  48.245  53.962  1.00  0.00    -0.267 OA
HETATM   24  H   UNL     1      26.796  47.740  55.365  1.00  0.00     0.169 HD
BRANCH  22  25
HETATM   25  C   UNL     1      25.850  46.823  52.309  1.00  0.00     0.032 A 
HETATM   26  C   UNL     1      26.416  47.463  51.204  1.00  0.00     0.017 A 
HETATM   27  C   UNL     1      26.189  46.952  49.924  1.00  0.00     0.001 A 
HETATM   28  C   UNL     1      25.392  45.822  49.744  1.00  0.00     0.000 A 
HETATM   29  C   UNL     1      24.806  45.199  50.845  1.00  0.00     0.001 A 
HETATM   30  C   UNL     1      25.026  45.704  52.125  1.00  0.00     0.017 A 
ENDBRANCH  22  25
ENDBRANCH   5  21
TORSDOF 5
ENDMDL
MODEL 5
REMARK VINA RESULT:      -8.0      3.465      5.511
REMARK  5 active torsions:
REMARK  status: ('A' for Active; 'I' for Inactive)
REMARK    1  A    between atoms: C_3  and  N_4 
REMARK       I    between atoms: N_4  and  C_5 
REMARK       I    between atoms: C_5  and  N_6 
REMARK    2  A    between atoms: N_6  and  C_7 
REMARK    3  A    between atoms: C_7  and  C_8 
REMARK    4  A    between atoms: C_16  and  N_17 
REMARK       I    between atoms: N_17  and  C_18 
REMARK    5  A    between atoms: C_18  and  C_19 
ROOT
HETATM    1  C   UNL     1      20.649  50.847  48.211  1.00  0.00     0.050 C 
HETATM    2  C   UNL     1      22.038  50.304  48.420  1.00  0.00    -0.035 A 
HETATM    3  C   UNL     1      22.275  49.049  49.010  1.00  0.00     0.044 A 
HETATM    4  C   UNL     1      23.595  48.577  49.172  1.00  0.00     0.059 A 
HETATM    5  C   UNL     1      24.683  49.362  48.790  1.00  0.00     0.037 A 
HETATM    6  C   UNL     1      24.432  50.633  48.251  1.00  0.00     0.030 A 
HETATM    7  C   UNL     1      23.130  51.096  48.061  1.00  0.00     0.011 A 
ENDROOT
BRANCH   3   8
HETATM    8  N   UNL     1      21.166  48.256  49.361  1.00  0.00    -0.308 N 
HETATM    9  C   UNL     1      20.476  47.327  48.645  1.00  0.00     0.321 C 
HETATM   10  N   UNL     1      21.040  46.887  47.491  1.00  0.00    -0.336 N 
HETATM   11  O   UNL     1      19.448  46.838  49.111  1.00  0.00    -0.247 OA
HETATM   12  H   UNL     1      22.023  47.077  47.345  1.00  0.00     0.164 HD
HETATM   13  H   UNL     1      20.881  48.253  50.331  1.00  0.00     0.170 HD
BRANCH  10  14
HETATM   14  C   UNL     1      20.549  45.686  46.862  1.00  0.00     0.202 C 
BRANCH  14  15
HETATM   15  C   UNL     1      21.513  44.577  47.118  1.00  0.00     0.121 A 
HETATM   16  N   UNL     1      21.251  43.283  47.182  1.00  0.00    -0.244 NA
HETATM   17  C   UNL     1      22.450  42.674  47.440  1.00  0.00     0.135 A 
HETATM   18  C   UNL     1      23.460  43.602  47.521  1.00  0.00     0.109 A 
HETATM   19  N   UNL     1      22.855  44.808  47.307  1.00  0.00    -0.352 N 
HETATM   20  H   UNL     1      23.308  45.712  47.286  1.00  0.00     0.166 HD
ENDBRANCH  14  15
ENDBRANCH  10  14
ENDBRANCH   3   8
BRANCH   5  21
HETATM   21  N   UNL     1      26.039  48.989  48.815  1.00  0.00    -0.323 N 
HETATM   22  C   UNL     1      26.754  47.910  49.263  1.00  0.00     0.256 C 
HETATM   23  O   UNL     1      27.916  47.780  48.866  1.00  0.00    -0.267 OA
HETATM   24  H   UNL     1      26.658  49.580  48.271  1.00  0.00     0.169 HD
BRANCH  22  25
HETATM   25  C   UNL     1      26.250  46.911  50.215  1.00  0.00     0.032 A 
HETATM   26  C   UNL     1      25.750  45.681  49.781  1.00  0.00     0.017 A 
HETATM   27  C   UNL     1      25.145  44.822  50.701  1.00  0.00     0.001 A 
HETATM   28  C   UNL     1      25.026  45.191  52.041  1.00  0.00     0.000 A 
HETATM   29  C   UNL     1      25.502  46.429  52.469  1.00  0.00     0.001 A 
HETATM   30  C   UNL     1      26.105  47.293  51.556  1.00  0.00     0.017 A 
ENDBRANCH  22  25
ENDBRANCH   5  21
TORSDOF 5
ENDMDL
MODEL 6
REMARK VINA RESULT:      -7.9      5.093      9.437
REMARK  5 active torsions:
REMARK  status: ('A' for Active; 'I' for Inactive)
REMARK    1  A    between atoms: C_3  and  N_4 
REMARK       I    between atoms: N_4  and  C_5 
REMARK       I    between atoms: C_5  and  N_6 
REMARK    2  A    between atoms: N_6  and  C_7 
REMARK    3  A    between atoms: C_7  and  C_8 
REMARK    4  A    between atoms: C_16  and  N_17 
REMARK       I    between atoms: N_17  and  C_18 
REMARK    5  A    between atoms: C_18  and  C_19 
ROOT
HETATM    1  C   UNL     1      17.780  45.940  44.933  1.00  0.00     0.050 C 
HETATM    2  C   UNL     1      18.136  46.400  46.323  1.00  0.00    -0.035 A 
HETATM    3  C   UNL     1      19.465  46.633  46.722  1.00  0.00     0.044 A 
HETATM    4  C   UNL     1      19.746  47.077  48.032  1.00  0.00     0.059 A 
HETATM    5  C   UNL     1      18.720  47.252  48.960  1.00  0.00     0.037 A 
HETATM    6  C   UNL     1      17.405  46.966  48.562  1.00  0.00     0.030 A 
HETATM    7  C   UNL     1      17.114  46.554  47.261  1.00  0.00     0.011 A 
ENDROOT
BRANCH   3   8
HETATM    8  N   UNL     1      20.485  46.481  45.765  1.00  0.00    -0.308 N 
HETATM    9  C   UNL     1      21.454  45.532  45.642  1.00  0.00     0.321 C 
HETATM   10  N   UNL     1      21.321  44.408  46.392  1.00  0.00    -0.336 N 
HETATM   11  O   UNL     1      22.331  45.663  44.790  1.00  0.00    -0.247 OA
HETATM   12  H   UNL     1      20.417  44.222  46.807  1.00  0.00     0.164 HD
HETATM   13  H   UNL     1      20.456  47.077  44.949  1.00  0.00     0.170 HD
BRANCH  10  14
HETATM   14  C   UNL     1      22.102  43.237  46.078  1.00  0.00     0.202 C 
BRANCH  14  15
HETATM   15  C   UNL     1      22.881  42.837  47.285  1.00  0.00     0.121 A 
HETATM   16  N   UNL     1      22.502  42.021  48.253  1.00  0.00    -0.244 NA
HETATM   17  C   UNL     1      23.551  41.973  49.131  1.00  0.00     0.135 A 
HETATM   18  C   UNL     1      24.589  42.757  48.692  1.00  0.00     0.109 A 
HETATM   19  N   UNL     1      24.156  43.296  47.513  1.00  0.00    -0.352 N 
HETATM   20  H   UNL     1      24.678  43.918  46.910  1.00  0.00     0.166 HD
ENDBRANCH  14  15
ENDBRANCH  10  14
ENDBRANCH   3   8
BRANCH   5  21
HETATM   21  N   UNL     1      18.844  47.767  50.263  1.00  0.00    -0.323 N 
HETATM   22  C   UNL     1      18.759  49.004  50.844  1.00  0.00     0.256 C 
HETATM   23  O   UNL     1      18.640  49.060  52.072  1.00  0.00    -0.267 OA
HETATM   24  H   UNL     1      18.888  47.069  50.998  1.00  0.00     0.169 HD
BRANCH  22  25
HETATM   25  C   UNL     1      18.836  50.277  50.114  1.00  0.00     0.032 A 
HETATM   26  C   UNL     1      17.695  51.045  49.869  1.00  0.00     0.017 A 
HETATM   27  C   UNL     1      17.788  52.169  49.047  1.00  0.00     0.001 A 
HETATM   28  C   UNL     1      19.004  52.518  48.459  1.00  0.00     0.000 A 
HETATM   29  C   UNL     1      20.137  51.737  48.683  1.00  0.00     0.001 A 
HETATM   30  C   UNL     1      20.052  50.612  49.501  1.00  0.00     0.017 A 
ENDBRANCH  22  25
ENDBRANCH   5  21
TORSDOF 5
ENDMDL
MODEL 7
REMARK VINA RESULT:      -7.8     12.760     16.189
REMARK  5 active torsions:
REMARK  status: ('A' for Active; 'I' for Inactive)
REMARK    1  A    between atoms: C_3  and  N_4 
REMARK       I    between atoms: N_4  and  C_5 
REMARK       I    between atoms: C_5  and  N_6 
REMARK    2  A    between atoms: N_6  and  C_7 
REMARK    3  A    between atoms: C_7  and  C_8 
REMARK    4  A    between atoms: C_16  and  N_17 
REMARK       I    between atoms: N_17  and  C_18 
REMARK    5  A    between atoms: C_18  and  C_19 
ROOT
HETATM    1  C   UNL     1      35.950  52.578  44.007  1.00  0.00     0.050 C 
HETATM    2  C   UNL     1      34.713  51.824  43.595  1.00  0.00    -0.035 A 
HETATM    3  C   UNL     1      34.703  50.933  42.506  1.00  0.00     0.044 A 
HETATM    4  C   UNL     1      33.521  50.239  42.167  1.00  0.00     0.059 A 
HETATM    5  C   UNL     1      32.340  50.455  42.878  1.00  0.00     0.037 A 
HETATM    6  C   UNL     1      32.355  51.384  43.928  1.00  0.00     0.030 A 
HETATM    7  C   UNL     1      33.524  52.055  44.288  1.00  0.00     0.011 A 
ENDROOT
BRANCH   3   8
HETATM    8  N   UNL     1      35.909  50.704  41.819  1.00  0.00    -0.308 N 
HETATM    9  C   UNL     1      36.368  51.204  40.638  1.00  0.00     0.321 C 
HETATM   10  N   UNL     1      35.706  52.266  40.114  1.00  0.00    -0.336 N 
HETATM   11  O   UNL     1      37.411  50.766  40.156  1.00  0.00    -0.247 OA
HETATM   12  H   UNL     1      35.078  52.777  40.721  1.00  0.00     0.164 HD
HETATM   13  H   UNL     1      36.634  50.192  42.303  1.00  0.00     0.170 HD
BRANCH  10  14
HETATM   14  C   UNL     1      36.315  53.049  39.067  1.00  0.00     0.202 C 
BRANCH  14  15
HETATM   15  C   UNL     1      35.866  54.465  39.199  1.00  0.00     0.121 A 
HETATM   16  N   UNL     1      34.632  54.904  39.379  1.00  0.00    -0.244 NA
HETATM   17  C   UNL     1      34.728  56.269  39.436  1.00  0.00     0.135 A 
HETATM   18  C   UNL     1      36.034  56.671  39.303  1.00  0.00     0.109 A 
HETATM   19  N   UNL     1      36.751  55.516  39.161  1.00  0.00    -0.352 N 
HETATM   20  H   UNL     1      37.753  55.442  39.052  1.00  0.00     0.166 HD
ENDBRANCH  14  15
ENDBRANCH  10  14
ENDBRANCH   3   8
BRANCH   5  21
HETATM   21  N   UNL     1      31.121  49.775  42.707  1.00  0.00    -0.323 N 
HETATM   22  C   UNL     1      30.084  49.825  41.813  1.00  0.00     0.256 C 
HETATM   23  O   UNL     1      29.289  48.880  41.795  1.00  0.00    -0.267 OA
HETATM   24  H   UNL     1      30.995  48.961  43.298  1.00  0.00     0.169 HD
BRANCH  22  25
HETATM   25  C   UNL     1      29.825  50.942  40.894  1.00  0.00     0.032 A 
HETATM   26  C   UNL     1      29.473  52.208  41.370  1.00  0.00     0.017 A 
HETATM   27  C   UNL     1      29.091  53.200  40.464  1.00  0.00     0.001 A 
HETATM   28  C   UNL     1      29.046  52.930  39.096  1.00  0.00     0.000 A 
HETATM   29  C   UNL     1      29.373  51.660  38.625  1.00  0.00     0.001 A 
HETATM   30  C   UNL     1      29.753  50.663  39.523  1.00  0.00     0.017 A 
ENDBRANCH  22  25
ENDBRANCH   5  21
TORSDOF 5
ENDMDL
MODEL 8
REMARK VINA RESULT:      -7.6      2.989      9.003
REMARK  5 active torsions:
REMARK  status: ('A' for Active; 'I' for Inactive)
REMARK    1  A    between atoms: C_3  and  N_4 
REMARK       I    between atoms: N_4  and  C_5 
REMARK       I    between atoms: C_5  and  N_6 
REMARK    2  A    between atoms: N_6  and  C_7 
REMARK    3  A    between atoms: C_7  and  C_8 
REMARK    4  A    between atoms: C_16  and  N_17 
REMARK       I    between atoms: N_17  and  C_18 
REMARK    5  A    between atoms: C_18  and  C_19 
ROOT
HETATM    1  C   UNL     1      25.673  44.208  52.952  1.00  0.00     0.050 C 
HETATM    2  C   UNL     1      25.814  45.336  51.963  1.00  0.00    -0.035 A 
HETATM    3  C   UNL     1      25.790  46.687  52.355  1.00  0.00     0.044 A 
HETATM    4  C   UNL     1      25.940  47.709  51.392  1.00  0.00     0.059 A 
HETATM    5  C   UNL     1      26.072  47.398  50.039  1.00  0.00     0.037 A 
HETATM    6  C   UNL     1      26.042  46.047  49.659  1.00  0.00     0.030 A 
HETATM    7  C   UNL     1      25.922  45.030  50.606  1.00  0.00     0.011 A 
ENDROOT
BRANCH   3   8
HETATM    8  N   UNL     1      25.688  46.983  53.727  1.00  0.00    -0.308 N 
HETATM    9  C   UNL     1      26.573  46.797  54.745  1.00  0.00     0.321 C 
HETATM   10  N   UNL     1      27.853  46.498  54.408  1.00  0.00    -0.336 N 
HETATM   11  O   UNL     1      26.223  47.016  55.903  1.00  0.00    -0.247 OA
HETATM   12  H   UNL     1      28.140  46.665  53.452  1.00  0.00     0.164 HD
HETATM   13  H   UNL     1      24.898  47.538  54.029  1.00  0.00     0.170 HD
BRANCH  10  14
HETATM   14  C   UNL     1      28.902  46.616  55.390  1.00  0.00     0.202 C 
BRANCH  14  15
HETATM   15  C   UNL     1      29.622  45.314  55.488  1.00  0.00     0.121 A 
HETATM   16  N   UNL     1      30.652  45.021  56.263  1.00  0.00    -0.244 NA
HETATM   17  C   UNL     1      30.958  43.713  55.995  1.00  0.00     0.135 A 
HETATM   18  C   UNL     1      30.099  43.195  55.058  1.00  0.00     0.109 A 
HETATM   19  N   UNL     1      29.248  44.218  54.747  1.00  0.00    -0.352 N 
HETATM   20  H   UNL     1      28.477  44.181  54.094  1.00  0.00     0.166 HD
ENDBRANCH  14  15
ENDBRANCH  10  14
ENDBRANCH   3   8
BRANCH   5  21
HETATM   21  N   UNL     1      26.312  48.302  48.988  1.00  0.00    -0.323 N 
HETATM   22  C   UNL     1      25.621  49.322  48.392  1.00  0.00     0.256 C 
HETATM   23  O   UNL     1      26.249  50.104  47.671  1.00  0.00    -0.267 OA
HETATM   24  H   UNL     1      27.264  48.312  48.640  1.00  0.00     0.169 HD
BRANCH  22  25
HETATM   25  C   UNL     1      24.172  49.536  48.517  1.00  0.00     0.032 A 
HETATM   26  C   UNL     1      23.269  48.476  48.412  1.00  0.00     0.017 A 
HETATM   27  C   UNL     1      21.898  48.742  48.389  1.00  0.00     0.001 A 
HETATM   28  C   UNL     1      21.431  50.055  48.454  1.00  0.00     0.000 A 
HETATM   29  C   UNL     1      22.333  51.114  48.533  1.00  0.00     0.001 A 
HETATM   30  C   UNL     1      23.703  50.857  48.555  1.00  0.00     0.017 A 
ENDBRANCH  22  25
ENDBRANCH   5  21
TORSDOF 5
ENDMDL
MODEL 9
REMARK VINA RESULT:      -7.5      4.960      7.791
REMARK  5 active torsions:
REMARK  status: ('A' for Active; 'I' for Inactive)
REMARK    1  A    between atoms: C_3  and  N_4 
REMARK       I    between atoms: N_4  and  C_5 
REMARK       I    between atoms: C_5  and  N_6 
REMARK    2  A    between atoms: N_6  and  C_7 
REMARK    3  A    between atoms: C_7  and  C_8 
REMARK    4  A    between atoms: C_16  and  N_17 
REMARK       I    between atoms: N_17  and  C_18 
REMARK    5  A    between atoms: C_18  and  C_19 
ROOT
HETATM    1  C   UNL     1      31.444  43.079  56.890  1.00  0.00     0.050 C 
HETATM    2  C   UNL     1      30.491  44.174  56.491  1.00  0.00    -0.035 A 
HETATM    3  C   UNL     1      29.892  44.224  55.219  1.00  0.00     0.044 A 
HETATM    4  C   UNL     1      28.994  45.265  54.896  1.00  0.00     0.059 A 
HETATM    5  C   UNL     1      28.720  46.278  55.814  1.00  0.00     0.037 A 
HETATM    6  C   UNL     1      29.365  46.242  57.060  1.00  0.00     0.030 A 
HETATM    7  C   UNL     1      30.232  45.203  57.398  1.00  0.00     0.011 A 
ENDROOT
BRANCH   3   8
HETATM    8  N   UNL     1      30.156  43.178  54.315  1.00  0.00    -0.308 N 
HETATM    9  C   UNL     1      29.546  42.839  53.146  1.00  0.00     0.321 C 
HETATM   10  N   UNL     1      28.698  43.748  52.601  1.00  0.00    -0.336 N 
HETATM   11  O   UNL     1      29.864  41.798  52.573  1.00  0.00    -0.247 OA
HETATM   12  H   UNL     1      28.744  44.700  52.943  1.00  0.00     0.164 HD
HETATM   13  H   UNL     1      31.004  42.644  54.450  1.00  0.00     0.170 HD
BRANCH  10  14
HETATM   14  C   UNL     1      28.282  43.612  51.227  1.00  0.00     0.202 C 
BRANCH  14  15
HETATM   15  C   UNL     1      27.711  42.249  51.028  1.00  0.00     0.121 A 
HETATM   16  N   UNL     1      26.572  41.777  51.504  1.00  0.00    -0.244 NA
HETATM   17  C   UNL     1      26.488  40.486  51.055  1.00  0.00     0.135 A 
HETATM   18  C   UNL     1      27.579  40.167  50.285  1.00  0.00     0.109 A 
HETATM   19  N   UNL     1      28.347  41.297  50.267  1.00  0.00    -0.352 N 
HETATM   20  H   UNL     1      29.225  41.418  49.780  1.00  0.00     0.166 HD
ENDBRANCH  14  15
ENDBRANCH  10  14
ENDBRANCH   3   8
BRANCH   5  21
HETATM   21  N   UNL     1      27.789  47.321  55.661  1.00  0.00    -0.323 N 
HETATM   22  C   UNL     1      26.544  47.455  55.108  1.00  0.00     0.256 C 
HETATM   23  O   UNL     1      25.884  48.456  55.401  1.00  0.00    -0.267 OA
HETATM   24  H   UNL     1      28.003  48.167  56.178  1.00  0.00     0.169 HD
BRANCH  22  25
HETATM   25  C   UNL     1      25.946  46.508  54.157  1.00  0.00     0.032 A 
HETATM   26  C   UNL     1      25.593  45.213  54.545  1.00  0.00     0.017 A 
HETATM   27  C   UNL     1      25.167  44.299  53.579  1.00  0.00     0.001 A 
HETATM   28  C   UNL     1      25.108  44.665  52.235  1.00  0.00     0.000 A 
HETATM   29  C   UNL     1      25.485  45.949  51.844  1.00  0.00     0.001 A 
HETATM   30  C   UNL     1      25.913  46.867  52.802  1.00  0.00     0.017 A 
ENDBRANCH  22  25
ENDBRANCH   5  21
TORSDOF 5
ENDMDL
MODEL 10
REMARK VINA RESULT:      -7.5      3.605      7.860
REMARK  5 active torsions:
REMARK  status: ('A' for Active; 'I' for Inactive)
REMARK    1  A    between atoms: C_3  and  N_4 
REMARK       I    between atoms: N_4  and  C_5 
REMARK       I    between atoms: C_5  and  N_6 
REMARK    2  A    between atoms: N_6  and  C_7 
REMARK    3  A    between atoms: C_7  and  C_8 
REMARK    4  A    between atoms: C_16  and  N_17 
REMARK       I    between atoms: N_17  and  C_18 
REMARK    5  A    between atoms: C_18  and  C_19 
ROOT
HETATM    1  C   UNL     1      28.465  40.072  48.323  1.00  0.00     0.050 C 
HETATM    2  C   UNL     1      27.120  40.654  48.670  1.00  0.00    -0.035 A 
HETATM    3  C   UNL     1      26.647  40.717  49.994  1.00  0.00     0.044 A 
HETATM    4  C   UNL     1      25.384  41.285  50.270  1.00  0.00     0.059 A 
HETATM    5  C   UNL     1      24.572  41.752  49.237  1.00  0.00     0.037 A 
HETATM    6  C   UNL     1      25.037  41.635  47.919  1.00  0.00     0.030 A 
HETATM    7  C   UNL     1      26.295  41.101  47.637  1.00  0.00     0.011 A 
ENDROOT
BRANCH   3   8
HETATM    8  N   UNL     1      27.491  40.269  51.027  1.00  0.00    -0.308 N 
HETATM    9  C   UNL     1      28.423  40.934  51.763  1.00  0.00     0.321 C 
HETATM   10  N   UNL     1      28.418  42.290  51.695  1.00  0.00    -0.336 N 
HETATM   11  O   UNL     1      29.145  40.310  52.540  1.00  0.00    -0.247 OA
HETATM   12  H   UNL     1      27.597  42.739  51.309  1.00  0.00     0.164 HD
HETATM   13  H   UNL     1      27.324  39.344  51.401  1.00  0.00     0.170 HD
BRANCH  10  14
HETATM   14  C   UNL     1      29.133  43.063  52.679  1.00  0.00     0.202 C 
BRANCH  14  15
HETATM   15  C   UNL     1      28.150  43.688  53.610  1.00  0.00     0.121 A 
HETATM   16  N   UNL     1      28.227  44.878  54.181  1.00  0.00    -0.244 NA
HETATM   17  C   UNL     1      27.097  44.997  54.945  1.00  0.00     0.135 A 
HETATM   18  C   UNL     1      26.312  43.876  54.831  1.00  0.00     0.109 A 
HETATM   19  N   UNL     1      26.987  43.053  53.974  1.00  0.00    -0.352 N 
HETATM   20  H   UNL     1      26.687  42.140  53.658  1.00  0.00     0.166 HD
ENDBRANCH  14  15
ENDBRANCH  10  14
ENDBRANCH   3   8
BRANCH   5  21
HETATM   21  N   UNL     1      23.338  42.413  49.372  1.00  0.00    -0.323 N 
HETATM   22  C   UNL     1      22.932  43.703  49.590  1.00  0.00     0.256 C 
HETATM   23  O   UNL     1      21.750  43.983  49.369  1.00  0.00    -0.267 OA
HETATM   24  H   UNL     1      22.524  41.856  49.137  1.00  0.00     0.169 HD
BRANCH  22  25
HETATM   25  C   UNL     1      23.795  44.775  50.106  1.00  0.00     0.032 A 
HETATM   26  C   UNL     1      24.408  44.675  51.357  1.00  0.00     0.017 A 
HETATM   27  C   UNL     1      25.097  45.775  51.873  1.00  0.00     0.001 A 
HETATM   28  C   UNL     1      25.162  46.970  51.156  1.00  0.00     0.000 A 
HETATM   29  C   UNL     1      24.528  47.077  49.919  1.00  0.00     0.001 A 
HETATM   30  C   UNL     1      23.836  45.984  49.399  1.00  0.00     0.017 A 
ENDBRANCH  22  25
ENDBRANCH   5  21
TORSDOF 5
ENDMDL
