MODEL 1
REMARK VINA RESULT:     -10.5      0.000      0.000
REMARK  7 active torsions:
REMARK  status: ('A' for Active; 'I' for Inactive)
REMARK    1  A    between atoms: C_5  and  C_6 
REMARK       I    between atoms: C_6  and  N_7 
REMARK    2  A    between atoms: N_7  and  C_8 
REMARK    3  A    between atoms: C_8  and  C_9 
REMARK    4  A    between atoms: C_9  and  C_10 
REMARK    5  A    between atoms: N_15  and  C_17 
REMARK    6  A    between atoms: C_17  and  C_18 
REMARK    7  A    between atoms: C_21  and  C_22 
ROOT
HETATM    1  C   UNL     1      23.759  46.503  49.575  1.00  0.00     0.131 A 
HETATM    2  N   UNL     1      24.136  45.457  50.386  1.00  0.00    -0.319 N 
HETATM    3  C   UNL     1      23.570  44.334  49.837  1.00  0.00     0.131 A 
HETATM    4  C   UNL     1      23.805  42.929  50.262  1.00  0.00     0.108 C 
HETATM    5  C   UNL     1      25.297  42.626  50.319  1.00  0.00     0.243 C 
HETATM    6  N   UNL     1      25.988  43.183  51.569  1.00  0.00    -0.065 N 
HETATM    7  H   UNL     1      26.015  42.385  52.220  1.00  0.00     0.280 HD
HETATM    8  C   UNL     1      25.263  44.282  52.326  1.00  0.00     0.255 C 
HETATM    9  C   UNL     1      25.030  45.557  51.516  1.00  0.00     0.159 C 
HETATM   10  N   UNL     1      22.847  44.690  48.800  1.00  0.00    -0.135 NA
HETATM   11  N   UNL     1      22.966  46.041  48.637  1.00  0.00    -0.135 NA
ENDROOT
BRANCH   1  12
HETATM   12  C   UNL     1      24.244  47.908  49.676  1.00  0.00     0.100 C 
BRANCH  12  13
HETATM   13  C   UNL     1      23.645  48.747  48.545  1.00  0.00     0.130 C 
BRANCH  13  14
HETATM   14  N   UNL     1      22.274  49.162  48.799  1.00  0.00    -0.360 N 
HETATM   15  C   UNL     1      21.979  50.334  49.454  1.00  0.00     0.223 C 
HETATM   16  O   UNL     1      22.842  51.065  49.934  1.00  0.00    -0.273 OA
HETATM   17  H   UNL     1      21.542  48.614  48.361  1.00  0.00     0.162 HD
BRANCH  15  18
HETATM   18  C   UNL     1      20.496  50.683  49.499  1.00  0.00     0.103 C 
HETATM   19  C   UNL     1      19.683  49.453  49.092  1.00  0.00     0.248 C 
HETATM   20  N   UNL     1      18.201  49.775  49.097  1.00  0.00    -0.074 N 
HETATM   21  C   UNL     1      17.368  48.555  48.792  1.00  0.00     0.269 C 
HETATM   22  H   UNL     1      17.939  50.062  50.050  1.00  0.00     0.279 HD
HETATM   23  C   UNL     1      17.858  50.917  48.170  1.00  0.00     0.234 C 
HETATM   24  C   UNL     1      18.656  52.148  48.576  1.00  0.00     0.029 C 
HETATM   25  C   UNL     1      20.159  51.877  48.599  1.00  0.00     0.017 C 
ENDBRANCH  15  18
ENDBRANCH  13  14
ENDBRANCH  12  13
ENDBRANCH   1  12
BRANCH   6  26
HETATM   26  C   UNL     1      27.452  43.511  51.319  1.00  0.00     0.273 C 
BRANCH  26  27
HETATM   27  C   UNL     1      28.257  43.659  52.578  1.00  0.00    -0.033 A 
HETATM   28  C   UNL     1      29.399  42.874  52.790  1.00  0.00     0.010 A 
HETATM   29  C   UNL     1      30.142  43.006  53.966  1.00  0.00     0.015 A 
HETATM   30  C   UNL     1      29.772  43.924  54.959  1.00  0.00    -0.002 A 
HETATM   31  C   UNL     1      28.630  44.707  54.741  1.00  0.00     0.015 A 
HETATM   32  C   UNL     1      27.877  44.576  53.568  1.00  0.00     0.010 A 
BRANCH  30  33
HETATM   33  C   UNL     1      30.558  44.071  56.181  1.00  0.00     0.085 A 
HETATM   34  O   UNL     1      30.133  45.030  57.059  1.00  0.00    -0.322 OA
HETATM   35  C   UNL     1      30.981  45.018  58.119  1.00  0.00     0.142 A 
HETATM   36  C   UNL     1      31.952  44.063  57.944  1.00  0.00     0.027 A 
HETATM   37  C   UNL     1      31.683  43.452  56.694  1.00  0.00     0.040 A 
ENDBRANCH  30  33
ENDBRANCH  26  27
ENDBRANCH   6  26
TORSDOF 7
ENDMDL
MODEL 2
REMARK VINA RESULT:     -10.3      2.265      3.662
REMARK  7 active torsions:
REMARK  status: ('A' for Active; 'I' for Inactive)
REMARK    1  A    between atoms: C_5  and  C_6 
REMARK       I    between atoms: C_6  and  N_7 
REMARK    2  A    between atoms: N_7  and  C_8 
REMARK    3  A    between atoms: C_8  and  C_9 
REMARK    4  A    between atoms: C_9  and  C_10 
REMARK    5  A    between atoms: N_15  and  C_17 
REMARK    6  A    between atoms: C_17  and  C_18 
REMARK    7  A    between atoms: C_21  and  C_22 
ROOT
HETATM    1  C   UNL     1      23.290  49.384  48.245  1.00  0.00     0.131 A 
HETATM    2  N   UNL     1      24.192  48.460  48.721  1.00  0.00    -0.319 N 
HETATM    3  C   UNL     1      25.435  48.973  48.447  1.00  0.00     0.131 A 
HETATM    4  C   UNL     1      26.738  48.419  48.898  1.00  0.00     0.108 C 
HETATM    5  C   UNL     1      26.734  48.189  50.404  1.00  0.00     0.243 C 
HETATM    6  N   UNL     1      25.980  46.924  50.829  1.00  0.00    -0.065 N 
HETATM    7  H   UNL     1      26.718  46.213  50.934  1.00  0.00     0.280 HD
HETATM    8  C   UNL     1      25.006  46.331  49.825  1.00  0.00     0.255 C 
HETATM    9  C   UNL     1      23.852  47.257  49.445  1.00  0.00     0.159 C 
HETATM   10  N   UNL     1      25.289  50.102  47.792  1.00  0.00    -0.135 NA
HETATM   11  N   UNL     1      23.954  50.358  47.666  1.00  0.00    -0.135 NA
ENDROOT
BRANCH   1  12
HETATM   12  C   UNL     1      21.813  49.345  48.436  1.00  0.00     0.100 C 
BRANCH  12  13
HETATM   13  C   UNL     1      21.339  50.647  49.086  1.00  0.00     0.130 C 
BRANCH  13  14
HETATM   14  N   UNL     1      19.909  50.874  48.944  1.00  0.00    -0.360 N 
HETATM   15  C   UNL     1      19.013  50.503  49.918  1.00  0.00     0.223 C 
HETATM   16  O   UNL     1      19.345  49.890  50.930  1.00  0.00    -0.273 OA
HETATM   17  H   UNL     1      19.612  51.434  48.152  1.00  0.00     0.162 HD
BRANCH  15  18
HETATM   18  C   UNL     1      17.578  50.954  49.670  1.00  0.00     0.103 C 
HETATM   19  C   UNL     1      17.172  50.558  48.249  1.00  0.00     0.248 C 
HETATM   20  N   UNL     1      15.757  51.019  47.958  1.00  0.00    -0.074 N 
HETATM   21  C   UNL     1      15.294  50.561  46.597  1.00  0.00     0.269 C 
HETATM   22  H   UNL     1      15.128  50.567  48.636  1.00  0.00     0.279 HD
HETATM   23  C   UNL     1      15.594  52.513  48.117  1.00  0.00     0.234 C 
HETATM   24  C   UNL     1      15.987  52.911  49.532  1.00  0.00     0.029 C 
HETATM   25  C   UNL     1      17.404  52.461  49.884  1.00  0.00     0.017 C 
ENDBRANCH  15  18
ENDBRANCH  13  14
ENDBRANCH  12  13
ENDBRANCH   1  12
BRANCH   6  26
HETATM   26  C   UNL     1      25.381  47.051  52.222  1.00  0.00     0.273 C 
BRANCH  26  27
HETATM   27  C   UNL     1      26.347  46.718  53.322  1.00  0.00    -0.033 A 
HETATM   28  C   UNL     1      26.640  47.657  54.320  1.00  0.00     0.010 A 
HETATM   29  C   UNL     1      27.546  47.350  55.339  1.00  0.00     0.015 A 
HETATM   30  C   UNL     1      28.179  46.100  55.394  1.00  0.00    -0.002 A 
HETATM   31  C   UNL     1      27.882  45.165  54.394  1.00  0.00     0.015 A 
HETATM   32  C   UNL     1      26.981  45.468  53.366  1.00  0.00     0.010 A 
BRANCH  30  33
HETATM   33  C   UNL     1      29.115  45.776  56.468  1.00  0.00     0.085 A 
HETATM   34  O   UNL     1      30.141  44.933  56.138  1.00  0.00    -0.322 OA
HETATM   35  C   UNL     1      30.894  44.751  57.253  1.00  0.00     0.142 A 
HETATM   36  C   UNL     1      30.373  45.464  58.303  1.00  0.00     0.027 A 
HETATM   37  C   UNL     1      29.224  46.125  57.801  1.00  0.00     0.040 A 
ENDBRANCH  30  33
ENDBRANCH  26  27
ENDBRANCH   6  26
TORSDOF 7
ENDMDL
MODEL 3
REMARK VINA RESULT:     -10.2      2.736     10.926
REMARK  7 active torsions:
REMARK  status: ('A' for Active; 'I' for Inactive)
REMARK    1  A    between atoms: C_5  and  C_6 
REMARK       I    between atoms: C_6  and  N_7 
REMARK    2  A    between atoms: N_7  and  C_8 
REMARK    3  A    between atoms: C_8  and  C_9 
REMARK    4  A    between atoms: C_9  and  C_10 
REMARK    5  A    between atoms: N_15  and  C_17 
REMARK    6  A    between atoms: C_17  and  C_18 
REMARK    7  A    between atoms: C_21  and  C_22 
ROOT
HETATM    1  C   UNL     1      26.096  45.811  49.510  1.00  0.00     0.131 A 
HETATM    2  N   UNL     1      25.572  47.079  49.609  1.00  0.00    -0.319 N 
HETATM    3  C   UNL     1      26.599  47.935  49.300  1.00  0.00     0.131 A 
HETATM    4  C   UNL     1      26.498  49.407  49.122  1.00  0.00     0.108 C 
HETATM    5  C   UNL     1      25.388  49.756  48.137  1.00  0.00     0.243 C 
HETATM    6  N   UNL     1      23.983  49.672  48.742  1.00  0.00    -0.065 N 
HETATM    7  H   UNL     1      23.764  50.643  49.008  1.00  0.00     0.280 HD
HETATM    8  C   UNL     1      23.830  48.871  50.024  1.00  0.00     0.255 C 
HETATM    9  C   UNL     1      24.189  47.391  49.888  1.00  0.00     0.159 C 
HETATM   10  N   UNL     1      27.686  47.230  49.091  1.00  0.00    -0.135 NA
HETATM   11  N   UNL     1      27.373  45.907  49.221  1.00  0.00    -0.135 NA
ENDROOT
BRANCH   1  12
HETATM   12  C   UNL     1      25.332  44.536  49.612  1.00  0.00     0.100 C 
BRANCH  12  13
HETATM   13  C   UNL     1      26.030  43.588  50.591  1.00  0.00     0.130 C 
BRANCH  13  14
HETATM   14  N   UNL     1      26.520  44.254  51.787  1.00  0.00    -0.360 N 
HETATM   15  C   UNL     1      25.736  44.413  52.905  1.00  0.00     0.223 C 
HETATM   16  O   UNL     1      24.555  44.077  52.943  1.00  0.00    -0.273 OA
HETATM   17  H   UNL     1      27.508  44.484  51.809  1.00  0.00     0.162 HD
BRANCH  15  18
HETATM   18  C   UNL     1      26.460  44.995  54.114  1.00  0.00     0.103 C 
HETATM   19  C   UNL     1      26.152  46.491  54.203  1.00  0.00     0.248 C 
HETATM   20  N   UNL     1      26.882  47.109  55.381  1.00  0.00    -0.074 N 
HETATM   21  C   UNL     1      26.523  48.565  55.552  1.00  0.00     0.269 C 
HETATM   22  H   UNL     1      26.561  46.639  56.239  1.00  0.00     0.279 HD
HETATM   23  C   UNL     1      28.378  46.920  55.294  1.00  0.00     0.234 C 
HETATM   24  C   UNL     1      28.691  45.434  55.215  1.00  0.00     0.029 C 
HETATM   25  C   UNL     1      27.972  44.756  54.049  1.00  0.00     0.017 C 
ENDBRANCH  15  18
ENDBRANCH  13  14
ENDBRANCH  12  13
ENDBRANCH   1  12
BRANCH   6  26
HETATM   26  C   UNL     1      22.928  49.322  47.702  1.00  0.00     0.273 C 
BRANCH  26  27
HETATM   27  C   UNL     1      21.565  49.862  48.025  1.00  0.00    -0.033 A 
HETATM   28  C   UNL     1      20.421  49.081  47.815  1.00  0.00     0.010 A 
HETATM   29  C   UNL     1      19.152  49.589  48.107  1.00  0.00     0.015 A 
HETATM   30  C   UNL     1      18.990  50.883  48.621  1.00  0.00    -0.002 A 
HETATM   31  C   UNL     1      20.137  51.659  48.831  1.00  0.00     0.015 A 
HETATM   32  C   UNL     1      21.411  51.160  48.534  1.00  0.00     0.010 A 
BRANCH  30  33
HETATM   33  C   UNL     1      17.663  51.406  48.939  1.00  0.00     0.085 A 
HETATM   34  O   UNL     1      17.631  52.528  49.722  1.00  0.00    -0.322 OA
HETATM   35  C   UNL     1      16.327  52.857  49.909  1.00  0.00     0.142 A 
HETATM   36  C   UNL     1      15.511  51.967  49.258  1.00  0.00     0.027 A 
HETATM   37  C   UNL     1      16.369  51.028  48.633  1.00  0.00     0.040 A 
ENDBRANCH  30  33
ENDBRANCH  26  27
ENDBRANCH   6  26
TORSDOF 7
ENDMDL
MODEL 4
REMARK VINA RESULT:      -9.9      1.476      2.095
REMARK  7 active torsions:
REMARK  status: ('A' for Active; 'I' for Inactive)
REMARK    1  A    between atoms: C_5  and  C_6 
REMARK       I    between atoms: C_6  and  N_7 
REMARK    2  A    between atoms: N_7  and  C_8 
REMARK    3  A    between atoms: C_8  and  C_9 
REMARK    4  A    between atoms: C_9  and  C_10 
REMARK    5  A    between atoms: N_15  and  C_17 
REMARK    6  A    between atoms: C_17  and  C_18 
REMARK    7  A    between atoms: C_21  and  C_22 
ROOT
HETATM    1  C   UNL     1      23.001  43.314  48.441  1.00  0.00     0.131 A 
HETATM    2  N   UNL     1      24.009  42.724  49.169  1.00  0.00    -0.319 N 
HETATM    3  C   UNL     1      24.644  41.867  48.306  1.00  0.00     0.131 A 
HETATM    4  C   UNL     1      25.893  41.108  48.575  1.00  0.00     0.108 C 
HETATM    5  C   UNL     1      26.990  42.037  49.081  1.00  0.00     0.243 C 
HETATM    6  N   UNL     1      26.834  42.421  50.556  1.00  0.00    -0.065 N 
HETATM    7  H   UNL     1      27.452  41.764  51.055  1.00  0.00     0.280 HD
HETATM    8  C   UNL     1      25.464  42.223  51.181  1.00  0.00     0.255 C 
HETATM    9  C   UNL     1      24.352  43.049  50.535  1.00  0.00     0.159 C 
HETATM   10  N   UNL     1      24.019  41.893  47.151  1.00  0.00    -0.135 NA
HETATM   11  N   UNL     1      22.996  42.795  47.235  1.00  0.00    -0.135 NA
ENDROOT
BRANCH   1  12
HETATM   12  C   UNL     1      22.124  44.427  48.901  1.00  0.00     0.100 C 
BRANCH  12  13
HETATM   13  C   UNL     1      22.846  45.765  48.726  1.00  0.00     0.130 C 
BRANCH  13  14
HETATM   14  N   UNL     1      22.029  46.912  49.087  1.00  0.00    -0.360 N 
HETATM   15  C   UNL     1      22.361  48.191  48.708  1.00  0.00     0.223 C 
HETATM   16  O   UNL     1      23.401  48.459  48.111  1.00  0.00    -0.273 OA
HETATM   17  H   UNL     1      21.134  46.716  49.523  1.00  0.00     0.162 HD
BRANCH  15  18
HETATM   18  C   UNL     1      21.315  49.248  49.042  1.00  0.00     0.103 C 
HETATM   19  C   UNL     1      19.927  48.690  48.726  1.00  0.00     0.248 C 
HETATM   20  N   UNL     1      18.861  49.729  49.019  1.00  0.00    -0.074 N 
HETATM   21  C   UNL     1      17.474  49.176  48.806  1.00  0.00     0.269 C 
HETATM   22  H   UNL     1      18.917  49.971  50.018  1.00  0.00     0.279 HD
HETATM   23  C   UNL     1      19.069  51.003  48.234  1.00  0.00     0.234 C 
HETATM   24  C   UNL     1      20.445  51.568  48.552  1.00  0.00     0.029 C 
HETATM   25  C   UNL     1      21.558  50.557  48.284  1.00  0.00     0.017 C 
ENDBRANCH  15  18
ENDBRANCH  13  14
ENDBRANCH  12  13
ENDBRANCH   1  12
BRANCH   6  26
HETATM   26  C   UNL     1      27.424  43.791  50.859  1.00  0.00     0.273 C 
BRANCH  26  27
HETATM   27  C   UNL     1      28.185  43.844  52.152  1.00  0.00    -0.033 A 
HETATM   28  C   UNL     1      29.332  43.061  52.335  1.00  0.00     0.010 A 
HETATM   29  C   UNL     1      30.035  43.105  53.543  1.00  0.00     0.015 A 
HETATM   30  C   UNL     1      29.617  43.931  54.596  1.00  0.00    -0.002 A 
HETATM   31  C   UNL     1      28.470  44.712  54.406  1.00  0.00     0.015 A 
HETATM   32  C   UNL     1      27.757  44.669  53.202  1.00  0.00     0.010 A 
BRANCH  30  33
HETATM   33  C   UNL     1      30.362  43.985  55.852  1.00  0.00     0.085 A 
HETATM   34  O   UNL     1      30.064  45.031  56.683  1.00  0.00    -0.322 OA
HETATM   35  C   UNL     1      30.849  44.913  57.784  1.00  0.00     0.142 A 
HETATM   36  C   UNL     1      31.653  43.805  57.682  1.00  0.00     0.027 A 
HETATM   37  C   UNL     1      31.343  43.206  56.436  1.00  0.00     0.040 A 
ENDBRANCH  30  33
ENDBRANCH  26  27
ENDBRANCH   6  26
TORSDOF 7
ENDMDL
MODEL 5
REMARK VINA RESULT:      -9.8      2.254      3.292
REMARK  7 active torsions:
REMARK  status: ('A' for Active; 'I' for Inactive)
REMARK    1  A    between atoms: C_5  and  C_6 
REMARK       I    between atoms: C_6  and  N_7 
REMARK    2  A    between atoms: N_7  and  C_8 
REMARK    3  A    between atoms: C_8  and  C_9 
REMARK    4  A    between atoms: C_9  and  C_10 
REMARK    5  A    between atoms: N_15  and  C_17 
REMARK    6  A    between atoms: C_17  and  C_18 
REMARK    7  A    between atoms: C_21  and  C_22 
ROOT
HETATM    1  C   UNL     1      22.674  46.177  48.735  1.00  0.00     0.131 A 
HETATM    2  N   UNL     1      24.000  46.135  49.100  1.00  0.00    -0.319 N 
HETATM    3  C   UNL     1      24.332  47.418  49.454  1.00  0.00     0.131 A 
HETATM    4  C   UNL     1      25.613  47.862  50.064  1.00  0.00     0.108 C 
HETATM    5  C   UNL     1      25.948  47.019  51.288  1.00  0.00     0.243 C 
HETATM    6  N   UNL     1      26.520  45.639  50.944  1.00  0.00    -0.065 N 
HETATM    7  H   UNL     1      27.540  45.765  51.013  1.00  0.00     0.280 HD
HETATM    8  C   UNL     1      26.282  45.125  49.535  1.00  0.00     0.255 C 
HETATM    9  C   UNL     1      24.808  44.940  49.173  1.00  0.00     0.159 C 
HETATM   10  N   UNL     1      23.291  48.193  49.255  1.00  0.00    -0.135 NA
HETATM   11  N   UNL     1      22.258  47.420  48.808  1.00  0.00    -0.135 NA
ENDROOT
BRANCH   1  12
HETATM   12  C   UNL     1      21.818  45.002  48.408  1.00  0.00     0.100 C 
BRANCH  12  13
HETATM   13  C   UNL     1      20.929  45.325  47.205  1.00  0.00     0.130 C 
BRANCH  13  14
HETATM   14  N   UNL     1      19.872  46.277  47.509  1.00  0.00    -0.360 N 
HETATM   15  C   UNL     1      18.672  45.883  48.051  1.00  0.00     0.223 C 
HETATM   16  O   UNL     1      18.382  44.704  48.241  1.00  0.00    -0.273 OA
HETATM   17  H   UNL     1      20.105  47.261  47.424  1.00  0.00     0.162 HD
BRANCH  15  18
HETATM   18  C   UNL     1      17.743  47.026  48.445  1.00  0.00     0.103 C 
HETATM   19  C   UNL     1      16.753  47.276  47.306  1.00  0.00     0.248 C 
HETATM   20  N   UNL     1      15.831  48.430  47.653  1.00  0.00    -0.074 N 
HETATM   21  C   UNL     1      14.780  48.638  46.590  1.00  0.00     0.269 C 
HETATM   22  H   UNL     1      15.317  48.182  48.510  1.00  0.00     0.279 HD
HETATM   23  C   UNL     1      16.588  49.706  47.933  1.00  0.00     0.234 C 
HETATM   24  C   UNL     1      17.569  49.467  49.071  1.00  0.00     0.029 C 
HETATM   25  C   UNL     1      18.517  48.306  48.779  1.00  0.00     0.017 C 
ENDBRANCH  15  18
ENDBRANCH  13  14
ENDBRANCH  12  13
ENDBRANCH   1  12
BRANCH   6  26
HETATM   26  C   UNL     1      26.199  44.601  52.010  1.00  0.00     0.273 C 
BRANCH  26  27
HETATM   27  C   UNL     1      27.263  44.473  53.062  1.00  0.00    -0.033 A 
HETATM   28  C   UNL     1      27.156  45.172  54.271  1.00  0.00     0.010 A 
HETATM   29  C   UNL     1      28.151  45.059  55.246  1.00  0.00     0.015 A 
HETATM   30  C   UNL     1      29.274  44.244  55.045  1.00  0.00    -0.002 A 
HETATM   31  C   UNL     1      29.375  43.547  53.834  1.00  0.00     0.015 A 
HETATM   32  C   UNL     1      28.386  43.660  52.850  1.00  0.00     0.010 A 
BRANCH  30  33
HETATM   33  C   UNL     1      30.306  44.116  56.071  1.00  0.00     0.085 A 
HETATM   34  O   UNL     1      30.285  45.056  57.065  1.00  0.00    -0.322 OA
HETATM   35  C   UNL     1      31.308  44.776  57.913  1.00  0.00     0.142 A 
HETATM   36  C   UNL     1      31.994  43.667  57.484  1.00  0.00     0.027 A 
HETATM   37  C   UNL     1      31.351  43.240  56.295  1.00  0.00     0.040 A 
ENDBRANCH  30  33
ENDBRANCH  26  27
ENDBRANCH   6  26
TORSDOF 7
ENDMDL
MODEL 6
REMARK VINA RESULT:      -9.7      1.867      2.836
REMARK  7 active torsions:
REMARK  status: ('A' for Active; 'I' for Inactive)
REMARK    1  A    between atoms: C_5  and  C_6 
REMARK       I    between atoms: C_6  and  N_7 
REMARK    2  A    between atoms: N_7  and  C_8 
REMARK    3  A    between atoms: C_8  and  C_9 
REMARK    4  A    between atoms: C_9  and  C_10 
REMARK    5  A    between atoms: N_15  and  C_17 
REMARK    6  A    between atoms: C_17  and  C_18 
REMARK    7  A    between atoms: C_21  and  C_22 
ROOT
HETATM    1  C   UNL     1      22.796  47.262  48.797  1.00  0.00     0.131 A 
HETATM    2  N   UNL     1      24.087  46.894  49.098  1.00  0.00    -0.319 N 
HETATM    3  C   UNL     1      24.789  48.065  49.231  1.00  0.00     0.131 A 
HETATM    4  C   UNL     1      26.193  48.204  49.701  1.00  0.00     0.108 C 
HETATM    5  C   UNL     1      26.394  47.475  51.023  1.00  0.00     0.243 C 
HETATM    6  N   UNL     1      26.532  45.956  50.871  1.00  0.00    -0.065 N 
HETATM    7  H   UNL     1      27.549  45.793  50.868  1.00  0.00     0.280 HD
HETATM    8  C   UNL     1      26.034  45.344  49.573  1.00  0.00     0.255 C 
HETATM    9  C   UNL     1      24.540  45.539  49.317  1.00  0.00     0.159 C 
HETATM   10  N   UNL     1      23.988  49.070  48.966  1.00  0.00    -0.135 NA
HETATM   11  N   UNL     1      22.745  48.570  48.696  1.00  0.00    -0.135 NA
ENDROOT
BRANCH   1  12
HETATM   12  C   UNL     1      21.624  46.347  48.700  1.00  0.00     0.100 C 
BRANCH  12  13
HETATM   13  C   UNL     1      20.622  46.892  47.679  1.00  0.00     0.130 C 
BRANCH  13  14
HETATM   14  N   UNL     1      20.138  48.224  48.003  1.00  0.00    -0.360 N 
HETATM   15  C   UNL     1      19.069  48.426  48.843  1.00  0.00     0.223 C 
HETATM   16  O   UNL     1      18.408  47.503  49.313  1.00  0.00    -0.273 OA
HETATM   17  H   UNL     1      20.701  49.005  47.683  1.00  0.00     0.162 HD
BRANCH  15  18
HETATM   18  C   UNL     1      18.796  49.885  49.189  1.00  0.00     0.103 C 
HETATM   19  C   UNL     1      17.306  50.171  48.996  1.00  0.00     0.248 C 
HETATM   20  N   UNL     1      17.003  51.625  49.302  1.00  0.00    -0.074 N 
HETATM   21  C   UNL     1      15.525  51.915  49.213  1.00  0.00     0.269 C 
HETATM   22  H   UNL     1      17.265  51.806  50.282  1.00  0.00     0.279 HD
HETATM   23  C   UNL     1      17.801  52.573  48.439  1.00  0.00     0.234 C 
HETATM   24  C   UNL     1      19.284  52.301  48.634  1.00  0.00     0.029 C 
HETATM   25  C   UNL     1      19.645  50.844  48.348  1.00  0.00     0.017 C 
ENDBRANCH  15  18
ENDBRANCH  13  14
ENDBRANCH  12  13
ENDBRANCH   1  12
BRANCH   6  26
HETATM   26  C   UNL     1      26.037  45.207  52.099  1.00  0.00     0.273 C 
BRANCH  26  27
HETATM   27  C   UNL     1      27.090  45.021  53.153  1.00  0.00    -0.033 A 
HETATM   28  C   UNL     1      27.980  43.941  53.086  1.00  0.00     0.010 A 
HETATM   29  C   UNL     1      28.955  43.763  54.073  1.00  0.00     0.015 A 
HETATM   30  C   UNL     1      29.071  44.657  55.146  1.00  0.00    -0.002 A 
HETATM   31  C   UNL     1      28.179  45.736  55.207  1.00  0.00     0.015 A 
HETATM   32  C   UNL     1      27.197  45.916  54.227  1.00  0.00     0.010 A 
BRANCH  30  33
HETATM   33  C   UNL     1      30.100  44.478  56.168  1.00  0.00     0.085 A 
HETATM   34  O   UNL     1      30.926  43.399  56.007  1.00  0.00    -0.322 OA
HETATM   35  C   UNL     1      31.803  43.398  57.043  1.00  0.00     0.142 A 
HETATM   36  C   UNL     1      31.560  44.462  57.876  1.00  0.00     0.027 A 
HETATM   37  C   UNL     1      30.461  45.159  57.315  1.00  0.00     0.040 A 
ENDBRANCH  30  33
ENDBRANCH  26  27
ENDBRANCH   6  26
TORSDOF 7
ENDMDL
MODEL 7
REMARK VINA RESULT:      -9.2      3.773     12.780
REMARK  7 active torsions:
REMARK  status: ('A' for Active; 'I' for Inactive)
REMARK    1  A    between atoms: C_5  and  C_6 
REMARK       I    between atoms: C_6  and  N_7 
REMARK    2  A    between atoms: N_7  and  C_8 
REMARK    3  A    between atoms: C_8  and  C_9 
REMARK    4  A    between atoms: C_9  and  C_10 
REMARK    5  A    between atoms: N_15  and  C_17 
REMARK    6  A    between atoms: C_17  and  C_18 
REMARK    7  A    between atoms: C_21  and  C_22 
ROOT
HETATM    1  C   UNL     1      21.548  47.302  48.095  1.00  0.00     0.131 A 
HETATM    2  N   UNL     1      20.982  48.368  48.756  1.00  0.00    -0.319 N 
HETATM    3  C   UNL     1      21.868  49.407  48.619  1.00  0.00     0.131 A 
HETATM    4  C   UNL     1      21.644  50.818  49.031  1.00  0.00     0.108 C 
HETATM    5  C   UNL     1      20.332  51.344  48.462  1.00  0.00     0.243 C 
HETATM    6  N   UNL     1      19.095  50.861  49.226  1.00  0.00    -0.065 N 
HETATM    7  H   UNL     1      18.880  51.634  49.873  1.00  0.00     0.280 HD
HETATM    8  C   UNL     1      19.265  49.641  50.115  1.00  0.00     0.255 C 
HETATM    9  C   UNL     1      19.674  48.371  49.370  1.00  0.00     0.159 C 
HETATM   10  N   UNL     1      22.926  48.977  47.972  1.00  0.00    -0.135 NA
HETATM   11  N   UNL     1      22.727  47.666  47.645  1.00  0.00    -0.135 NA
ENDROOT
BRANCH   1  12
HETATM   12  C   UNL     1      20.900  45.986  47.840  1.00  0.00     0.100 C 
BRANCH  12  13
HETATM   13  C   UNL     1      21.499  44.923  48.765  1.00  0.00     0.130 C 
BRANCH  13  14
HETATM   14  N   UNL     1      22.657  45.393  49.508  1.00  0.00    -0.360 N 
HETATM   15  C   UNL     1      23.511  44.528  50.149  1.00  0.00     0.223 C 
HETATM   16  O   UNL     1      23.314  43.316  50.203  1.00  0.00    -0.273 OA
HETATM   17  H   UNL     1      22.881  46.380  49.428  1.00  0.00     0.162 HD
BRANCH  15  18
HETATM   18  C   UNL     1      24.751  45.181  50.748  1.00  0.00     0.103 C 
HETATM   19  C   UNL     1      24.838  44.814  52.231  1.00  0.00     0.248 C 
HETATM   20  N   UNL     1      26.046  45.474  52.867  1.00  0.00    -0.074 N 
HETATM   21  C   UNL     1      26.213  45.055  54.307  1.00  0.00     0.269 C 
HETATM   22  H   UNL     1      26.888  45.139  52.378  1.00  0.00     0.279 HD
HETATM   23  C   UNL     1      26.017  46.979  52.735  1.00  0.00     0.234 C 
HETATM   24  C   UNL     1      25.940  47.350  51.261  1.00  0.00     0.029 C 
HETATM   25  C   UNL     1      24.744  46.703  50.567  1.00  0.00     0.017 C 
ENDBRANCH  15  18
ENDBRANCH  13  14
ENDBRANCH  12  13
ENDBRANCH   1  12
BRANCH   6  26
HETATM   26  C   UNL     1      17.866  50.769  48.333  1.00  0.00     0.273 C 
BRANCH  26  27
HETATM   27  C   UNL     1      16.794  51.760  48.685  1.00  0.00    -0.033 A 
HETATM   28  C   UNL     1      15.843  52.147  47.732  1.00  0.00     0.010 A 
HETATM   29  C   UNL     1      14.850  53.076  48.057  1.00  0.00     0.015 A 
HETATM   30  C   UNL     1      14.777  53.640  49.339  1.00  0.00    -0.002 A 
HETATM   31  C   UNL     1      15.731  53.249  50.287  1.00  0.00     0.015 A 
HETATM   32  C   UNL     1      16.731  52.324  49.967  1.00  0.00     0.010 A 
BRANCH  30  33
HETATM   33  C   UNL     1      13.731  54.600  49.680  1.00  0.00     0.085 A 
HETATM   34  O   UNL     1      12.745  54.145  50.514  1.00  0.00    -0.322 OA
HETATM   35  C   UNL     1      11.874  55.168  50.712  1.00  0.00     0.142 A 
HETATM   36  C   UNL     1      12.279  56.282  50.019  1.00  0.00     0.027 A 
HETATM   37  C   UNL     1      13.475  55.919  49.352  1.00  0.00     0.040 A 
ENDBRANCH  30  33
ENDBRANCH  26  27
ENDBRANCH   6  26
TORSDOF 7
ENDMDL
MODEL 8
REMARK VINA RESULT:      -9.1     12.079     13.771
REMARK  7 active torsions:
REMARK  status: ('A' for Active; 'I' for Inactive)
REMARK    1  A    between atoms: C_5  and  C_6 
REMARK       I    between atoms: C_6  and  N_7 
REMARK    2  A    between atoms: N_7  and  C_8 
REMARK    3  A    between atoms: C_8  and  C_9 
REMARK    4  A    between atoms: C_9  and  C_10 
REMARK    5  A    between atoms: N_15  and  C_17 
REMARK    6  A    between atoms: C_17  and  C_18 
REMARK    7  A    between atoms: C_21  and  C_22 
ROOT
HETATM    1  C   UNL     1      28.014  48.169  40.117  1.00  0.00     0.131 A 
HETATM    2  N   UNL     1      29.180  48.084  40.843  1.00  0.00    -0.319 N 
HETATM    3  C   UNL     1      30.136  47.635  39.968  1.00  0.00     0.131 A 
HETATM    4  C   UNL     1      31.594  47.522  40.234  1.00  0.00     0.108 C 
HETATM    5  C   UNL     1      32.146  48.834  40.777  1.00  0.00     0.243 C 
HETATM    6  N   UNL     1      31.831  49.064  42.259  1.00  0.00    -0.065 N 
HETATM    7  H   UNL     1      32.680  48.748  42.750  1.00  0.00     0.280 HD
HETATM    8  C   UNL     1      30.702  48.246  42.861  1.00  0.00     0.255 C 
HETATM    9  C   UNL     1      29.336  48.490  42.221  1.00  0.00     0.159 C 
HETATM   10  N   UNL     1      29.568  47.405  38.806  1.00  0.00    -0.135 NA
HETATM   11  N   UNL     1      28.247  47.738  38.899  1.00  0.00    -0.135 NA
ENDROOT
BRANCH   1  12
HETATM   12  C   UNL     1      26.725  48.745  40.593  1.00  0.00     0.100 C 
BRANCH  12  13
HETATM   13  C   UNL     1      26.509  50.125  39.965  1.00  0.00     0.130 C 
BRANCH  13  14
HETATM   14  N   UNL     1      27.710  50.945  39.951  1.00  0.00    -0.360 N 
HETATM   15  C   UNL     1      28.255  51.416  38.780  1.00  0.00     0.223 C 
HETATM   16  O   UNL     1      27.816  51.116  37.673  1.00  0.00    -0.273 OA
HETATM   17  H   UNL     1      28.057  51.263  40.850  1.00  0.00     0.162 HD
BRANCH  15  18
HETATM   18  C   UNL     1      29.420  52.383  38.963  1.00  0.00     0.103 C 
HETATM   19  C   UNL     1      30.731  51.599  38.885  1.00  0.00     0.248 C 
HETATM   20  N   UNL     1      31.913  52.528  39.093  1.00  0.00    -0.074 N 
HETATM   21  C   UNL     1      33.225  51.801  38.927  1.00  0.00     0.269 C 
HETATM   22  H   UNL     1      31.893  53.242  38.352  1.00  0.00     0.279 HD
HETATM   23  C   UNL     1      31.851  53.250  40.418  1.00  0.00     0.234 C 
HETATM   24  C   UNL     1      30.553  54.039  40.497  1.00  0.00     0.029 C 
HETATM   25  C   UNL     1      29.327  53.153  40.284  1.00  0.00     0.017 C 
ENDBRANCH  15  18
ENDBRANCH  13  14
ENDBRANCH  12  13
ENDBRANCH   1  12
BRANCH   6  26
HETATM   26  C   UNL     1      31.730  50.543  42.603  1.00  0.00     0.273 C 
BRANCH  26  27
HETATM   27  C   UNL     1      33.027  51.141  43.068  1.00  0.00    -0.033 A 
HETATM   28  C   UNL     1      34.188  51.015  42.293  1.00  0.00     0.010 A 
HETATM   29  C   UNL     1      35.396  51.564  42.732  1.00  0.00     0.015 A 
HETATM   30  C   UNL     1      35.479  52.255  43.949  1.00  0.00    -0.002 A 
HETATM   31  C   UNL     1      34.316  52.378  44.719  1.00  0.00     0.015 A 
HETATM   32  C   UNL     1      33.103  51.825  44.289  1.00  0.00     0.010 A 
BRANCH  30  33
HETATM   33  C   UNL     1      36.741  52.840  44.399  1.00  0.00     0.085 A 
HETATM   34  O   UNL     1      37.338  52.231  45.469  1.00  0.00    -0.322 OA
HETATM   35  C   UNL     1      38.483  52.910  45.737  1.00  0.00     0.142 A 
HETATM   36  C   UNL     1      38.639  53.952  44.856  1.00  0.00     0.027 A 
HETATM   37  C   UNL     1      37.516  53.910  43.993  1.00  0.00     0.040 A 
ENDBRANCH  30  33
ENDBRANCH  26  27
ENDBRANCH   6  26
TORSDOF 7
ENDMDL
MODEL 9
REMARK VINA RESULT:      -8.9      3.525     12.141
REMARK  7 active torsions:
REMARK  status: ('A' for Active; 'I' for Inactive)
REMARK    1  A    between atoms: C_5  and  C_6 
REMARK       I    between atoms: C_6  and  N_7 
REMARK    2  A    between atoms: N_7  and  C_8 
REMARK    3  A    between atoms: C_8  and  C_9 
REMARK    4  A    between atoms: C_9  and  C_10 
REMARK    5  A    between atoms: N_15  and  C_17 
REMARK    6  A    between atoms: C_17  and  C_18 
REMARK    7  A    between atoms: C_21  and  C_22 
ROOT
HETATM    1  C   UNL     1      21.283  47.423  48.203  1.00  0.00     0.131 A 
HETATM    2  N   UNL     1      20.690  48.367  49.011  1.00  0.00    -0.319 N 
HETATM    3  C   UNL     1      21.491  49.479  48.938  1.00  0.00     0.131 A 
HETATM    4  C   UNL     1      21.198  50.817  49.516  1.00  0.00     0.108 C 
HETATM    5  C   UNL     1      19.818  51.299  49.088  1.00  0.00     0.243 C 
HETATM    6  N   UNL     1      18.671  50.645  49.867  1.00  0.00    -0.065 N 
HETATM    7  H   UNL     1      18.448  51.326  50.607  1.00  0.00     0.280 HD
HETATM    8  C   UNL     1      18.985  49.354  50.603  1.00  0.00     0.255 C 
HETATM    9  C   UNL     1      19.430  48.205  49.698  1.00  0.00     0.159 C 
HETATM   10  N   UNL     1      22.530  49.201  48.185  1.00  0.00    -0.135 NA
HETATM   11  N   UNL     1      22.400  47.921  47.727  1.00  0.00    -0.135 NA
ENDROOT
BRANCH   1  12
HETATM   12  C   UNL     1      20.711  46.096  47.843  1.00  0.00     0.100 C 
BRANCH  12  13
HETATM   13  C   UNL     1      21.463  44.987  48.583  1.00  0.00     0.130 C 
BRANCH  13  14
HETATM   14  N   UNL     1      22.662  45.457  49.259  1.00  0.00    -0.360 N 
HETATM   15  C   UNL     1      23.328  44.684  50.180  1.00  0.00     0.223 C 
HETATM   16  O   UNL     1      22.917  43.587  50.550  1.00  0.00    -0.273 OA
HETATM   17  H   UNL     1      23.060  46.330  48.929  1.00  0.00     0.162 HD
BRANCH  15  18
HETATM   18  C   UNL     1      24.645  45.272  50.674  1.00  0.00     0.103 C 
HETATM   19  C   UNL     1      24.808  44.947  52.160  1.00  0.00     0.248 C 
HETATM   20  N   UNL     1      26.096  45.545  52.692  1.00  0.00    -0.074 N 
HETATM   21  C   UNL     1      26.332  45.161  54.132  1.00  0.00     0.269 C 
HETATM   22  H   UNL     1      26.880  45.140  52.161  1.00  0.00     0.279 HD
HETATM   23  C   UNL     1      26.154  47.043  52.508  1.00  0.00     0.234 C 
HETATM   24  C   UNL     1      26.002  47.373  51.031  1.00  0.00     0.029 C 
HETATM   25  C   UNL     1      24.723  46.785  50.439  1.00  0.00     0.017 C 
ENDBRANCH  15  18
ENDBRANCH  13  14
ENDBRANCH  12  13
ENDBRANCH   1  12
BRANCH   6  26
HETATM   26  C   UNL     1      17.395  50.555  49.044  1.00  0.00     0.273 C 
BRANCH  26  27
HETATM   27  C   UNL     1      17.611  50.777  47.574  1.00  0.00    -0.033 A 
HETATM   28  C   UNL     1      17.255  51.993  46.978  1.00  0.00     0.010 A 
HETATM   29  C   UNL     1      17.450  52.195  45.608  1.00  0.00     0.015 A 
HETATM   30  C   UNL     1      18.006  51.194  44.799  1.00  0.00    -0.002 A 
HETATM   31  C   UNL     1      18.362  49.980  45.402  1.00  0.00     0.015 A 
HETATM   32  C   UNL     1      18.164  49.769  46.771  1.00  0.00     0.010 A 
BRANCH  30  33
HETATM   33  C   UNL     1      18.222  51.413  43.371  1.00  0.00     0.085 A 
HETATM   34  O   UNL     1      17.513  52.438  42.806  1.00  0.00    -0.322 OA
HETATM   35  C   UNL     1      17.841  52.483  41.489  1.00  0.00     0.142 A 
HETATM   36  C   UNL     1      18.753  51.501  41.189  1.00  0.00     0.027 A 
HETATM   37  C   UNL     1      18.999  50.808  42.401  1.00  0.00     0.040 A 
ENDBRANCH  30  33
ENDBRANCH  26  27
ENDBRANCH   6  26
TORSDOF 7
ENDMDL
MODEL 10
REMARK VINA RESULT:      -8.7      2.346      3.797
REMARK  7 active torsions:
REMARK  status: ('A' for Active; 'I' for Inactive)
REMARK    1  A    between atoms: C_5  and  C_6 
REMARK       I    between atoms: C_6  and  N_7 
REMARK    2  A    between atoms: N_7  and  C_8 
REMARK    3  A    between atoms: C_8  and  C_9 
REMARK    4  A    between atoms: C_9  and  C_10 
REMARK    5  A    between atoms: N_15  and  C_17 
REMARK    6  A    between atoms: C_17  and  C_18 
REMARK    7  A    between atoms: C_21  and  C_22 
ROOT
HETATM    1  C   UNL     1      21.977  47.621  48.822  1.00  0.00     0.131 A 
HETATM    2  N   UNL     1      23.252  47.140  49.018  1.00  0.00    -0.319 N 
HETATM    3  C   UNL     1      24.062  48.244  49.091  1.00  0.00     0.131 A 
HETATM    4  C   UNL     1      25.507  48.258  49.444  1.00  0.00     0.108 C 
HETATM    5  C   UNL     1      25.749  47.508  50.748  1.00  0.00     0.243 C 
HETATM    6  N   UNL     1      25.741  45.984  50.589  1.00  0.00    -0.065 N 
HETATM    7  H   UNL     1      26.736  45.733  50.505  1.00  0.00     0.280 HD
HETATM    8  C   UNL     1      25.087  45.424  49.338  1.00  0.00     0.255 C 
HETATM    9  C   UNL     1      23.600  45.750  49.204  1.00  0.00     0.159 C 
HETATM   10  N   UNL     1      23.333  49.317  48.888  1.00  0.00    -0.135 NA
HETATM   11  N   UNL     1      22.034  48.928  48.721  1.00  0.00    -0.135 NA
ENDROOT
BRANCH   1  12
HETATM   12  C   UNL     1      20.727  46.812  48.822  1.00  0.00     0.100 C 
BRANCH  12  13
HETATM   13  C   UNL     1      19.554  47.668  49.308  1.00  0.00     0.130 C 
BRANCH  13  14
HETATM   14  N   UNL     1      18.734  48.189  48.227  1.00  0.00    -0.360 N 
HETATM   15  C   UNL     1      17.632  47.514  47.759  1.00  0.00     0.223 C 
HETATM   16  O   UNL     1      17.312  46.399  48.165  1.00  0.00    -0.273 OA
HETATM   17  H   UNL     1      18.934  49.134  47.916  1.00  0.00     0.162 HD
BRANCH  15  18
HETATM   18  C   UNL     1      16.805  48.277  46.730  1.00  0.00     0.103 C 
HETATM   19  C   UNL     1      17.560  49.546  46.330  1.00  0.00     0.248 C 
HETATM   20  N   UNL     1      16.750  50.346  45.327  1.00  0.00    -0.074 N 
HETATM   21  C   UNL     1      17.509  51.556  44.841  1.00  0.00     0.269 C 
HETATM   22  H   UNL     1      16.599  49.757  44.496  1.00  0.00     0.279 HD
HETATM   23  C   UNL     1      15.391  50.731  45.861  1.00  0.00     0.234 C 
HETATM   24  C   UNL     1      14.632  49.471  46.251  1.00  0.00     0.029 C 
HETATM   25  C   UNL     1      15.407  48.620  47.255  1.00  0.00     0.017 C 
ENDBRANCH  15  18
ENDBRANCH  13  14
ENDBRANCH  12  13
ENDBRANCH   1  12
BRANCH   6  26
HETATM   26  C   UNL     1      25.283  45.276  51.856  1.00  0.00     0.273 C 
BRANCH  26  27
HETATM   27  C   UNL     1      26.312  45.278  52.950  1.00  0.00    -0.033 A 
HETATM   28  C   UNL     1      27.273  44.261  53.025  1.00  0.00     0.010 A 
HETATM   29  C   UNL     1      28.225  44.259  54.048  1.00  0.00     0.015 A 
HETATM   30  C   UNL     1      28.248  45.271  55.019  1.00  0.00    -0.002 A 
HETATM   31  C   UNL     1      27.286  46.286  54.938  1.00  0.00     0.015 A 
HETATM   32  C   UNL     1      26.326  46.290  53.919  1.00  0.00     0.010 A 
BRANCH  30  33
HETATM   33  C   UNL     1      29.253  45.274  56.079  1.00  0.00     0.085 A 
HETATM   34  O   UNL     1      30.260  44.356  55.957  1.00  0.00    -0.322 OA
HETATM   35  C   UNL     1      31.084  44.510  57.025  1.00  0.00     0.142 A 
HETATM   36  C   UNL     1      30.629  45.516  57.840  1.00  0.00     0.027 A 
HETATM   37  C   UNL     1      29.447  46.010  57.233  1.00  0.00     0.040 A 
ENDBRANCH  30  33
ENDBRANCH  26  27
ENDBRANCH   6  26
TORSDOF 7
ENDMDL
