MODEL 1
REMARK VINA RESULT:      -9.0      0.000      0.000
REMARK  7 active torsions:
REMARK  status: ('A' for Active; 'I' for Inactive)
REMARK    1  A    between atoms: C_4  and  C_5 
REMARK    2  A    between atoms: C_7  and  C_8 
REMARK    3  A    between atoms: C_8  and  N_9 
REMARK       I    between atoms: N_9  and  C_10 
REMARK       I    between atoms: C_10  and  N_11 
REMARK    4  A    between atoms: N_11  and  C_12 
REMARK    5  A    between atoms: C_14  and  O_15 
REMARK    6  A    between atoms: O_15  and  C_16 
REMARK    7  A    between atoms: C_16  and  C_17 
ROOT
HETATM    1  N   UNL     1      26.209  44.631  51.295  1.00  0.00    -0.339 N 
HETATM    2  C   UNL     1      25.446  43.840  52.103  1.00  0.00     0.320 C 
HETATM    3  N   UNL     1      25.915  43.597  53.357  1.00  0.00    -0.309 N 
HETATM    4  O   UNL     1      24.343  43.411  51.776  1.00  0.00    -0.247 OA
HETATM    5  H   UNL     1      26.692  45.346  51.818  1.00  0.00     0.164 HD
HETATM    6  H   UNL     1      25.185  43.219  53.949  1.00  0.00     0.170 HD
ENDROOT
BRANCH   1   7
HETATM    7  C   UNL     1      25.674  45.034  50.011  1.00  0.00     0.162 C 
BRANCH   7   8
HETATM    8  C   UNL     1      25.827  46.499  49.678  1.00  0.00    -0.040 A 
HETATM    9  C   UNL     1      24.749  47.344  49.372  1.00  0.00     0.024 A 
HETATM   10  C   UNL     1      24.951  48.689  49.014  1.00  0.00     0.014 A 
HETATM   11  C   UNL     1      26.257  49.188  48.956  1.00  0.00     0.015 A 
HETATM   12  C   UNL     1      27.340  48.363  49.255  1.00  0.00     0.002 A 
HETATM   13  C   UNL     1      27.125  47.030  49.608  1.00  0.00     0.009 A 
BRANCH  10  14
HETATM   14  C   UNL     1      23.817  49.555  48.707  1.00  0.00     0.181 A 
HETATM   15  N   UNL     1      22.813  49.816  49.615  1.00  0.00    -0.212 NA
HETATM   16  C   UNL     1      21.996  50.614  48.964  1.00  0.00     0.118 A 
HETATM   17  C   UNL     1      20.750  51.235  49.456  1.00  0.00     0.093 C 
HETATM   18  N   UNL     1      22.480  50.807  47.703  1.00  0.00    -0.263 N 
HETATM   19  N   UNL     1      23.645  50.167  47.524  1.00  0.00    -0.152 NA
HETATM   20  H   UNL     1      22.085  51.342  46.938  1.00  0.00     0.190 HD
ENDBRANCH  10  14
ENDBRANCH   7   8
ENDBRANCH   1   7
BRANCH   3  21
HETATM   21  C   UNL     1      27.196  43.695  53.930  1.00  0.00     0.039 A 
HETATM   22  C   UNL     1      27.658  44.815  54.635  1.00  0.00     0.066 A 
HETATM   23  C   UNL     1      28.965  44.845  55.135  1.00  0.00     0.070 A 
HETATM   24  C   UNL     1      29.806  43.749  54.934  1.00  0.00     0.037 A 
HETATM   25  C   UNL     1      29.362  42.639  54.222  1.00  0.00     0.005 A 
HETATM   26  C   UNL     1      28.065  42.620  53.712  1.00  0.00     0.030 A 
BRANCH  23  27
HETATM   27  O   UNL     1      29.545  45.882  55.814  1.00  0.00    -0.349 OA
BRANCH  27  28
HETATM   28  C   UNL     1      30.557  45.557  56.771  1.00  0.00     0.207 C 
BRANCH  28  29
HETATM   29  C   UNL     1      30.095  46.025  58.143  1.00  0.00     0.248 C 
HETATM   30  F   UNL     1      28.735  46.131  58.159  1.00  0.00    -0.253 F 
ENDBRANCH  28  29
ENDBRANCH  27  28
ENDBRANCH  23  27
ENDBRANCH   3  21
TORSDOF 7
ENDMDL
MODEL 2
REMARK VINA RESULT:      -8.7      2.590      3.952
REMARK  7 active torsions:
REMARK  status: ('A' for Active; 'I' for Inactive)
REMARK    1  A    between atoms: C_4  and  C_5 
REMARK    2  A    between atoms: C_7  and  C_8 
REMARK    3  A    between atoms: C_8  and  N_9 
REMARK       I    between atoms: N_9  and  C_10 
REMARK       I    between atoms: C_10  and  N_11 
REMARK    4  A    between atoms: N_11  and  C_12 
REMARK    5  A    between atoms: C_14  and  O_15 
REMARK    6  A    between atoms: O_15  and  C_16 
REMARK    7  A    between atoms: C_16  and  C_17 
ROOT
HETATM    1  N   UNL     1      27.187  46.033  54.692  1.00  0.00    -0.339 N 
HETATM    2  C   UNL     1      27.534  46.881  55.702  1.00  0.00     0.320 C 
HETATM    3  N   UNL     1      28.745  46.685  56.291  1.00  0.00    -0.309 N 
HETATM    4  O   UNL     1      26.845  47.840  56.041  1.00  0.00    -0.247 OA
HETATM    5  H   UNL     1      27.988  45.745  54.151  1.00  0.00     0.164 HD
HETATM    6  H   UNL     1      29.014  47.491  56.842  1.00  0.00     0.170 HD
ENDROOT
BRANCH   1   7
HETATM    7  C   UNL     1      25.977  46.301  53.944  1.00  0.00     0.162 C 
BRANCH   7   8
HETATM    8  C   UNL     1      26.128  46.276  52.441  1.00  0.00    -0.040 A 
HETATM    9  C   UNL     1      25.820  47.363  51.609  1.00  0.00     0.024 A 
HETATM   10  C   UNL     1      25.925  47.268  50.210  1.00  0.00     0.014 A 
HETATM   11  C   UNL     1      26.340  46.060  49.640  1.00  0.00     0.015 A 
HETATM   12  C   UNL     1      26.648  44.968  50.451  1.00  0.00     0.002 A 
HETATM   13  C   UNL     1      26.539  45.076  51.837  1.00  0.00     0.009 A 
BRANCH  10  14
HETATM   14  C   UNL     1      25.607  48.412  49.361  1.00  0.00     0.181 A 
HETATM   15  N   UNL     1      24.338  48.941  49.271  1.00  0.00    -0.212 NA
HETATM   16  C   UNL     1      24.467  49.931  48.415  1.00  0.00     0.118 A 
HETATM   17  C   UNL     1      23.427  50.873  47.953  1.00  0.00     0.093 C 
HETATM   18  N   UNL     1      25.762  49.980  47.990  1.00  0.00    -0.263 N 
HETATM   19  N   UNL     1      26.510  49.044  48.593  1.00  0.00    -0.152 NA
HETATM   20  H   UNL     1      26.194  50.601  47.315  1.00  0.00     0.190 HD
ENDBRANCH  10  14
ENDBRANCH   7   8
ENDBRANCH   1   7
BRANCH   3  21
HETATM   21  C   UNL     1      29.613  45.579  56.337  1.00  0.00     0.039 A 
HETATM   22  C   UNL     1      29.764  44.654  55.294  1.00  0.00     0.066 A 
HETATM   23  C   UNL     1      30.619  43.555  55.442  1.00  0.00     0.070 A 
HETATM   24  C   UNL     1      31.327  43.388  56.634  1.00  0.00     0.037 A 
HETATM   25  C   UNL     1      31.170  44.290  57.682  1.00  0.00     0.005 A 
HETATM   26  C   UNL     1      30.306  45.374  57.536  1.00  0.00     0.030 A 
BRANCH  23  27
HETATM   27  O   UNL     1      30.836  42.572  54.516  1.00  0.00    -0.349 OA
BRANCH  27  28
HETATM   28  C   UNL     1      30.341  42.794  53.192  1.00  0.00     0.207 C 
BRANCH  28  29
HETATM   29  C   UNL     1      29.277  41.749  52.891  1.00  0.00     0.248 C 
HETATM   30  F   UNL     1      28.591  41.448  54.031  1.00  0.00    -0.253 F 
ENDBRANCH  28  29
ENDBRANCH  27  28
ENDBRANCH  23  27
ENDBRANCH   3  21
TORSDOF 7
ENDMDL
MODEL 3
REMARK VINA RESULT:      -8.7      3.546      8.917
REMARK  7 active torsions:
REMARK  status: ('A' for Active; 'I' for Inactive)
REMARK    1  A    between atoms: C_4  and  C_5 
REMARK    2  A    between atoms: C_7  and  C_8 
REMARK    3  A    between atoms: C_8  and  N_9 
REMARK       I    between atoms: N_9  and  C_10 
REMARK       I    between atoms: C_10  and  N_11 
REMARK    4  A    between atoms: N_11  and  C_12 
REMARK    5  A    between atoms: C_14  and  O_15 
REMARK    6  A    between atoms: O_15  and  C_16 
REMARK    7  A    between atoms: C_16  and  C_17 
ROOT
HETATM    1  N   UNL     1      26.030  46.360  52.484  1.00  0.00    -0.339 N 
HETATM    2  C   UNL     1      25.030  45.806  51.741  1.00  0.00     0.320 C 
HETATM    3  N   UNL     1      24.870  46.265  50.471  1.00  0.00    -0.309 N 
HETATM    4  O   UNL     1      24.333  44.877  52.141  1.00  0.00    -0.247 OA
HETATM    5  H   UNL     1      26.827  46.608  51.915  1.00  0.00     0.164 HD
HETATM    6  H   UNL     1      24.284  45.639  49.931  1.00  0.00     0.170 HD
ENDROOT
BRANCH   1   7
HETATM    7  C   UNL     1      26.328  45.795  53.783  1.00  0.00     0.162 C 
BRANCH   7   8
HETATM    8  C   UNL     1      27.449  44.784  53.807  1.00  0.00    -0.040 A 
HETATM    9  C   UNL     1      27.510  43.668  52.958  1.00  0.00     0.024 A 
HETATM   10  C   UNL     1      28.548  42.726  53.059  1.00  0.00     0.014 A 
HETATM   11  C   UNL     1      29.537  42.905  54.034  1.00  0.00     0.015 A 
HETATM   12  C   UNL     1      29.492  44.007  54.887  1.00  0.00     0.002 A 
HETATM   13  C   UNL     1      28.455  44.934  54.776  1.00  0.00     0.009 A 
BRANCH  10  14
HETATM   14  C   UNL     1      28.599  41.575  52.163  1.00  0.00     0.181 A 
HETATM   15  N   UNL     1      28.121  41.618  50.870  1.00  0.00    -0.212 NA
HETATM   16  C   UNL     1      28.339  40.405  50.411  1.00  0.00     0.118 A 
HETATM   17  C   UNL     1      28.047  39.880  49.062  1.00  0.00     0.093 C 
HETATM   18  N   UNL     1      28.906  39.655  51.400  1.00  0.00    -0.263 N 
HETATM   19  N   UNL     1      29.103  40.380  52.511  1.00  0.00    -0.152 NA
HETATM   20  H   UNL     1      29.176  38.678  51.390  1.00  0.00     0.190 HD
ENDBRANCH  10  14
ENDBRANCH   7   8
ENDBRANCH   1   7
BRANCH   3  21
HETATM   21  C   UNL     1      25.285  47.444  49.825  1.00  0.00     0.039 A 
HETATM   22  C   UNL     1      24.408  48.404  49.301  1.00  0.00     0.066 A 
HETATM   23  C   UNL     1      24.908  49.528  48.634  1.00  0.00     0.070 A 
HETATM   24  C   UNL     1      26.288  49.693  48.498  1.00  0.00     0.037 A 
HETATM   25  C   UNL     1      27.166  48.737  48.999  1.00  0.00     0.005 A 
HETATM   26  C   UNL     1      26.664  47.611  49.649  1.00  0.00     0.030 A 
BRANCH  23  27
HETATM   27  O   UNL     1      24.163  50.521  48.058  1.00  0.00    -0.349 OA
BRANCH  27  28
HETATM   28  C   UNL     1      22.811  50.211  47.706  1.00  0.00     0.207 C 
BRANCH  28  29
HETATM   29  C   UNL     1      21.882  51.086  48.532  1.00  0.00     0.248 C 
HETATM   30  F   UNL     1      22.304  51.108  49.830  1.00  0.00    -0.253 F 
ENDBRANCH  28  29
ENDBRANCH  27  28
ENDBRANCH  23  27
ENDBRANCH   3  21
TORSDOF 7
ENDMDL
MODEL 4
REMARK VINA RESULT:      -8.6      1.678      2.382
REMARK  7 active torsions:
REMARK  status: ('A' for Active; 'I' for Inactive)
REMARK    1  A    between atoms: C_4  and  C_5 
REMARK    2  A    between atoms: C_7  and  C_8 
REMARK    3  A    between atoms: C_8  and  N_9 
REMARK       I    between atoms: N_9  and  C_10 
REMARK       I    between atoms: C_10  and  N_11 
REMARK    4  A    between atoms: N_11  and  C_12 
REMARK    5  A    between atoms: C_14  and  O_15 
REMARK    6  A    between atoms: O_15  and  C_16 
REMARK    7  A    between atoms: C_16  and  C_17 
ROOT
HETATM    1  N   UNL     1      25.689  45.930  51.297  1.00  0.00    -0.339 N 
HETATM    2  C   UNL     1      24.993  45.139  52.164  1.00  0.00     0.320 C 
HETATM    3  N   UNL     1      25.406  45.123  53.460  1.00  0.00    -0.309 N 
HETATM    4  O   UNL     1      23.985  44.516  51.842  1.00  0.00    -0.247 OA
HETATM    5  H   UNL     1      26.032  46.766  51.746  1.00  0.00     0.164 HD
HETATM    6  H   UNL     1      24.698  44.716  54.059  1.00  0.00     0.170 HD
ENDROOT
BRANCH   1   7
HETATM    7  C   UNL     1      25.190  46.090  49.948  1.00  0.00     0.162 C 
BRANCH   7   8
HETATM    8  C   UNL     1      24.847  47.506  49.549  1.00  0.00    -0.040 A 
HETATM    9  C   UNL     1      23.537  48.007  49.511  1.00  0.00     0.024 A 
HETATM   10  C   UNL     1      23.266  49.318  49.079  1.00  0.00     0.014 A 
HETATM   11  C   UNL     1      24.329  50.133  48.673  1.00  0.00     0.015 A 
HETATM   12  C   UNL     1      25.637  49.651  48.702  1.00  0.00     0.002 A 
HETATM   13  C   UNL     1      25.890  48.348  49.133  1.00  0.00     0.009 A 
BRANCH  10  14
HETATM   14  C   UNL     1      21.898  49.825  49.053  1.00  0.00     0.181 A 
HETATM   15  N   UNL     1      21.586  51.102  48.636  1.00  0.00    -0.212 NA
HETATM   16  C   UNL     1      20.280  51.168  48.769  1.00  0.00     0.118 A 
HETATM   17  C   UNL     1      19.392  52.303  48.445  1.00  0.00     0.093 C 
HETATM   18  N   UNL     1      19.827  49.983  49.270  1.00  0.00    -0.263 N 
HETATM   19  N   UNL     1      20.829  49.107  49.435  1.00  0.00    -0.152 NA
HETATM   20  H   UNL     1      18.882  49.708  49.515  1.00  0.00     0.190 HD
ENDBRANCH  10  14
ENDBRANCH   7   8
ENDBRANCH   1   7
BRANCH   3  21
HETATM   21  C   UNL     1      26.619  45.476  54.077  1.00  0.00     0.039 A 
HETATM   22  C   UNL     1      27.637  44.565  54.390  1.00  0.00     0.066 A 
HETATM   23  C   UNL     1      28.796  44.997  55.045  1.00  0.00     0.070 A 
HETATM   24  C   UNL     1      28.936  46.345  55.381  1.00  0.00     0.037 A 
HETATM   25  C   UNL     1      27.924  47.255  55.091  1.00  0.00     0.005 A 
HETATM   26  C   UNL     1      26.765  46.818  54.452  1.00  0.00     0.030 A 
BRANCH  23  27
HETATM   27  O   UNL     1      29.847  44.210  55.428  1.00  0.00    -0.349 OA
BRANCH  27  28
HETATM   28  C   UNL     1      30.892  44.829  56.185  1.00  0.00     0.207 C 
BRANCH  28  29
HETATM   29  C   UNL     1      31.350  43.858  57.262  1.00  0.00     0.248 C 
HETATM   30  F   UNL     1      30.986  42.588  56.923  1.00  0.00    -0.253 F 
ENDBRANCH  28  29
ENDBRANCH  27  28
ENDBRANCH  23  27
ENDBRANCH   3  21
TORSDOF 7
ENDMDL
MODEL 5
REMARK VINA RESULT:      -8.4      3.735      9.542
REMARK  7 active torsions:
REMARK  status: ('A' for Active; 'I' for Inactive)
REMARK    1  A    between atoms: C_4  and  C_5 
REMARK    2  A    between atoms: C_7  and  C_8 
REMARK    3  A    between atoms: C_8  and  N_9 
REMARK       I    between atoms: N_9  and  C_10 
REMARK       I    between atoms: C_10  and  N_11 
REMARK    4  A    between atoms: N_11  and  C_12 
REMARK    5  A    between atoms: C_14  and  O_15 
REMARK    6  A    between atoms: O_15  and  C_16 
REMARK    7  A    between atoms: C_16  and  C_17 
ROOT
HETATM    1  N   UNL     1      24.667  46.781  50.915  1.00  0.00    -0.339 N 
HETATM    2  C   UNL     1      25.555  47.080  49.923  1.00  0.00     0.320 C 
HETATM    3  N   UNL     1      25.288  48.174  49.159  1.00  0.00    -0.309 N 
HETATM    4  O   UNL     1      26.600  46.459  49.747  1.00  0.00    -0.247 OA
HETATM    5  H   UNL     1      24.261  47.612  51.318  1.00  0.00     0.164 HD
HETATM    6  H   UNL     1      26.106  48.452  48.629  1.00  0.00     0.170 HD
ENDROOT
BRANCH   1   7
HETATM    7  C   UNL     1      24.992  45.718  51.842  1.00  0.00     0.162 C 
BRANCH   7   8
HETATM    8  C   UNL     1      25.993  46.078  52.914  1.00  0.00    -0.040 A 
HETATM    9  C   UNL     1      27.038  45.234  53.319  1.00  0.00     0.024 A 
HETATM   10  C   UNL     1      27.909  45.595  54.362  1.00  0.00     0.014 A 
HETATM   11  C   UNL     1      27.721  46.821  55.011  1.00  0.00     0.015 A 
HETATM   12  C   UNL     1      26.687  47.672  54.624  1.00  0.00     0.002 A 
HETATM   13  C   UNL     1      25.829  47.300  53.587  1.00  0.00     0.009 A 
BRANCH  10  14
HETATM   14  C   UNL     1      28.996  44.708  54.765  1.00  0.00     0.181 A 
HETATM   15  N   UNL     1      29.756  44.928  55.894  1.00  0.00    -0.212 NA
HETATM   16  C   UNL     1      30.614  43.932  55.897  1.00  0.00     0.118 A 
HETATM   17  C   UNL     1      31.663  43.642  56.895  1.00  0.00     0.093 C 
HETATM   18  N   UNL     1      30.392  43.155  54.798  1.00  0.00    -0.263 N 
HETATM   19  N   UNL     1      29.356  43.612  54.078  1.00  0.00    -0.152 NA
HETATM   20  H   UNL     1      30.888  42.328  54.486  1.00  0.00     0.190 HD
ENDBRANCH  10  14
ENDBRANCH   7   8
ENDBRANCH   1   7
BRANCH   3  21
HETATM   21  C   UNL     1      24.110  48.904  48.920  1.00  0.00     0.039 A 
HETATM   22  C   UNL     1      22.844  48.324  48.763  1.00  0.00     0.066 A 
HETATM   23  C   UNL     1      21.730  49.124  48.483  1.00  0.00     0.070 A 
HETATM   24  C   UNL     1      21.885  50.506  48.366  1.00  0.00     0.037 A 
HETATM   25  C   UNL     1      23.141  51.090  48.502  1.00  0.00     0.005 A 
HETATM   26  C   UNL     1      24.250  50.289  48.765  1.00  0.00     0.030 A 
BRANCH  23  27
HETATM   27  O   UNL     1      20.450  48.682  48.284  1.00  0.00    -0.349 OA
BRANCH  27  28
HETATM   28  C   UNL     1      19.913  47.766  49.243  1.00  0.00     0.207 C 
BRANCH  28  29
HETATM   29  C   UNL     1      18.842  48.482  50.051  1.00  0.00     0.248 C 
HETATM   30  F   UNL     1      19.408  49.492  50.772  1.00  0.00    -0.253 F 
ENDBRANCH  28  29
ENDBRANCH  27  28
ENDBRANCH  23  27
ENDBRANCH   3  21
TORSDOF 7
ENDMDL
MODEL 6
REMARK VINA RESULT:      -8.2      4.077      6.072
REMARK  7 active torsions:
REMARK  status: ('A' for Active; 'I' for Inactive)
REMARK    1  A    between atoms: C_4  and  C_5 
REMARK    2  A    between atoms: C_7  and  C_8 
REMARK    3  A    between atoms: C_8  and  N_9 
REMARK       I    between atoms: N_9  and  C_10 
REMARK       I    between atoms: C_10  and  N_11 
REMARK    4  A    between atoms: N_11  and  C_12 
REMARK    5  A    between atoms: C_14  and  O_15 
REMARK    6  A    between atoms: O_15  and  C_16 
REMARK    7  A    between atoms: C_16  and  C_17 
ROOT
HETATM    1  N   UNL     1      27.074  46.629  54.166  1.00  0.00    -0.339 N 
HETATM    2  C   UNL     1      27.310  47.126  55.414  1.00  0.00     0.320 C 
HETATM    3  N   UNL     1      28.435  46.702  56.050  1.00  0.00    -0.309 N 
HETATM    4  O   UNL     1      26.601  47.979  55.942  1.00  0.00    -0.247 OA
HETATM    5  H   UNL     1      27.931  46.469  53.658  1.00  0.00     0.164 HD
HETATM    6  H   UNL     1      28.649  47.298  56.842  1.00  0.00     0.170 HD
ENDROOT
BRANCH   1   7
HETATM    7  C   UNL     1      25.971  47.167  53.399  1.00  0.00     0.162 C 
BRANCH   7   8
HETATM    8  C   UNL     1      25.705  46.483  52.079  1.00  0.00    -0.040 A 
HETATM    9  C   UNL     1      26.055  45.151  51.809  1.00  0.00     0.024 A 
HETATM   10  C   UNL     1      25.836  44.578  50.544  1.00  0.00     0.014 A 
HETATM   11  C   UNL     1      25.263  45.360  49.534  1.00  0.00     0.015 A 
HETATM   12  C   UNL     1      24.912  46.686  49.783  1.00  0.00     0.002 A 
HETATM   13  C   UNL     1      25.135  47.241  51.044  1.00  0.00     0.009 A 
BRANCH  10  14
HETATM   14  C   UNL     1      26.199  43.189  50.283  1.00  0.00     0.181 A 
HETATM   15  N   UNL     1      27.203  42.835  49.408  1.00  0.00    -0.212 NA
HETATM   16  C   UNL     1      27.209  41.521  49.448  1.00  0.00     0.118 A 
HETATM   17  C   UNL     1      28.103  40.595  48.723  1.00  0.00     0.093 C 
HETATM   18  N   UNL     1      26.229  41.101  50.298  1.00  0.00    -0.263 N 
HETATM   19  N   UNL     1      25.591  42.139  50.859  1.00  0.00    -0.152 NA
HETATM   20  H   UNL     1      25.947  40.157  50.538  1.00  0.00     0.190 HD
ENDBRANCH  10  14
ENDBRANCH   7   8
ENDBRANCH   1   7
BRANCH   3  21
HETATM   21  C   UNL     1      29.271  45.587  55.864  1.00  0.00     0.039 A 
HETATM   22  C   UNL     1      29.184  44.712  54.772  1.00  0.00     0.066 A 
HETATM   23  C   UNL     1      30.029  43.599  54.689  1.00  0.00     0.070 A 
HETATM   24  C   UNL     1      30.965  43.367  55.698  1.00  0.00     0.037 A 
HETATM   25  C   UNL     1      31.048  44.218  56.795  1.00  0.00     0.005 A 
HETATM   26  C   UNL     1      30.195  45.317  56.882  1.00  0.00     0.030 A 
BRANCH  23  27
HETATM   27  O   UNL     1      30.029  42.660  53.694  1.00  0.00    -0.349 OA
BRANCH  27  28
HETATM   28  C   UNL     1      28.826  42.505  52.935  1.00  0.00     0.207 C 
BRANCH  28  29
HETATM   29  C   UNL     1      28.290  41.099  53.156  1.00  0.00     0.248 C 
HETATM   30  F   UNL     1      28.939  40.224  52.336  1.00  0.00    -0.253 F 
ENDBRANCH  28  29
ENDBRANCH  27  28
ENDBRANCH  23  27
ENDBRANCH   3  21
TORSDOF 7
ENDMDL
MODEL 7
REMARK VINA RESULT:      -8.1      1.887      2.249
REMARK  7 active torsions:
REMARK  status: ('A' for Active; 'I' for Inactive)
REMARK    1  A    between atoms: C_4  and  C_5 
REMARK    2  A    between atoms: C_7  and  C_8 
REMARK    3  A    between atoms: C_8  and  N_9 
REMARK       I    between atoms: N_9  and  C_10 
REMARK       I    between atoms: C_10  and  N_11 
REMARK    4  A    between atoms: N_11  and  C_12 
REMARK    5  A    between atoms: C_14  and  O_15 
REMARK    6  A    between atoms: O_15  and  C_16 
REMARK    7  A    between atoms: C_16  and  C_17 
ROOT
HETATM    1  N   UNL     1      27.458  44.194  51.192  1.00  0.00    -0.339 N 
HETATM    2  C   UNL     1      27.806  42.898  51.437  1.00  0.00     0.320 C 
HETATM    3  N   UNL     1      28.243  42.598  52.689  1.00  0.00    -0.309 N 
HETATM    4  O   UNL     1      27.670  41.998  50.611  1.00  0.00    -0.247 OA
HETATM    5  H   UNL     1      27.053  44.634  52.005  1.00  0.00     0.164 HD
HETATM    6  H   UNL     1      28.240  41.596  52.843  1.00  0.00     0.170 HD
ENDROOT
BRANCH   1   7
HETATM    7  C   UNL     1      26.847  44.522  49.921  1.00  0.00     0.162 C 
BRANCH   7   8
HETATM    8  C   UNL     1      26.528  45.984  49.715  1.00  0.00    -0.040 A 
HETATM    9  C   UNL     1      25.223  46.500  49.691  1.00  0.00     0.024 A 
HETATM   10  C   UNL     1      24.978  47.861  49.440  1.00  0.00     0.014 A 
HETATM   11  C   UNL     1      26.062  48.715  49.203  1.00  0.00     0.015 A 
HETATM   12  C   UNL     1      27.365  48.219  49.220  1.00  0.00     0.002 A 
HETATM   13  C   UNL     1      27.593  46.866  49.470  1.00  0.00     0.009 A 
BRANCH  10  14
HETATM   14  C   UNL     1      23.615  48.382  49.428  1.00  0.00     0.181 A 
HETATM   15  N   UNL     1      23.326  49.716  49.625  1.00  0.00    -0.212 NA
HETATM   16  C   UNL     1      22.015  49.771  49.549  1.00  0.00     0.118 A 
HETATM   17  C   UNL     1      21.149  50.962  49.661  1.00  0.00     0.093 C 
HETATM   18  N   UNL     1      21.532  48.513  49.336  1.00  0.00    -0.263 N 
HETATM   19  N   UNL     1      22.527  47.619  49.231  1.00  0.00    -0.152 NA
HETATM   20  H   UNL     1      20.572  48.198  49.255  1.00  0.00     0.190 HD
ENDBRANCH  10  14
ENDBRANCH   7   8
ENDBRANCH   1   7
BRANCH   3  21
HETATM   21  C   UNL     1      28.756  43.388  53.734  1.00  0.00     0.039 A 
HETATM   22  C   UNL     1      28.172  44.584  54.174  1.00  0.00     0.066 A 
HETATM   23  C   UNL     1      28.775  45.331  55.192  1.00  0.00     0.070 A 
HETATM   24  C   UNL     1      29.961  44.876  55.773  1.00  0.00     0.037 A 
HETATM   25  C   UNL     1      30.558  43.700  55.331  1.00  0.00     0.005 A 
HETATM   26  C   UNL     1      29.963  42.966  54.306  1.00  0.00     0.030 A 
BRANCH  23  27
HETATM   27  O   UNL     1      28.324  46.522  55.694  1.00  0.00    -0.349 OA
BRANCH  27  28
HETATM   28  C   UNL     1      27.118  47.055  55.139  1.00  0.00     0.207 C 
BRANCH  28  29
HETATM   29  C   UNL     1      26.748  48.315  55.905  1.00  0.00     0.248 C 
HETATM   30  F   UNL     1      25.722  48.954  55.272  1.00  0.00    -0.253 F 
ENDBRANCH  28  29
ENDBRANCH  27  28
ENDBRANCH  23  27
ENDBRANCH   3  21
TORSDOF 7
ENDMDL
MODEL 8
REMARK VINA RESULT:      -8.0      4.741      9.676
REMARK  7 active torsions:
REMARK  status: ('A' for Active; 'I' for Inactive)
REMARK    1  A    between atoms: C_4  and  C_5 
REMARK    2  A    between atoms: C_7  and  C_8 
REMARK    3  A    between atoms: C_8  and  N_9 
REMARK       I    between atoms: N_9  and  C_10 
REMARK       I    between atoms: C_10  and  N_11 
REMARK    4  A    between atoms: N_11  and  C_12 
REMARK    5  A    between atoms: C_14  and  O_15 
REMARK    6  A    between atoms: O_15  and  C_16 
REMARK    7  A    between atoms: C_16  and  C_17 
ROOT
HETATM    1  N   UNL     1      25.030  48.821  49.067  1.00  0.00    -0.339 N 
HETATM    2  C   UNL     1      24.888  49.748  48.077  1.00  0.00     0.320 C 
HETATM    3  N   UNL     1      23.649  50.280  47.895  1.00  0.00    -0.309 N 
HETATM    4  O   UNL     1      25.831  50.168  47.410  1.00  0.00    -0.247 OA
HETATM    5  H   UNL     1      24.425  49.014  49.852  1.00  0.00     0.164 HD
HETATM    6  H   UNL     1      23.695  51.115  47.324  1.00  0.00     0.170 HD
ENDROOT
BRANCH   1   7
HETATM    7  C   UNL     1      26.358  48.345  49.390  1.00  0.00     0.162 C 
BRANCH   7   8
HETATM    8  C   UNL     1      26.410  47.142  50.303  1.00  0.00    -0.040 A 
HETATM    9  C   UNL     1      26.717  45.845  49.865  1.00  0.00     0.024 A 
HETATM   10  C   UNL     1      26.697  44.750  50.746  1.00  0.00     0.014 A 
HETATM   11  C   UNL     1      26.356  44.963  52.087  1.00  0.00     0.015 A 
HETATM   12  C   UNL     1      26.045  46.244  52.540  1.00  0.00     0.002 A 
HETATM   13  C   UNL     1      26.069  47.322  51.653  1.00  0.00     0.009 A 
BRANCH  10  14
HETATM   14  C   UNL     1      27.028  43.409  50.275  1.00  0.00     0.181 A 
HETATM   15  N   UNL     1      27.605  42.456  51.087  1.00  0.00    -0.212 NA
HETATM   16  C   UNL     1      27.746  41.412  50.300  1.00  0.00     0.118 A 
HETATM   17  C   UNL     1      28.293  40.084  50.645  1.00  0.00     0.093 C 
HETATM   18  N   UNL     1      27.292  41.734  49.055  1.00  0.00    -0.263 N 
HETATM   19  N   UNL     1      26.809  42.985  49.019  1.00  0.00    -0.152 NA
HETATM   20  H   UNL     1      27.280  41.173  48.211  1.00  0.00     0.190 HD
ENDBRANCH  10  14
ENDBRANCH   7   8
ENDBRANCH   1   7
BRANCH   3  21
HETATM   21  C   UNL     1      22.364  49.850  48.272  1.00  0.00     0.039 A 
HETATM   22  C   UNL     1      21.536  50.540  49.169  1.00  0.00     0.066 A 
HETATM   23  C   UNL     1      20.287  50.016  49.523  1.00  0.00     0.070 A 
HETATM   24  C   UNL     1      19.866  48.805  48.972  1.00  0.00     0.037 A 
HETATM   25  C   UNL     1      20.687  48.104  48.094  1.00  0.00     0.005 A 
HETATM   26  C   UNL     1      21.937  48.621  47.756  1.00  0.00     0.030 A 
BRANCH  23  27
HETATM   27  O   UNL     1      19.399  50.573  50.402  1.00  0.00    -0.349 OA
BRANCH  27  28
HETATM   28  C   UNL     1      18.110  50.934  49.896  1.00  0.00     0.207 C 
BRANCH  28  29
HETATM   29  C   UNL     1      18.076  52.439  49.683  1.00  0.00     0.248 C 
HETATM   30  F   UNL     1      18.912  52.778  48.660  1.00  0.00    -0.253 F 
ENDBRANCH  28  29
ENDBRANCH  27  28
ENDBRANCH  23  27
ENDBRANCH   3  21
TORSDOF 7
ENDMDL
MODEL 9
REMARK VINA RESULT:      -7.9      2.263      3.348
REMARK  7 active torsions:
REMARK  status: ('A' for Active; 'I' for Inactive)
REMARK    1  A    between atoms: C_4  and  C_5 
REMARK    2  A    between atoms: C_7  and  C_8 
REMARK    3  A    between atoms: C_8  and  N_9 
REMARK       I    between atoms: N_9  and  C_10 
REMARK       I    between atoms: C_10  and  N_11 
REMARK    4  A    between atoms: N_11  and  C_12 
REMARK    5  A    between atoms: C_14  and  O_15 
REMARK    6  A    between atoms: O_15  and  C_16 
REMARK    7  A    between atoms: C_16  and  C_17 
ROOT
HETATM    1  N   UNL     1      27.640  43.479  51.608  1.00  0.00    -0.339 N 
HETATM    2  C   UNL     1      27.670  42.308  52.306  1.00  0.00     0.320 C 
HETATM    3  N   UNL     1      27.969  42.382  53.632  1.00  0.00    -0.309 N 
HETATM    4  O   UNL     1      27.371  41.224  51.813  1.00  0.00    -0.247 OA
HETATM    5  H   UNL     1      27.309  44.246  52.175  1.00  0.00     0.164 HD
HETATM    6  H   UNL     1      27.730  41.518  54.104  1.00  0.00     0.170 HD
ENDROOT
BRANCH   1   7
HETATM    7  C   UNL     1      27.180  43.459  50.235  1.00  0.00     0.162 C 
BRANCH   7   8
HETATM    8  C   UNL     1      25.730  43.831  50.033  1.00  0.00    -0.040 A 
HETATM    9  C   UNL     1      25.301  45.114  49.661  1.00  0.00     0.024 A 
HETATM   10  C   UNL     1      23.934  45.423  49.541  1.00  0.00     0.014 A 
HETATM   11  C   UNL     1      22.987  44.428  49.805  1.00  0.00     0.015 A 
HETATM   12  C   UNL     1      23.395  43.148  50.178  1.00  0.00     0.002 A 
HETATM   13  C   UNL     1      24.754  42.856  50.294  1.00  0.00     0.009 A 
BRANCH  10  14
HETATM   14  C   UNL     1      23.506  46.761  49.145  1.00  0.00     0.181 A 
HETATM   15  N   UNL     1      24.295  47.877  49.324  1.00  0.00    -0.212 NA
HETATM   16  C   UNL     1      23.560  48.863  48.857  1.00  0.00     0.118 A 
HETATM   17  C   UNL     1      23.912  50.294  48.770  1.00  0.00     0.093 C 
HETATM   18  N   UNL     1      22.364  48.359  48.435  1.00  0.00    -0.263 N 
HETATM   19  N   UNL     1      22.315  47.027  48.584  1.00  0.00    -0.152 NA
HETATM   20  H   UNL     1      21.564  48.845  48.048  1.00  0.00     0.190 HD
ENDBRANCH  10  14
ENDBRANCH   7   8
ENDBRANCH   1   7
BRANCH   3  21
HETATM   21  C   UNL     1      28.600  43.367  54.412  1.00  0.00     0.039 A 
HETATM   22  C   UNL     1      28.021  44.602  54.738  1.00  0.00     0.066 A 
HETATM   23  C   UNL     1      28.739  45.544  55.484  1.00  0.00     0.070 A 
HETATM   24  C   UNL     1      30.035  45.245  55.909  1.00  0.00     0.037 A 
HETATM   25  C   UNL     1      30.625  44.030  55.576  1.00  0.00     0.005 A 
HETATM   26  C   UNL     1      29.913  43.101  54.820  1.00  0.00     0.030 A 
BRANCH  23  27
HETATM   27  O   UNL     1      28.301  46.789  55.845  1.00  0.00    -0.349 OA
BRANCH  27  28
HETATM   28  C   UNL     1      27.812  47.642  54.805  1.00  0.00     0.207 C 
BRANCH  28  29
HETATM   29  C   UNL     1      26.355  47.968  55.092  1.00  0.00     0.248 C 
HETATM   30  F   UNL     1      25.588  47.636  54.013  1.00  0.00    -0.253 F 
ENDBRANCH  28  29
ENDBRANCH  27  28
ENDBRANCH  23  27
ENDBRANCH   3  21
TORSDOF 7
ENDMDL
MODEL 10
REMARK VINA RESULT:      -7.9      3.459      9.177
REMARK  7 active torsions:
REMARK  status: ('A' for Active; 'I' for Inactive)
REMARK    1  A    between atoms: C_4  and  C_5 
REMARK    2  A    between atoms: C_7  and  C_8 
REMARK    3  A    between atoms: C_8  and  N_9 
REMARK       I    between atoms: N_9  and  C_10 
REMARK       I    between atoms: C_10  and  N_11 
REMARK    4  A    between atoms: N_11  and  C_12 
REMARK    5  A    between atoms: C_14  and  O_15 
REMARK    6  A    between atoms: O_15  and  C_16 
REMARK    7  A    between atoms: C_16  and  C_17 
ROOT
HETATM    1  N   UNL     1      25.135  45.303  51.977  1.00  0.00    -0.339 N 
HETATM    2  C   UNL     1      24.260  44.796  51.062  1.00  0.00     0.320 C 
HETATM    3  N   UNL     1      24.099  45.491  49.903  1.00  0.00    -0.309 N 
HETATM    4  O   UNL     1      23.683  43.721  51.208  1.00  0.00    -0.247 OA
HETATM    5  H   UNL     1      25.915  45.766  51.535  1.00  0.00     0.164 HD
HETATM    6  H   UNL     1      23.635  44.924  49.203  1.00  0.00     0.170 HD
ENDROOT
BRANCH   1   7
HETATM    7  C   UNL     1      25.445  44.518  53.153  1.00  0.00     0.162 C 
BRANCH   7   8
HETATM    8  C   UNL     1      26.876  44.045  53.256  1.00  0.00    -0.040 A 
HETATM    9  C   UNL     1      27.705  44.308  54.357  1.00  0.00     0.024 A 
HETATM   10  C   UNL     1      29.048  43.892  54.378  1.00  0.00     0.014 A 
HETATM   11  C   UNL     1      29.566  43.208  53.272  1.00  0.00     0.015 A 
HETATM   12  C   UNL     1      28.757  42.940  52.168  1.00  0.00     0.002 A 
HETATM   13  C   UNL     1      27.426  43.359  52.161  1.00  0.00     0.009 A 
BRANCH  10  14
HETATM   14  C   UNL     1      29.894  44.167  55.535  1.00  0.00     0.181 A 
HETATM   15  N   UNL     1      29.684  45.245  56.369  1.00  0.00    -0.212 NA
HETATM   16  C   UNL     1      30.644  45.145  57.263  1.00  0.00     0.118 A 
HETATM   17  C   UNL     1      30.898  46.022  58.423  1.00  0.00     0.093 C 
HETATM   18  N   UNL     1      31.415  44.060  56.962  1.00  0.00    -0.263 N 
HETATM   19  N   UNL     1      30.946  43.410  55.886  1.00  0.00    -0.152 NA
HETATM   20  H   UNL     1      32.246  43.714  57.428  1.00  0.00     0.190 HD
ENDBRANCH  10  14
ENDBRANCH   7   8
ENDBRANCH   1   7
BRANCH   3  21
HETATM   21  C   UNL     1      24.375  46.823  49.546  1.00  0.00     0.039 A 
HETATM   22  C   UNL     1      23.426  47.705  49.009  1.00  0.00     0.066 A 
HETATM   23  C   UNL     1      23.798  49.003  48.640  1.00  0.00     0.070 A 
HETATM   24  C   UNL     1      25.119  49.419  48.816  1.00  0.00     0.037 A 
HETATM   25  C   UNL     1      26.072  48.546  49.332  1.00  0.00     0.005 A 
HETATM   26  C   UNL     1      25.702  47.249  49.683  1.00  0.00     0.030 A 
BRANCH  23  27
HETATM   27  O   UNL     1      22.980  49.949  48.085  1.00  0.00    -0.349 OA
BRANCH  27  28
HETATM   28  C   UNL     1      21.578  49.843  48.349  1.00  0.00     0.207 C 
BRANCH  28  29
HETATM   29  C   UNL     1      21.155  51.027  49.205  1.00  0.00     0.248 C 
HETATM   30  F   UNL     1      21.704  50.914  50.449  1.00  0.00    -0.253 F 
ENDBRANCH  28  29
ENDBRANCH  27  28
ENDBRANCH  23  27
ENDBRANCH   3  21
TORSDOF 7
ENDMDL
