MODEL 1
REMARK VINA RESULT:      -9.6      0.000      0.000
REMARK  9 active torsions:
REMARK  status: ('A' for Active; 'I' for Inactive)
REMARK    1  A    between atoms: C_7  and  O_8 
REMARK    2  A    between atoms: O_8  and  C_9 
REMARK    3  A    between atoms: C_9  and  C_10 
REMARK    4  A    between atoms: C_10  and  O_11 
REMARK    5  A    between atoms: C_10  and  C_12 
REMARK    6  A    between atoms: C_12  and  N_13 
REMARK    7  A    between atoms: N_18  and  C_19 
REMARK    8  A    between atoms: C_19  and  C_20 
REMARK    9  A    between atoms: C_20  and  N_21 
ROOT
HETATM    1  N   UNL     1      25.600  46.563  50.033  1.00  0.00    -0.179 N 
HETATM    2  C   UNL     1      24.255  46.679  49.741  1.00  0.00     0.681 A 
HETATM    3  N   UNL     1      23.342  45.766  50.073  1.00  0.00    -0.234 N 
HETATM    4  H   UNL     1      22.349  45.862  49.960  1.00  0.00     0.174 HD
HETATM    5  H   UNL     1      23.688  44.856  50.406  1.00  0.00     0.174 HD
HETATM    6  N   UNL     1      23.940  47.855  49.063  1.00  0.00    -0.180 N 
HETATM    7  C   UNL     1      25.186  48.547  48.955  1.00  0.00     0.079 A 
HETATM    8  C   UNL     1      26.195  47.756  49.534  1.00  0.00     0.079 A 
HETATM    9  C   UNL     1      25.457  49.781  48.401  1.00  0.00     0.032 A 
HETATM   10  C   UNL     1      26.786  50.215  48.430  1.00  0.00     0.002 A 
HETATM   11  C   UNL     1      27.799  49.421  49.006  1.00  0.00     0.002 A 
HETATM   12  C   UNL     1      27.508  48.173  49.570  1.00  0.00     0.032 A 
ENDROOT
BRANCH   1  13
HETATM   13  C   UNL     1      26.278  45.505  50.806  1.00  0.00     0.181 C 
BRANCH  13  14
HETATM   14  C   UNL     1      26.068  45.630  52.319  1.00  0.00     0.161 C 
BRANCH  14  15
HETATM   15  C   UNL     1      27.117  44.829  53.103  1.00  0.00     0.209 C 
BRANCH  15  16
HETATM   16  O   UNL     1      27.477  45.634  54.228  1.00  0.00    -0.349 OA
BRANCH  16  17
HETATM   17  C   UNL     1      28.546  45.222  54.976  1.00  0.00     0.069 A 
HETATM   18  C   UNL     1      29.188  44.081  54.492  1.00  0.00     0.038 A 
HETATM   19  C   UNL     1      30.285  43.547  55.167  1.00  0.00     0.027 A 
HETATM   20  C   UNL     1      30.752  44.152  56.335  1.00  0.00     0.040 A 
HETATM   21  C   UNL     1      30.128  45.307  56.832  1.00  0.00    -0.038 A 
HETATM   22 CL   UNL     1      32.102  43.435  57.134  1.00  0.00    -0.084 Cl
HETATM   23  C   UNL     1      30.602  45.978  58.093  1.00  0.00     0.050 C 
HETATM   24  C   UNL     1      29.018  45.831  56.142  1.00  0.00     0.045 A 
ENDBRANCH  16  17
ENDBRANCH  15  16
ENDBRANCH  14  15
BRANCH  14  25
HETATM   25  O   UNL     1      26.165  47.022  52.692  1.00  0.00    -0.392 OA
HETATM   26  H   UNL     1      26.029  47.513  51.847  1.00  0.00     0.210 HD
ENDBRANCH  14  25
ENDBRANCH  13  14
ENDBRANCH   1  13
BRANCH   6  27
HETATM   27  C   UNL     1      22.627  48.359  48.646  1.00  0.00     0.175 C 
BRANCH  27  28
HETATM   28  C   UNL     1      22.126  49.527  49.521  1.00  0.00     0.256 C 
BRANCH  28  29
HETATM   29  N   UNL     1      20.673  49.380  49.932  1.00  0.00    -0.066 N 
HETATM   30  H   UNL     1      20.614  49.253  50.952  1.00  0.00     0.280 HD
HETATM   31  C   UNL     1      19.885  50.672  49.627  1.00  0.00     0.261 C 
HETATM   32  C   UNL     1      18.422  50.504  50.051  1.00  0.00     0.195 C 
HETATM   33  O   UNL     1      17.833  49.387  49.382  1.00  0.00    -0.388 OA
HETATM   34  C   UNL     1      18.486  48.161  49.716  1.00  0.00     0.195 C 
HETATM   35  C   UNL     1      19.954  48.193  49.277  1.00  0.00     0.261 C 
ENDBRANCH  28  29
ENDBRANCH  27  28
ENDBRANCH   6  27
TORSDOF 9
ENDMDL
MODEL 2
REMARK VINA RESULT:      -9.3      1.809      2.407
REMARK  9 active torsions:
REMARK  status: ('A' for Active; 'I' for Inactive)
REMARK    1  A    between atoms: C_7  and  O_8 
REMARK    2  A    between atoms: O_8  and  C_9 
REMARK    3  A    between atoms: C_9  and  C_10 
REMARK    4  A    between atoms: C_10  and  O_11 
REMARK    5  A    between atoms: C_10  and  C_12 
REMARK    6  A    between atoms: C_12  and  N_13 
REMARK    7  A    between atoms: N_18  and  C_19 
REMARK    8  A    between atoms: C_19  and  C_20 
REMARK    9  A    between atoms: C_20  and  N_21 
ROOT
HETATM    1  N   UNL     1      24.475  47.132  49.724  1.00  0.00    -0.179 N 
HETATM    2  C   UNL     1      23.313  47.617  49.155  1.00  0.00     0.681 A 
HETATM    3  N   UNL     1      22.124  47.029  49.280  1.00  0.00    -0.234 N 
HETATM    4  H   UNL     1      21.248  47.403  48.960  1.00  0.00     0.174 HD
HETATM    5  H   UNL     1      22.109  46.078  49.673  1.00  0.00     0.174 HD
HETATM    6  N   UNL     1      23.506  48.794  48.434  1.00  0.00    -0.180 N 
HETATM    7  C   UNL     1      24.896  49.086  48.596  1.00  0.00     0.079 A 
HETATM    8  C   UNL     1      25.485  48.070  49.370  1.00  0.00     0.079 A 
HETATM    9  C   UNL     1      25.627  50.154  48.121  1.00  0.00     0.032 A 
HETATM   10  C   UNL     1      26.990  50.184  48.434  1.00  0.00     0.002 A 
HETATM   11  C   UNL     1      27.582  49.164  49.205  1.00  0.00     0.002 A 
HETATM   12  C   UNL     1      26.826  48.089  49.686  1.00  0.00     0.032 A 
ENDROOT
BRANCH   1  13
HETATM   13  C   UNL     1      24.636  45.967  50.616  1.00  0.00     0.181 C 
BRANCH  13  14
HETATM   14  C   UNL     1      25.607  44.914  50.069  1.00  0.00     0.161 C 
BRANCH  14  15
HETATM   15  C   UNL     1      25.769  43.737  51.041  1.00  0.00     0.209 C 
BRANCH  15  16
HETATM   16  O   UNL     1      27.134  43.321  50.942  1.00  0.00    -0.349 OA
BRANCH  16  17
HETATM   17  C   UNL     1      27.909  43.446  52.062  1.00  0.00     0.069 A 
HETATM   18  C   UNL     1      28.989  42.565  52.121  1.00  0.00     0.038 A 
HETATM   19  C   UNL     1      29.853  42.578  53.218  1.00  0.00     0.027 A 
HETATM   20  C   UNL     1      29.642  43.476  54.264  1.00  0.00     0.040 A 
HETATM   21  C   UNL     1      28.568  44.379  54.219  1.00  0.00    -0.038 A 
HETATM   22 CL   UNL     1      30.734  43.432  55.600  1.00  0.00    -0.084 Cl
HETATM   23  C   UNL     1      28.309  45.353  55.336  1.00  0.00     0.050 C 
HETATM   24  C   UNL     1      27.702  44.349  53.108  1.00  0.00     0.045 A 
ENDBRANCH  16  17
ENDBRANCH  15  16
ENDBRANCH  14  15
BRANCH  14  25
HETATM   25  O   UNL     1      25.099  44.417  48.811  1.00  0.00    -0.392 OA
HETATM   26  H   UNL     1      24.119  44.489  48.896  1.00  0.00     0.210 HD
ENDBRANCH  14  25
ENDBRANCH  13  14
ENDBRANCH   1  13
BRANCH   6  27
HETATM   27  C   UNL     1      22.515  49.633  47.751  1.00  0.00     0.175 C 
BRANCH  27  28
HETATM   28  C   UNL     1      21.934  50.736  48.660  1.00  0.00     0.256 C 
BRANCH  28  29
HETATM   29  N   UNL     1      20.426  50.649  48.809  1.00  0.00    -0.066 N 
HETATM   30  H   UNL     1      20.040  50.052  48.064  1.00  0.00     0.280 HD
HETATM   31  C   UNL     1      20.047  49.957  50.135  1.00  0.00     0.261 C 
HETATM   32  C   UNL     1      18.522  49.878  50.265  1.00  0.00     0.195 C 
HETATM   33  O   UNL     1      17.946  51.184  50.196  1.00  0.00    -0.388 OA
HETATM   34  C   UNL     1      18.205  51.817  48.942  1.00  0.00     0.195 C 
HETATM   35  C   UNL     1      19.711  52.005  48.732  1.00  0.00     0.261 C 
ENDBRANCH  28  29
ENDBRANCH  27  28
ENDBRANCH   6  27
TORSDOF 9
ENDMDL
MODEL 3
REMARK VINA RESULT:      -8.9      3.224      4.983
REMARK  9 active torsions:
REMARK  status: ('A' for Active; 'I' for Inactive)
REMARK    1  A    between atoms: C_7  and  O_8 
REMARK    2  A    between atoms: O_8  and  C_9 
REMARK    3  A    between atoms: C_9  and  C_10 
REMARK    4  A    between atoms: C_10  and  O_11 
REMARK    5  A    between atoms: C_10  and  C_12 
REMARK    6  A    between atoms: C_12  and  N_13 
REMARK    7  A    between atoms: N_18  and  C_19 
REMARK    8  A    between atoms: C_19  and  C_20 
REMARK    9  A    between atoms: C_20  and  N_21 
ROOT
HETATM    1  N   UNL     1      26.113  42.010  51.332  1.00  0.00    -0.179 N 
HETATM    2  C   UNL     1      25.594  43.232  51.715  1.00  0.00     0.681 A 
HETATM    3  N   UNL     1      25.890  43.835  52.866  1.00  0.00    -0.234 N 
HETATM    4  H   UNL     1      25.605  44.761  53.133  1.00  0.00     0.174 HD
HETATM    5  H   UNL     1      26.390  43.279  53.573  1.00  0.00     0.174 HD
HETATM    6  N   UNL     1      24.727  43.779  50.771  1.00  0.00    -0.180 N 
HETATM    7  C   UNL     1      24.734  42.838  49.695  1.00  0.00     0.079 A 
HETATM    8  C   UNL     1      25.566  41.760  50.042  1.00  0.00     0.079 A 
HETATM    9  C   UNL     1      24.076  42.890  48.484  1.00  0.00     0.032 A 
HETATM   10  C   UNL     1      24.263  41.814  47.610  1.00  0.00     0.002 A 
HETATM   11  C   UNL     1      25.093  40.730  47.959  1.00  0.00     0.002 A 
HETATM   12  C   UNL     1      25.760  40.695  49.189  1.00  0.00     0.032 A 
ENDROOT
BRANCH   1  13
HETATM   13  C   UNL     1      27.117  41.185  52.032  1.00  0.00     0.181 C 
BRANCH  13  14
HETATM   14  C   UNL     1      28.557  41.490  51.605  1.00  0.00     0.161 C 
BRANCH  14  15
HETATM   15  C   UNL     1      29.412  41.952  52.794  1.00  0.00     0.209 C 
BRANCH  15  16
HETATM   16  O   UNL     1      28.971  43.274  53.115  1.00  0.00    -0.349 OA
BRANCH  16  17
HETATM   17  C   UNL     1      29.419  43.815  54.289  1.00  0.00     0.069 A 
HETATM   18  C   UNL     1      28.758  44.979  54.681  1.00  0.00     0.038 A 
HETATM   19  C   UNL     1      29.125  45.641  55.853  1.00  0.00     0.027 A 
HETATM   20  C   UNL     1      30.158  45.139  56.645  1.00  0.00     0.040 A 
HETATM   21  C   UNL     1      30.829  43.963  56.275  1.00  0.00    -0.038 A 
HETATM   22 CL   UNL     1      30.577  46.011  58.075  1.00  0.00    -0.084 Cl
HETATM   23  C   UNL     1      31.952  43.402  57.103  1.00  0.00     0.050 C 
HETATM   24  C   UNL     1      30.450  43.311  55.086  1.00  0.00     0.045 A 
ENDBRANCH  16  17
ENDBRANCH  15  16
ENDBRANCH  14  15
BRANCH  14  25
HETATM   25  O   UNL     1      29.142  40.295  51.043  1.00  0.00    -0.392 OA
HETATM   26  H   UNL     1      30.007  40.595  50.674  1.00  0.00     0.210 HD
ENDBRANCH  14  25
ENDBRANCH  13  14
ENDBRANCH   1  13
BRANCH   6  27
HETATM   27  C   UNL     1      24.040  45.076  50.790  1.00  0.00     0.175 C 
BRANCH  27  28
HETATM   28  C   UNL     1      24.937  46.236  50.311  1.00  0.00     0.256 C 
BRANCH  28  29
HETATM   29  N   UNL     1      24.146  47.417  49.780  1.00  0.00    -0.066 N 
HETATM   30  H   UNL     1      23.657  47.884  50.558  1.00  0.00     0.280 HD
HETATM   31  C   UNL     1      25.090  48.483  49.183  1.00  0.00     0.261 C 
HETATM   32  C   UNL     1      24.272  49.667  48.655  1.00  0.00     0.195 C 
HETATM   33  O   UNL     1      23.329  49.226  47.676  1.00  0.00    -0.388 OA
HETATM   34  C   UNL     1      22.384  48.304  48.223  1.00  0.00     0.195 C 
HETATM   35  C   UNL     1      23.091  47.043  48.731  1.00  0.00     0.261 C 
ENDBRANCH  28  29
ENDBRANCH  27  28
ENDBRANCH   6  27
TORSDOF 9
ENDMDL
MODEL 4
REMARK VINA RESULT:      -8.8      4.062     10.183
REMARK  9 active torsions:
REMARK  status: ('A' for Active; 'I' for Inactive)
REMARK    1  A    between atoms: C_7  and  O_8 
REMARK    2  A    between atoms: O_8  and  C_9 
REMARK    3  A    between atoms: C_9  and  C_10 
REMARK    4  A    between atoms: C_10  and  O_11 
REMARK    5  A    between atoms: C_10  and  C_12 
REMARK    6  A    between atoms: C_12  and  N_13 
REMARK    7  A    between atoms: N_18  and  C_19 
REMARK    8  A    between atoms: C_19  and  C_20 
REMARK    9  A    between atoms: C_20  and  N_21 
ROOT
HETATM    1  N   UNL     1      25.927  44.721  52.084  1.00  0.00    -0.179 N 
HETATM    2  C   UNL     1      26.285  45.426  53.217  1.00  0.00     0.681 A 
HETATM    3  N   UNL     1      25.810  46.635  53.518  1.00  0.00    -0.234 N 
HETATM    4  H   UNL     1      25.976  47.133  54.375  1.00  0.00     0.174 HD
HETATM    5  H   UNL     1      25.290  47.132  52.783  1.00  0.00     0.174 HD
HETATM    6  N   UNL     1      27.194  44.745  54.023  1.00  0.00    -0.180 N 
HETATM    7  C   UNL     1      27.393  43.496  53.356  1.00  0.00     0.079 A 
HETATM    8  C   UNL     1      26.632  43.488  52.173  1.00  0.00     0.079 A 
HETATM    9  C   UNL     1      28.172  42.420  53.728  1.00  0.00     0.032 A 
HETATM   10  C   UNL     1      28.181  41.314  52.871  1.00  0.00     0.002 A 
HETATM   11  C   UNL     1      27.423  41.307  51.683  1.00  0.00     0.002 A 
HETATM   12  C   UNL     1      26.633  42.404  51.322  1.00  0.00     0.032 A 
ENDROOT
BRANCH   1  13
HETATM   13  C   UNL     1      24.935  45.089  51.055  1.00  0.00     0.181 C 
BRANCH  13  14
HETATM   14  C   UNL     1      25.511  45.978  49.947  1.00  0.00     0.161 C 
BRANCH  14  15
HETATM   15  C   UNL     1      25.381  47.468  50.294  1.00  0.00     0.209 C 
BRANCH  15  16
HETATM   16  O   UNL     1      25.151  48.148  49.057  1.00  0.00    -0.349 OA
BRANCH  16  17
HETATM   17  C   UNL     1      23.993  48.868  48.946  1.00  0.00     0.069 A 
HETATM   18  C   UNL     1      24.169  50.190  48.538  1.00  0.00     0.038 A 
HETATM   19  C   UNL     1      23.070  51.039  48.397  1.00  0.00     0.027 A 
HETATM   20  C   UNL     1      21.783  50.567  48.661  1.00  0.00     0.040 A 
HETATM   21  C   UNL     1      21.583  49.237  49.060  1.00  0.00    -0.038 A 
HETATM   22 CL   UNL     1      20.467  51.669  48.484  1.00  0.00    -0.084 Cl
HETATM   23  C   UNL     1      20.210  48.702  49.361  1.00  0.00     0.050 C 
HETATM   24  C   UNL     1      22.704  48.395  49.204  1.00  0.00     0.045 A 
ENDBRANCH  16  17
ENDBRANCH  15  16
ENDBRANCH  14  15
BRANCH  14  25
HETATM   25  O   UNL     1      26.908  45.657  49.768  1.00  0.00    -0.392 OA
HETATM   26  H   UNL     1      26.904  44.761  49.355  1.00  0.00     0.210 HD
ENDBRANCH  14  25
ENDBRANCH  13  14
ENDBRANCH   1  13
BRANCH   6  27
HETATM   27  C   UNL     1      27.750  45.135  55.323  1.00  0.00     0.175 C 
BRANCH  27  28
HETATM   28  C   UNL     1      28.983  46.054  55.197  1.00  0.00     0.256 C 
BRANCH  28  29
HETATM   29  N   UNL     1      30.140  45.619  56.077  1.00  0.00    -0.066 N 
HETATM   30  H   UNL     1      30.957  46.220  55.895  1.00  0.00     0.280 HD
HETATM   31  C   UNL     1      29.799  45.824  57.568  1.00  0.00     0.261 C 
HETATM   32  C   UNL     1      30.979  45.381  58.439  1.00  0.00     0.195 C 
HETATM   33  O   UNL     1      31.307  44.014  58.181  1.00  0.00    -0.388 OA
HETATM   34  C   UNL     1      31.714  43.810  56.827  1.00  0.00     0.195 C 
HETATM   35  C   UNL     1      30.579  44.165  55.861  1.00  0.00     0.261 C 
ENDBRANCH  28  29
ENDBRANCH  27  28
ENDBRANCH   6  27
TORSDOF 9
ENDMDL
MODEL 5
REMARK VINA RESULT:      -8.7      2.205      3.379
REMARK  9 active torsions:
REMARK  status: ('A' for Active; 'I' for Inactive)
REMARK    1  A    between atoms: C_7  and  O_8 
REMARK    2  A    between atoms: O_8  and  C_9 
REMARK    3  A    between atoms: C_9  and  C_10 
REMARK    4  A    between atoms: C_10  and  O_11 
REMARK    5  A    between atoms: C_10  and  C_12 
REMARK    6  A    between atoms: C_12  and  N_13 
REMARK    7  A    between atoms: N_18  and  C_19 
REMARK    8  A    between atoms: C_19  and  C_20 
REMARK    9  A    between atoms: C_20  and  N_21 
ROOT
HETATM    1  N   UNL     1      24.568  44.649  50.347  1.00  0.00    -0.179 N 
HETATM    2  C   UNL     1      24.222  45.962  50.092  1.00  0.00     0.681 A 
HETATM    3  N   UNL     1      24.701  47.001  50.777  1.00  0.00    -0.234 N 
HETATM    4  H   UNL     1      24.544  47.969  50.559  1.00  0.00     0.174 HD
HETATM    5  H   UNL     1      25.215  46.796  51.644  1.00  0.00     0.174 HD
HETATM    6  N   UNL     1      23.319  46.097  49.040  1.00  0.00    -0.180 N 
HETATM    7  C   UNL     1      23.112  44.761  48.577  1.00  0.00     0.079 A 
HETATM    8  C   UNL     1      23.862  43.882  49.378  1.00  0.00     0.079 A 
HETATM    9  C   UNL     1      22.335  44.309  47.531  1.00  0.00     0.032 A 
HETATM   10  C   UNL     1      22.316  42.929  47.301  1.00  0.00     0.002 A 
HETATM   11  C   UNL     1      23.063  42.047  48.107  1.00  0.00     0.002 A 
HETATM   12  C   UNL     1      23.852  42.522  49.161  1.00  0.00     0.032 A 
ENDROOT
BRANCH   1  13
HETATM   13  C   UNL     1      25.553  44.137  51.320  1.00  0.00     0.181 C 
BRANCH  13  14
HETATM   14  C   UNL     1      27.006  44.391  50.903  1.00  0.00     0.161 C 
BRANCH  14  15
HETATM   15  C   UNL     1      27.995  43.817  51.928  1.00  0.00     0.209 C 
BRANCH  15  16
HETATM   16  O   UNL     1      27.822  44.583  53.123  1.00  0.00    -0.349 OA
BRANCH  16  17
HETATM   17  C   UNL     1      28.764  44.432  54.105  1.00  0.00     0.069 A 
HETATM   18  C   UNL     1      29.616  43.342  53.927  1.00  0.00     0.038 A 
HETATM   19  C   UNL     1      30.614  43.065  54.863  1.00  0.00     0.027 A 
HETATM   20  C   UNL     1      30.768  43.881  55.984  1.00  0.00     0.040 A 
HETATM   21  C   UNL     1      29.929  44.989  56.175  1.00  0.00    -0.038 A 
HETATM   22 CL   UNL     1      32.009  43.478  57.113  1.00  0.00    -0.084 Cl
HETATM   23  C   UNL     1      30.064  45.883  57.378  1.00  0.00     0.050 C 
HETATM   24  C   UNL     1      28.923  45.252  55.225  1.00  0.00     0.045 A 
ENDBRANCH  16  17
ENDBRANCH  15  16
ENDBRANCH  14  15
BRANCH  14  25
HETATM   25  O   UNL     1      27.242  43.766  49.623  1.00  0.00    -0.392 OA
HETATM   26  H   UNL     1      27.904  43.060  49.812  1.00  0.00     0.210 HD
ENDBRANCH  14  25
ENDBRANCH  13  14
ENDBRANCH   1  13
BRANCH   6  27
HETATM   27  C   UNL     1      22.774  47.321  48.441  1.00  0.00     0.175 C 
BRANCH  27  28
HETATM   28  C   UNL     1      21.236  47.399  48.529  1.00  0.00     0.256 C 
BRANCH  28  29
HETATM   29  N   UNL     1      20.751  48.422  49.540  1.00  0.00    -0.066 N 
HETATM   30  H   UNL     1      21.236  48.278  50.437  1.00  0.00     0.280 HD
HETATM   31  C   UNL     1      21.123  49.852  49.091  1.00  0.00     0.261 C 
HETATM   32  C   UNL     1      20.627  50.868  50.125  1.00  0.00     0.195 C 
HETATM   33  O   UNL     1      19.214  50.749  50.306  1.00  0.00    -0.388 OA
HETATM   34  C   UNL     1      18.847  49.463  50.807  1.00  0.00     0.195 C 
HETATM   35  C   UNL     1      19.243  48.363  49.816  1.00  0.00     0.261 C 
ENDBRANCH  28  29
ENDBRANCH  27  28
ENDBRANCH   6  27
TORSDOF 9
ENDMDL
MODEL 6
REMARK VINA RESULT:      -8.7      1.754      3.014
REMARK  9 active torsions:
REMARK  status: ('A' for Active; 'I' for Inactive)
REMARK    1  A    between atoms: C_7  and  O_8 
REMARK    2  A    between atoms: O_8  and  C_9 
REMARK    3  A    between atoms: C_9  and  C_10 
REMARK    4  A    between atoms: C_10  and  O_11 
REMARK    5  A    between atoms: C_10  and  C_12 
REMARK    6  A    between atoms: C_12  and  N_13 
REMARK    7  A    between atoms: N_18  and  C_19 
REMARK    8  A    between atoms: C_19  and  C_20 
REMARK    9  A    between atoms: C_20  and  N_21 
ROOT
HETATM    1  N   UNL     1      25.521  44.937  50.982  1.00  0.00    -0.179 N 
HETATM    2  C   UNL     1      25.329  46.293  50.801  1.00  0.00     0.681 A 
HETATM    3  N   UNL     1      26.026  47.233  51.440  1.00  0.00    -0.234 N 
HETATM    4  H   UNL     1      25.977  48.221  51.264  1.00  0.00     0.174 HD
HETATM    5  H   UNL     1      26.610  46.928  52.230  1.00  0.00     0.174 HD
HETATM    6  N   UNL     1      24.329  46.587  49.875  1.00  0.00    -0.180 N 
HETATM    7  C   UNL     1      23.887  45.308  49.414  1.00  0.00     0.079 A 
HETATM    8  C   UNL     1      24.603  44.308  50.095  1.00  0.00     0.079 A 
HETATM    9  C   UNL     1      22.932  45.003  48.466  1.00  0.00     0.032 A 
HETATM   10  C   UNL     1      22.696  43.648  48.213  1.00  0.00     0.002 A 
HETATM   11  C   UNL     1      23.410  42.644  48.899  1.00  0.00     0.002 A 
HETATM   12  C   UNL     1      24.380  42.970  49.853  1.00  0.00     0.032 A 
ENDROOT
BRANCH   1  13
HETATM   13  C   UNL     1      26.538  44.263  51.812  1.00  0.00     0.181 C 
BRANCH  13  14
HETATM   14  C   UNL     1      26.050  43.942  53.229  1.00  0.00     0.161 C 
BRANCH  14  15
HETATM   15  C   UNL     1      26.542  44.983  54.245  1.00  0.00     0.209 C 
BRANCH  15  16
HETATM   16  O   UNL     1      27.886  45.300  53.873  1.00  0.00    -0.349 OA
BRANCH  16  17
HETATM   17  C   UNL     1      28.877  44.954  54.751  1.00  0.00     0.069 A 
HETATM   18  C   UNL     1      29.597  43.815  54.393  1.00  0.00     0.038 A 
HETATM   19  C   UNL     1      30.627  43.345  55.209  1.00  0.00     0.027 A 
HETATM   20  C   UNL     1      30.946  44.015  56.390  1.00  0.00     0.040 A 
HETATM   21  C   UNL     1      30.242  45.170  56.762  1.00  0.00    -0.038 A 
HETATM   22 CL   UNL     1      32.219  43.375  57.364  1.00  0.00    -0.084 Cl
HETATM   23  C   UNL     1      30.555  45.910  58.034  1.00  0.00     0.050 C 
HETATM   24  C   UNL     1      29.201  45.628  55.931  1.00  0.00     0.045 A 
ENDBRANCH  16  17
ENDBRANCH  15  16
ENDBRANCH  14  15
BRANCH  14  25
HETATM   25  O   UNL     1      24.605  43.928  53.234  1.00  0.00    -0.392 OA
HETATM   26  H   UNL     1      24.368  43.327  53.979  1.00  0.00     0.210 HD
ENDBRANCH  14  25
ENDBRANCH  13  14
ENDBRANCH   1  13
BRANCH   6  27
HETATM   27  C   UNL     1      23.887  47.893  49.375  1.00  0.00     0.175 C 
BRANCH  27  28
HETATM   28  C   UNL     1      22.460  47.861  48.792  1.00  0.00     0.256 C 
BRANCH  28  29
HETATM   29  N   UNL     1      21.466  48.667  49.608  1.00  0.00    -0.066 N 
HETATM   30  H   UNL     1      21.610  48.479  50.610  1.00  0.00     0.280 HD
HETATM   31  C   UNL     1      21.713  50.180  49.428  1.00  0.00     0.261 C 
HETATM   32  C   UNL     1      20.702  50.975  50.261  1.00  0.00     0.195 C 
HETATM   33  O   UNL     1      19.365  50.635  49.885  1.00  0.00    -0.388 OA
HETATM   34  C   UNL     1      19.079  49.256  50.124  1.00  0.00     0.195 C 
HETATM   35  C   UNL     1      19.998  48.359  49.287  1.00  0.00     0.261 C 
ENDBRANCH  28  29
ENDBRANCH  27  28
ENDBRANCH   6  27
TORSDOF 9
ENDMDL
MODEL 7
REMARK VINA RESULT:      -8.7      1.646      2.752
REMARK  9 active torsions:
REMARK  status: ('A' for Active; 'I' for Inactive)
REMARK    1  A    between atoms: C_7  and  O_8 
REMARK    2  A    between atoms: O_8  and  C_9 
REMARK    3  A    between atoms: C_9  and  C_10 
REMARK    4  A    between atoms: C_10  and  O_11 
REMARK    5  A    between atoms: C_10  and  C_12 
REMARK    6  A    between atoms: C_12  and  N_13 
REMARK    7  A    between atoms: N_18  and  C_19 
REMARK    8  A    between atoms: C_19  and  C_20 
REMARK    9  A    between atoms: C_20  and  N_21 
ROOT
HETATM    1  N   UNL     1      23.789  46.915  49.194  1.00  0.00    -0.179 N 
HETATM    2  C   UNL     1      22.512  46.448  48.949  1.00  0.00     0.681 A 
HETATM    3  N   UNL     1      22.112  45.207  49.224  1.00  0.00    -0.234 N 
HETATM    4  H   UNL     1      21.171  44.863  49.145  1.00  0.00     0.174 HD
HETATM    5  H   UNL     1      22.839  44.521  49.467  1.00  0.00     0.174 HD
HETATM    6  N   UNL     1      21.675  47.409  48.385  1.00  0.00    -0.180 N 
HETATM    7  C   UNL     1      22.487  48.583  48.305  1.00  0.00     0.079 A 
HETATM    8  C   UNL     1      23.772  48.279  48.786  1.00  0.00     0.079 A 
HETATM    9  C   UNL     1      22.158  49.845  47.855  1.00  0.00     0.032 A 
HETATM   10  C   UNL     1      23.164  50.816  47.887  1.00  0.00     0.002 A 
HETATM   11  C   UNL     1      24.454  50.510  48.364  1.00  0.00     0.002 A 
HETATM   12  C   UNL     1      24.771  49.227  48.824  1.00  0.00     0.032 A 
ENDROOT
BRANCH   1  13
HETATM   13  C   UNL     1      24.906  46.213  49.854  1.00  0.00     0.181 C 
BRANCH  13  14
HETATM   14  C   UNL     1      25.043  46.553  51.342  1.00  0.00     0.161 C 
BRANCH  14  15
HETATM   15  C   UNL     1      25.434  45.320  52.170  1.00  0.00     0.209 C 
BRANCH  15  16
HETATM   16  O   UNL     1      25.996  45.817  53.387  1.00  0.00    -0.349 OA
BRANCH  16  17
HETATM   17  C   UNL     1      27.160  45.242  53.818  1.00  0.00     0.069 A 
HETATM   18  C   UNL     1      27.643  45.746  55.027  1.00  0.00     0.038 A 
HETATM   19  C   UNL     1      28.829  45.256  55.573  1.00  0.00     0.027 A 
HETATM   20  C   UNL     1      29.543  44.254  54.914  1.00  0.00     0.040 A 
HETATM   21  C   UNL     1      29.068  43.725  53.704  1.00  0.00    -0.038 A 
HETATM   22 CL   UNL     1      31.011  43.701  55.632  1.00  0.00    -0.084 Cl
HETATM   23  C   UNL     1      29.819  42.652  52.965  1.00  0.00     0.050 C 
HETATM   24  C   UNL     1      27.872  44.235  53.162  1.00  0.00     0.045 A 
ENDBRANCH  16  17
ENDBRANCH  15  16
ENDBRANCH  14  15
BRANCH  14  25
HETATM   25  O   UNL     1      26.061  47.566  51.500  1.00  0.00    -0.392 OA
HETATM   26  H   UNL     1      26.800  47.103  51.962  1.00  0.00     0.210 HD
ENDBRANCH  14  25
ENDBRANCH  13  14
ENDBRANCH   1  13
BRANCH   6  27
HETATM   27  C   UNL     1      20.251  47.311  48.048  1.00  0.00     0.175 C 
BRANCH  27  28
HETATM   28  C   UNL     1      19.329  47.775  49.195  1.00  0.00     0.256 C 
BRANCH  28  29
HETATM   29  N   UNL     1      18.846  49.204  49.026  1.00  0.00    -0.066 N 
HETATM   30  H   UNL     1      19.248  49.606  48.167  1.00  0.00     0.280 HD
HETATM   31  C   UNL     1      17.316  49.243  48.826  1.00  0.00     0.261 C 
HETATM   32  C   UNL     1      16.849  50.693  48.657  1.00  0.00     0.195 C 
HETATM   33  O   UNL     1      17.228  51.476  49.790  1.00  0.00    -0.388 OA
HETATM   34  C   UNL     1      18.647  51.533  49.949  1.00  0.00     0.195 C 
HETATM   35  C   UNL     1      19.221  50.132  50.189  1.00  0.00     0.261 C 
ENDBRANCH  28  29
ENDBRANCH  27  28
ENDBRANCH   6  27
TORSDOF 9
ENDMDL
MODEL 8
REMARK VINA RESULT:      -8.6      4.938     10.286
REMARK  9 active torsions:
REMARK  status: ('A' for Active; 'I' for Inactive)
REMARK    1  A    between atoms: C_7  and  O_8 
REMARK    2  A    between atoms: O_8  and  C_9 
REMARK    3  A    between atoms: C_9  and  C_10 
REMARK    4  A    between atoms: C_10  and  O_11 
REMARK    5  A    between atoms: C_10  and  C_12 
REMARK    6  A    between atoms: C_12  and  N_13 
REMARK    7  A    between atoms: N_18  and  C_19 
REMARK    8  A    between atoms: C_19  and  C_20 
REMARK    9  A    between atoms: C_20  and  N_21 
ROOT
HETATM    1  N   UNL     1      26.384  44.501  52.895  1.00  0.00    -0.179 N 
HETATM    2  C   UNL     1      26.406  43.225  52.364  1.00  0.00     0.681 A 
HETATM    3  N   UNL     1      25.510  42.772  51.487  1.00  0.00    -0.234 N 
HETATM    4  H   UNL     1      25.550  41.887  51.013  1.00  0.00     0.174 HD
HETATM    5  H   UNL     1      24.668  43.344  51.338  1.00  0.00     0.174 HD
HETATM    6  N   UNL     1      27.466  42.453  52.835  1.00  0.00    -0.180 N 
HETATM    7  C   UNL     1      28.185  43.331  53.704  1.00  0.00     0.079 A 
HETATM    8  C   UNL     1      27.522  44.569  53.748  1.00  0.00     0.079 A 
HETATM    9  C   UNL     1      29.343  43.100  54.418  1.00  0.00     0.032 A 
HETATM   10  C   UNL     1      29.830  44.152  55.200  1.00  0.00     0.002 A 
HETATM   11  C   UNL     1      29.162  45.392  55.249  1.00  0.00     0.002 A 
HETATM   12  C   UNL     1      27.992  45.614  54.514  1.00  0.00     0.032 A 
ENDROOT
BRANCH   1  13
HETATM   13  C   UNL     1      25.468  45.610  52.567  1.00  0.00     0.181 C 
BRANCH  13  14
HETATM   14  C   UNL     1      25.876  46.382  51.307  1.00  0.00     0.161 C 
BRANCH  14  15
HETATM   15  C   UNL     1      24.741  46.417  50.274  1.00  0.00     0.209 C 
BRANCH  15  16
HETATM   16  O   UNL     1      24.989  47.555  49.445  1.00  0.00    -0.349 OA
BRANCH  16  17
HETATM   17  C   UNL     1      23.934  48.390  49.197  1.00  0.00     0.069 A 
HETATM   18  C   UNL     1      24.294  49.693  48.853  1.00  0.00     0.038 A 
HETATM   19  C   UNL     1      23.315  50.651  48.587  1.00  0.00     0.027 A 
HETATM   20  C   UNL     1      21.964  50.309  48.661  1.00  0.00     0.040 A 
HETATM   21  C   UNL     1      21.580  49.001  48.994  1.00  0.00    -0.038 A 
HETATM   22 CL   UNL     1      20.800  51.542  48.338  1.00  0.00    -0.084 Cl
HETATM   23  C   UNL     1      20.133  48.604  49.090  1.00  0.00     0.050 C 
HETATM   24  C   UNL     1      22.581  48.048  49.265  1.00  0.00     0.045 A 
ENDBRANCH  16  17
ENDBRANCH  15  16
ENDBRANCH  14  15
BRANCH  14  25
HETATM   25  O   UNL     1      26.216  47.736  51.677  1.00  0.00    -0.392 OA
HETATM   26  H   UNL     1      26.541  48.146  50.840  1.00  0.00     0.210 HD
ENDBRANCH  14  25
ENDBRANCH  13  14
ENDBRANCH   1  13
BRANCH   6  27
HETATM   27  C   UNL     1      27.855  41.090  52.458  1.00  0.00     0.175 C 
BRANCH  27  28
HETATM   28  C   UNL     1      27.984  40.902  50.932  1.00  0.00     0.256 C 
BRANCH  28  29
HETATM   29  N   UNL     1      28.443  39.510  50.542  1.00  0.00    -0.066 N 
HETATM   30  H   UNL     1      27.642  38.862  50.570  1.00  0.00     0.280 HD
HETATM   31  C   UNL     1      28.943  39.489  49.082  1.00  0.00     0.261 C 
HETATM   32  C   UNL     1      29.399  38.074  48.707  1.00  0.00     0.195 C 
HETATM   33  O   UNL     1      30.425  37.627  49.597  1.00  0.00    -0.388 OA
HETATM   34  C   UNL     1      29.963  37.551  50.947  1.00  0.00     0.195 C 
HETATM   35  C   UNL     1      29.535  38.933  51.452  1.00  0.00     0.261 C 
ENDBRANCH  28  29
ENDBRANCH  27  28
ENDBRANCH   6  27
TORSDOF 9
ENDMDL
MODEL 9
REMARK VINA RESULT:      -8.4      4.042      5.494
REMARK  9 active torsions:
REMARK  status: ('A' for Active; 'I' for Inactive)
REMARK    1  A    between atoms: C_7  and  O_8 
REMARK    2  A    between atoms: O_8  and  C_9 
REMARK    3  A    between atoms: C_9  and  C_10 
REMARK    4  A    between atoms: C_10  and  O_11 
REMARK    5  A    between atoms: C_10  and  C_12 
REMARK    6  A    between atoms: C_12  and  N_13 
REMARK    7  A    between atoms: N_18  and  C_19 
REMARK    8  A    between atoms: C_19  and  C_20 
REMARK    9  A    between atoms: C_20  and  N_21 
ROOT
HETATM    1  N   UNL     1      25.511  43.517  51.310  1.00  0.00    -0.179 N 
HETATM    2  C   UNL     1      24.368  43.456  50.536  1.00  0.00     0.681 A 
HETATM    3  N   UNL     1      23.434  44.406  50.518  1.00  0.00    -0.234 N 
HETATM    4  H   UNL     1      22.641  44.438  49.901  1.00  0.00     0.174 HD
HETATM    5  H   UNL     1      23.487  45.132  51.245  1.00  0.00     0.174 HD
HETATM    6  N   UNL     1      24.288  42.297  49.768  1.00  0.00    -0.180 N 
HETATM    7  C   UNL     1      25.498  41.593  50.059  1.00  0.00     0.079 A 
HETATM    8  C   UNL     1      26.234  42.330  51.004  1.00  0.00     0.079 A 
HETATM    9  C   UNL     1      25.958  40.396  49.552  1.00  0.00     0.032 A 
HETATM   10  C   UNL     1      27.191  39.935  50.023  1.00  0.00     0.002 A 
HETATM   11  C   UNL     1      27.927  40.670  50.974  1.00  0.00     0.002 A 
HETATM   12  C   UNL     1      27.451  41.887  51.475  1.00  0.00     0.032 A 
ENDROOT
BRANCH   1  13
HETATM   13  C   UNL     1      25.969  44.622  52.175  1.00  0.00     0.181 C 
BRANCH  13  14
HETATM   14  C   UNL     1      25.951  44.271  53.667  1.00  0.00     0.161 C 
BRANCH  14  15
HETATM   15  C   UNL     1      26.427  45.448  54.530  1.00  0.00     0.209 C 
BRANCH  15  16
HETATM   16  O   UNL     1      27.770  45.724  54.125  1.00  0.00    -0.349 OA
BRANCH  16  17
HETATM   17  C   UNL     1      28.774  45.246  54.921  1.00  0.00     0.069 A 
HETATM   18  C   UNL     1      29.397  44.094  54.440  1.00  0.00     0.038 A 
HETATM   19  C   UNL     1      30.430  43.494  55.163  1.00  0.00     0.027 A 
HETATM   20  C   UNL     1      30.849  44.046  56.374  1.00  0.00     0.040 A 
HETATM   21  C   UNL     1      30.244  45.211  56.869  1.00  0.00    -0.038 A 
HETATM   22 CL   UNL     1      32.119  43.249  57.228  1.00  0.00    -0.084 Cl
HETATM   23  C   UNL     1      30.667  45.824  58.176  1.00  0.00     0.050 C 
HETATM   24  C   UNL     1      29.199  45.801  56.131  1.00  0.00     0.045 A 
ENDBRANCH  16  17
ENDBRANCH  15  16
ENDBRANCH  14  15
BRANCH  14  25
HETATM   25  O   UNL     1      24.602  43.923  54.050  1.00  0.00    -0.392 OA
HETATM   26  H   UNL     1      24.560  44.125  55.015  1.00  0.00     0.210 HD
ENDBRANCH  14  25
ENDBRANCH  13  14
ENDBRANCH   1  13
BRANCH   6  27
HETATM   27  C   UNL     1      23.270  41.907  48.786  1.00  0.00     0.175 C 
BRANCH  27  28
HETATM   28  C   UNL     1      23.784  41.972  47.332  1.00  0.00     0.256 C 
BRANCH  28  29
HETATM   29  N   UNL     1      23.556  43.323  46.681  1.00  0.00    -0.066 N 
HETATM   30  H   UNL     1      24.370  43.930  46.852  1.00  0.00     0.280 HD
HETATM   31  C   UNL     1      23.458  43.181  45.147  1.00  0.00     0.261 C 
HETATM   32  C   UNL     1      23.231  44.556  44.509  1.00  0.00     0.195 C 
HETATM   33  O   UNL     1      22.047  45.161  45.035  1.00  0.00    -0.388 OA
HETATM   34  C   UNL     1      22.144  45.388  46.442  1.00  0.00     0.195 C 
HETATM   35  C   UNL     1      22.313  44.063  47.193  1.00  0.00     0.261 C 
ENDBRANCH  28  29
ENDBRANCH  27  28
ENDBRANCH   6  27
TORSDOF 9
ENDMDL
MODEL 10
REMARK VINA RESULT:      -8.4      4.324     10.477
REMARK  9 active torsions:
REMARK  status: ('A' for Active; 'I' for Inactive)
REMARK    1  A    between atoms: C_7  and  O_8 
REMARK    2  A    between atoms: O_8  and  C_9 
REMARK    3  A    between atoms: C_9  and  C_10 
REMARK    4  A    between atoms: C_10  and  O_11 
REMARK    5  A    between atoms: C_10  and  C_12 
REMARK    6  A    between atoms: C_12  and  N_13 
REMARK    7  A    between atoms: N_18  and  C_19 
REMARK    8  A    between atoms: C_19  and  C_20 
REMARK    9  A    between atoms: C_20  and  N_21 
ROOT
HETATM    1  N   UNL     1      23.754  47.991  48.770  1.00  0.00    -0.179 N 
HETATM    2  C   UNL     1      23.922  46.829  49.499  1.00  0.00     0.681 A 
HETATM    3  N   UNL     1      22.960  45.925  49.684  1.00  0.00    -0.234 N 
HETATM    4  H   UNL     1      23.074  45.031  50.127  1.00  0.00     0.174 HD
HETATM    5  H   UNL     1      22.004  46.195  49.418  1.00  0.00     0.174 HD
HETATM    6  N   UNL     1      25.206  46.691  50.022  1.00  0.00    -0.180 N 
HETATM    7  C   UNL     1      25.907  47.844  49.551  1.00  0.00     0.079 A 
HETATM    8  C   UNL     1      25.022  48.638  48.801  1.00  0.00     0.079 A 
HETATM    9  C   UNL     1      27.225  48.205  49.741  1.00  0.00     0.032 A 
HETATM   10  C   UNL     1      27.648  49.405  49.160  1.00  0.00     0.002 A 
HETATM   11  C   UNL     1      26.760  50.204  48.412  1.00  0.00     0.002 A 
HETATM   12  C   UNL     1      25.427  49.821  48.223  1.00  0.00     0.032 A 
ENDROOT
BRANCH   1  13
HETATM   13  C   UNL     1      22.568  48.427  48.008  1.00  0.00     0.181 C 
BRANCH  13  14
HETATM   14  C   UNL     1      21.555  49.205  48.855  1.00  0.00     0.161 C 
BRANCH  14  15
HETATM   15  C   UNL     1      20.656  50.094  47.984  1.00  0.00     0.209 C 
BRANCH  15  16
HETATM   16  O   UNL     1      20.245  51.184  48.814  1.00  0.00    -0.349 OA
BRANCH  16  17
HETATM   17  C   UNL     1      18.944  51.594  48.709  1.00  0.00     0.069 A 
HETATM   18  C   UNL     1      18.459  52.276  49.826  1.00  0.00     0.038 A 
HETATM   19  C   UNL     1      17.143  52.738  49.855  1.00  0.00     0.027 A 
HETATM   20  C   UNL     1      16.301  52.523  48.764  1.00  0.00     0.040 A 
HETATM   21  C   UNL     1      16.772  51.849  47.626  1.00  0.00    -0.038 A 
HETATM   22 CL   UNL     1      14.679  53.104  48.867  1.00  0.00    -0.084 Cl
HETATM   23  C   UNL     1      15.886  51.594  46.438  1.00  0.00     0.050 C 
HETATM   24  C   UNL     1      18.102  51.384  47.615  1.00  0.00     0.045 A 
ENDBRANCH  16  17
ENDBRANCH  15  16
ENDBRANCH  14  15
BRANCH  14  25
HETATM   25  O   UNL     1      20.729  48.266  49.578  1.00  0.00    -0.392 OA
HETATM   26  H   UNL     1      20.295  47.728  48.874  1.00  0.00     0.210 HD
ENDBRANCH  14  25
ENDBRANCH  13  14
ENDBRANCH   1  13
BRANCH   6  27
HETATM   27  C   UNL     1      25.778  45.576  50.785  1.00  0.00     0.175 C 
BRANCH  27  28
HETATM   28  C   UNL     1      25.463  45.658  52.293  1.00  0.00     0.256 C 
BRANCH  28  29
HETATM   29  N   UNL     1      26.658  46.081  53.127  1.00  0.00    -0.066 N 
HETATM   30  H   UNL     1      27.403  46.434  52.509  1.00  0.00     0.280 HD
HETATM   31  C   UNL     1      26.289  47.263  54.049  1.00  0.00     0.261 C 
HETATM   32  C   UNL     1      27.509  47.677  54.880  1.00  0.00     0.195 C 
HETATM   33  O   UNL     1      27.989  46.571  55.648  1.00  0.00    -0.388 OA
HETATM   34  C   UNL     1      28.423  45.493  54.816  1.00  0.00     0.195 C 
HETATM   35  C   UNL     1      27.259  44.955  53.978  1.00  0.00     0.261 C 
ENDBRANCH  28  29
ENDBRANCH  27  28
ENDBRANCH   6  27
TORSDOF 9
ENDMDL
