MODEL 1
REMARK VINA RESULT:      -9.0      0.000      0.000
REMARK  2 active torsions:
REMARK  status: ('A' for Active; 'I' for Inactive)
REMARK    1  A    between atoms: C_5  and  C_6 
REMARK    2  A    between atoms: C_9  and  C_10 
ROOT
HETATM    1  C   UNL     1      22.216  49.206  48.203  1.00  0.00     0.220 C 
HETATM    2  N   UNL     1      22.481  48.048  49.038  1.00  0.00    -0.126 NA
HETATM    3  N   UNL     1      23.827  48.126  49.459  1.00  0.00    -0.126 NA
HETATM    4  C   UNL     1      24.342  46.772  49.531  1.00  0.00     0.220 C 
HETATM    5  N   UNL     1      23.222  45.945  49.165  1.00  0.00    -0.324 N 
HETATM    6  C   UNL     1      22.197  46.743  48.669  1.00  0.00     0.315 C 
HETATM    7  O   UNL     1      21.284  46.345  47.967  1.00  0.00    -0.252 OA
HETATM    8  C   UNL     1      24.454  49.162  48.786  1.00  0.00     0.315 C 
HETATM    9  O   UNL     1      25.649  49.338  48.627  1.00  0.00    -0.252 OA
HETATM   10  N   UNL     1      23.455  49.940  48.208  1.00  0.00    -0.324 N 
HETATM   11  H   UNL     1      23.301  44.984  48.869  1.00  0.00     0.165 HD
HETATM   12  H   UNL     1      23.695  50.649  47.534  1.00  0.00     0.165 HD
ENDROOT
BRANCH   1  13
HETATM   13  C   UNL     1      21.061  50.037  48.706  1.00  0.00    -0.020 A 
HETATM   14  C   UNL     1      20.192  49.554  49.698  1.00  0.00     0.011 A 
HETATM   15  C   UNL     1      19.092  50.307  50.115  1.00  0.00     0.007 A 
HETATM   16  C   UNL     1      18.840  51.562  49.553  1.00  0.00    -0.062 A 
HETATM   17  C   UNL     1      17.655  52.371  49.989  1.00  0.00     0.048 C 
HETATM   18  C   UNL     1      19.732  52.071  48.603  1.00  0.00     0.007 A 
HETATM   19  C   UNL     1      20.830  51.317  48.181  1.00  0.00     0.011 A 
ENDBRANCH   1  13
BRANCH   4  20
HETATM   20  C   UNL     1      24.884  46.424  50.896  1.00  0.00    -0.020 A 
HETATM   21  C   UNL     1      25.692  47.323  51.614  1.00  0.00     0.011 A 
HETATM   22  C   UNL     1      26.236  46.968  52.849  1.00  0.00     0.007 A 
HETATM   23  C   UNL     1      25.982  45.707  53.397  1.00  0.00    -0.062 A 
HETATM   24  C   UNL     1      26.574  45.321  54.721  1.00  0.00     0.048 C 
HETATM   25  C   UNL     1      25.135  44.828  52.716  1.00  0.00     0.007 A 
HETATM   26  C   UNL     1      24.593  45.180  51.477  1.00  0.00     0.011 A 
ENDBRANCH   4  20
TORSDOF 2
ENDMDL
MODEL 2
REMARK VINA RESULT:      -9.0      0.070      7.216
REMARK  2 active torsions:
REMARK  status: ('A' for Active; 'I' for Inactive)
REMARK    1  A    between atoms: C_5  and  C_6 
REMARK    2  A    between atoms: C_9  and  C_10 
ROOT
HETATM    1  C   UNL     1      24.317  46.710  49.566  1.00  0.00     0.220 C 
HETATM    2  N   UNL     1      23.805  48.066  49.484  1.00  0.00    -0.126 NA
HETATM    3  N   UNL     1      22.458  47.988  49.066  1.00  0.00    -0.126 NA
HETATM    4  C   UNL     1      22.195  49.138  48.223  1.00  0.00     0.220 C 
HETATM    5  N   UNL     1      23.437  49.869  48.218  1.00  0.00    -0.324 N 
HETATM    6  C   UNL     1      24.434  49.094  48.799  1.00  0.00     0.315 C 
HETATM    7  O   UNL     1      25.629  49.263  48.636  1.00  0.00    -0.252 OA
HETATM    8  C   UNL     1      22.169  46.681  48.711  1.00  0.00     0.315 C 
HETATM    9  O   UNL     1      21.254  46.279  48.014  1.00  0.00    -0.252 OA
HETATM   10  N   UNL     1      23.194  45.883  49.211  1.00  0.00    -0.324 N 
HETATM   11  H   UNL     1      23.677  50.571  47.536  1.00  0.00     0.165 HD
HETATM   12  H   UNL     1      23.269  44.920  48.924  1.00  0.00     0.165 HD
ENDROOT
BRANCH   1  13
HETATM   13  C   UNL     1      24.861  46.372  50.933  1.00  0.00    -0.020 A 
HETATM   14  C   UNL     1      25.647  47.288  51.653  1.00  0.00     0.011 A 
HETATM   15  C   UNL     1      26.193  46.944  52.891  1.00  0.00     0.007 A 
HETATM   16  C   UNL     1      25.963  45.680  53.440  1.00  0.00    -0.062 A 
HETATM   17  C   UNL     1      26.556  45.301  54.764  1.00  0.00     0.048 C 
HETATM   18  C   UNL     1      25.137  44.783  52.753  1.00  0.00     0.007 A 
HETATM   19  C   UNL     1      24.594  45.123  51.512  1.00  0.00     0.011 A 
ENDBRANCH   1  13
BRANCH   4  20
HETATM   20  C   UNL     1      21.044  49.978  48.721  1.00  0.00    -0.020 A 
HETATM   21  C   UNL     1      20.134  49.482  49.670  1.00  0.00     0.011 A 
HETATM   22  C   UNL     1      19.039  50.244  50.080  1.00  0.00     0.007 A 
HETATM   23  C   UNL     1      18.830  51.522  49.553  1.00  0.00    -0.062 A 
HETATM   24  C   UNL     1      17.649  52.339  49.986  1.00  0.00     0.048 C 
HETATM   25  C   UNL     1      19.761  52.045  48.650  1.00  0.00     0.007 A 
HETATM   26  C   UNL     1      20.856  51.281  48.236  1.00  0.00     0.011 A 
ENDBRANCH   4  20
TORSDOF 2
ENDMDL
MODEL 3
REMARK VINA RESULT:      -8.8      4.551      9.220
REMARK  2 active torsions:
REMARK  status: ('A' for Active; 'I' for Inactive)
REMARK    1  A    between atoms: C_5  and  C_6 
REMARK    2  A    between atoms: C_9  and  C_10 
ROOT
HETATM    1  C   UNL     1      27.326  43.327  53.557  1.00  0.00     0.220 C 
HETATM    2  N   UNL     1      27.413  43.964  52.255  1.00  0.00    -0.126 NA
HETATM    3  N   UNL     1      26.284  44.800  52.115  1.00  0.00    -0.126 NA
HETATM    4  C   UNL     1      25.890  44.772  50.719  1.00  0.00     0.220 C 
HETATM    5  N   UNL     1      26.864  43.915  50.092  1.00  0.00    -0.324 N 
HETATM    6  C   UNL     1      27.623  43.281  51.068  1.00  0.00     0.315 C 
HETATM    7  O   UNL     1      28.267  42.262  50.895  1.00  0.00    -0.252 OA
HETATM    8  C   UNL     1      25.417  44.574  53.172  1.00  0.00     0.315 C 
HETATM    9  O   UNL     1      24.231  44.841  53.238  1.00  0.00    -0.252 OA
HETATM   10  N   UNL     1      26.126  43.868  54.139  1.00  0.00    -0.324 N 
HETATM   11  H   UNL     1      26.738  43.482  49.190  1.00  0.00     0.165 HD
HETATM   12  H   UNL     1      25.640  43.455  54.919  1.00  0.00     0.165 HD
ENDROOT
BRANCH   1  13
HETATM   13  C   UNL     1      28.540  43.584  54.416  1.00  0.00    -0.020 A 
HETATM   14  C   UNL     1      29.561  42.627  54.544  1.00  0.00     0.011 A 
HETATM   15  C   UNL     1      30.651  42.851  55.386  1.00  0.00     0.007 A 
HETATM   16  C   UNL     1      30.749  44.039  56.117  1.00  0.00    -0.062 A 
HETATM   17  C   UNL     1      31.912  44.281  57.032  1.00  0.00     0.048 C 
HETATM   18  C   UNL     1      29.763  45.019  55.953  1.00  0.00     0.007 A 
HETATM   19  C   UNL     1      28.669  44.794  55.115  1.00  0.00     0.011 A 
ENDBRANCH   1  13
BRANCH   4  20
HETATM   20  C   UNL     1      25.854  46.145  50.093  1.00  0.00    -0.020 A 
HETATM   21  C   UNL     1      27.033  46.806  49.709  1.00  0.00     0.011 A 
HETATM   22  C   UNL     1      26.992  48.099  49.186  1.00  0.00     0.007 A 
HETATM   23  C   UNL     1      25.770  48.760  49.030  1.00  0.00    -0.062 A 
HETATM   24  C   UNL     1      25.725  50.153  48.476  1.00  0.00     0.048 C 
HETATM   25  C   UNL     1      24.588  48.089  49.358  1.00  0.00     0.007 A 
HETATM   26  C   UNL     1      24.628  46.795  49.886  1.00  0.00     0.011 A 
ENDBRANCH   4  20
TORSDOF 2
ENDMDL
MODEL 4
REMARK VINA RESULT:      -8.3      1.545      7.276
REMARK  2 active torsions:
REMARK  status: ('A' for Active; 'I' for Inactive)
REMARK    1  A    between atoms: C_5  and  C_6 
REMARK    2  A    between atoms: C_9  and  C_10 
ROOT
HETATM    1  C   UNL     1      26.029  46.220  50.881  1.00  0.00     0.220 C 
HETATM    2  N   UNL     1      25.455  47.481  50.448  1.00  0.00    -0.126 NA
HETATM    3  N   UNL     1      24.132  47.223  50.026  1.00  0.00    -0.126 NA
HETATM    4  C   UNL     1      23.847  48.112  48.915  1.00  0.00     0.220 C 
HETATM    5  N   UNL     1      25.050  48.889  48.763  1.00  0.00    -0.324 N 
HETATM    6  C   UNL     1      26.059  48.342  49.546  1.00  0.00     0.315 C 
HETATM    7  O   UNL     1      27.251  48.536  49.380  1.00  0.00    -0.252 OA
HETATM    8  C   UNL     1      23.923  45.854  50.000  1.00  0.00     0.315 C 
HETATM    9  O   UNL     1      23.059  45.239  49.400  1.00  0.00    -0.252 OA
HETATM   10  N   UNL     1      24.964  45.267  50.712  1.00  0.00    -0.324 N 
HETATM   11  H   UNL     1      25.283  49.414  47.935  1.00  0.00     0.165 HD
HETATM   12  H   UNL     1      25.099  44.269  50.676  1.00  0.00     0.165 HD
ENDROOT
BRANCH   1  13
HETATM   13  C   UNL     1      26.532  46.264  52.303  1.00  0.00    -0.020 A 
HETATM   14  C   UNL     1      27.222  45.178  52.868  1.00  0.00     0.011 A 
HETATM   15  C   UNL     1      27.632  45.206  54.202  1.00  0.00     0.007 A 
HETATM   16  C   UNL     1      27.366  46.321  55.001  1.00  0.00    -0.062 A 
HETATM   17  C   UNL     1      27.795  46.353  56.438  1.00  0.00     0.048 C 
HETATM   18  C   UNL     1      26.727  47.427  54.430  1.00  0.00     0.007 A 
HETATM   19  C   UNL     1      26.312  47.399  53.097  1.00  0.00     0.011 A 
ENDBRANCH   1  13
BRANCH   4  20
HETATM   20  C   UNL     1      22.636  48.979  49.155  1.00  0.00    -0.020 A 
HETATM   21  C   UNL     1      22.764  50.340  49.481  1.00  0.00     0.011 A 
HETATM   22  C   UNL     1      21.639  51.119  49.759  1.00  0.00     0.007 A 
HETATM   23  C   UNL     1      20.360  50.556  49.714  1.00  0.00    -0.062 A 
HETATM   24  C   UNL     1      19.152  51.390  50.021  1.00  0.00     0.048 C 
HETATM   25  C   UNL     1      20.221  49.217  49.337  1.00  0.00     0.007 A 
HETATM   26  C   UNL     1      21.346  48.435  49.062  1.00  0.00     0.011 A 
ENDBRANCH   4  20
TORSDOF 2
ENDMDL
MODEL 5
REMARK VINA RESULT:      -8.2      3.546      8.096
REMARK  2 active torsions:
REMARK  status: ('A' for Active; 'I' for Inactive)
REMARK    1  A    between atoms: C_5  and  C_6 
REMARK    2  A    between atoms: C_9  and  C_10 
ROOT
HETATM    1  C   UNL     1      20.535  48.403  48.581  1.00  0.00     0.220 C 
HETATM    2  N   UNL     1      19.582  49.414  48.161  1.00  0.00    -0.126 NA
HETATM    3  N   UNL     1      18.675  49.612  49.226  1.00  0.00    -0.126 NA
HETATM    4  C   UNL     1      17.375  49.891  48.646  1.00  0.00     0.220 C 
HETATM    5  N   UNL     1      17.607  49.872  47.225  1.00  0.00    -0.324 N 
HETATM    6  C   UNL     1      18.879  49.373  46.969  1.00  0.00     0.315 C 
HETATM    7  O   UNL     1      19.241  48.909  45.902  1.00  0.00    -0.252 OA
HETATM    8  C   UNL     1      18.903  48.652  50.200  1.00  0.00     0.315 C 
HETATM    9  O   UNL     1      18.149  48.290  51.084  1.00  0.00    -0.252 OA
HETATM   10  N   UNL     1      20.139  48.075  49.925  1.00  0.00    -0.324 N 
HETATM   11  H   UNL     1      16.879  49.776  46.535  1.00  0.00     0.165 HD
HETATM   12  H   UNL     1      20.424  47.239  50.411  1.00  0.00     0.165 HD
ENDROOT
BRANCH   1  13
HETATM   13  C   UNL     1      21.965  48.881  48.510  1.00  0.00    -0.020 A 
HETATM   14  C   UNL     1      22.311  50.048  47.809  1.00  0.00     0.011 A 
HETATM   15  C   UNL     1      23.643  50.450  47.701  1.00  0.00     0.007 A 
HETATM   16  C   UNL     1      24.660  49.698  48.296  1.00  0.00    -0.062 A 
HETATM   17  C   UNL     1      26.094  50.119  48.175  1.00  0.00     0.048 C 
HETATM   18  C   UNL     1      24.317  48.564  49.041  1.00  0.00     0.007 A 
HETATM   19  C   UNL     1      22.984  48.158  49.146  1.00  0.00     0.011 A 
ENDBRANCH   1  13
BRANCH   4  20
HETATM   20  C   UNL     1      16.798  51.206  49.111  1.00  0.00    -0.020 A 
HETATM   21  C   UNL     1      15.424  51.482  49.000  1.00  0.00     0.011 A 
HETATM   22  C   UNL     1      14.910  52.723  49.378  1.00  0.00     0.007 A 
HETATM   23  C   UNL     1      15.756  53.716  49.879  1.00  0.00    -0.062 A 
HETATM   24  C   UNL     1      15.206  55.053  50.278  1.00  0.00     0.048 C 
HETATM   25  C   UNL     1      17.115  53.431  50.045  1.00  0.00     0.007 A 
HETATM   26  C   UNL     1      17.632  52.190  49.663  1.00  0.00     0.011 A 
ENDBRANCH   4  20
TORSDOF 2
ENDMDL
MODEL 6
REMARK VINA RESULT:      -8.0      3.435      8.318
REMARK  2 active torsions:
REMARK  status: ('A' for Active; 'I' for Inactive)
REMARK    1  A    between atoms: C_5  and  C_6 
REMARK    2  A    between atoms: C_9  and  C_10 
ROOT
HETATM    1  C   UNL     1      20.827  48.691  49.136  1.00  0.00     0.220 C 
HETATM    2  N   UNL     1      19.972  48.958  47.993  1.00  0.00    -0.126 NA
HETATM    3  N   UNL     1      18.977  49.870  48.410  1.00  0.00    -0.126 NA
HETATM    4  C   UNL     1      17.756  49.537  47.702  1.00  0.00     0.220 C 
HETATM    5  N   UNL     1      18.124  48.431  46.857  1.00  0.00    -0.324 N 
HETATM    6  C   UNL     1      19.387  47.974  47.213  1.00  0.00     0.315 C 
HETATM    7  O   UNL     1      19.828  46.870  46.947  1.00  0.00    -0.252 OA
HETATM    8  C   UNL     1      19.060  50.034  49.783  1.00  0.00     0.315 C 
HETATM    9  O   UNL     1      18.206  50.461  50.539  1.00  0.00    -0.252 OA
HETATM   10  N   UNL     1      20.286  49.513  50.186  1.00  0.00    -0.324 N 
HETATM   11  H   UNL     1      17.462  47.802  46.429  1.00  0.00     0.165 HD
HETATM   12  H   UNL     1      20.479  49.379  51.166  1.00  0.00     0.165 HD
ENDROOT
BRANCH   1  13
HETATM   13  C   UNL     1      22.279  49.000  48.864  1.00  0.00    -0.020 A 
HETATM   14  C   UNL     1      23.307  48.204  49.398  1.00  0.00     0.011 A 
HETATM   15  C   UNL     1      24.648  48.532  49.189  1.00  0.00     0.007 A 
HETATM   16  C   UNL     1      24.993  49.659  48.437  1.00  0.00    -0.062 A 
HETATM   17  C   UNL     1      26.431  50.022  48.218  1.00  0.00     0.048 C 
HETATM   18  C   UNL     1      23.974  50.425  47.858  1.00  0.00     0.007 A 
HETATM   19  C   UNL     1      22.632  50.101  48.071  1.00  0.00     0.011 A 
ENDBRANCH   1  13
BRANCH   4  20
HETATM   20  C   UNL     1      17.203  50.698  46.911  1.00  0.00    -0.020 A 
HETATM   21  C   UNL     1      16.022  51.352  47.301  1.00  0.00     0.011 A 
HETATM   22  C   UNL     1      15.488  52.387  46.530  1.00  0.00     0.007 A 
HETATM   23  C   UNL     1      16.125  52.793  45.353  1.00  0.00    -0.062 A 
HETATM   24  C   UNL     1      15.547  53.897  44.519  1.00  0.00     0.048 C 
HETATM   25  C   UNL     1      17.330  52.184  44.988  1.00  0.00     0.007 A 
HETATM   26  C   UNL     1      17.863  51.146  45.757  1.00  0.00     0.011 A 
ENDBRANCH   4  20
TORSDOF 2
ENDMDL
MODEL 7
REMARK VINA RESULT:      -8.0      3.478      5.350
REMARK  2 active torsions:
REMARK  status: ('A' for Active; 'I' for Inactive)
REMARK    1  A    between atoms: C_5  and  C_6 
REMARK    2  A    between atoms: C_9  and  C_10 
ROOT
HETATM    1  C   UNL     1      17.632  49.467  47.774  1.00  0.00     0.220 C 
HETATM    2  N   UNL     1      18.862  49.817  48.461  1.00  0.00    -0.126 NA
HETATM    3  N   UNL     1      19.861  48.914  48.035  1.00  0.00    -0.126 NA
HETATM    4  C   UNL     1      20.735  48.664  49.165  1.00  0.00     0.220 C 
HETATM    5  N   UNL     1      20.201  49.488  50.218  1.00  0.00    -0.324 N 
HETATM    6  C   UNL     1      18.964  49.992  49.832  1.00  0.00     0.315 C 
HETATM    7  O   UNL     1      18.117  50.416  50.598  1.00  0.00    -0.252 OA
HETATM    8  C   UNL     1      19.274  47.918  47.270  1.00  0.00     0.315 C 
HETATM    9  O   UNL     1      19.721  46.816  47.005  1.00  0.00    -0.252 OA
HETATM   10  N   UNL     1      17.999  48.359  46.931  1.00  0.00    -0.324 N 
HETATM   11  H   UNL     1      20.411  49.362  51.196  1.00  0.00     0.165 HD
HETATM   12  H   UNL     1      17.338  47.720  46.518  1.00  0.00     0.165 HD
ENDROOT
BRANCH   1  13
HETATM   13  C   UNL     1      17.056  50.616  46.984  1.00  0.00    -0.020 A 
HETATM   14  C   UNL     1      15.679  50.893  46.998  1.00  0.00     0.011 A 
HETATM   15  C   UNL     1      15.148  51.922  46.218  1.00  0.00     0.007 A 
HETATM   16  C   UNL     1      15.982  52.701  45.410  1.00  0.00    -0.062 A 
HETATM   17  C   UNL     1      15.416  53.801  44.563  1.00  0.00     0.048 C 
HETATM   18  C   UNL     1      17.361  52.464  45.433  1.00  0.00     0.007 A 
HETATM   19  C   UNL     1      17.893  51.431  46.209  1.00  0.00     0.011 A 
ENDBRANCH   1  13
BRANCH   4  20
HETATM   20  C   UNL     1      22.180  48.986  48.868  1.00  0.00    -0.020 A 
HETATM   21  C   UNL     1      23.224  48.194  49.376  1.00  0.00     0.011 A 
HETATM   22  C   UNL     1      24.559  48.534  49.144  1.00  0.00     0.007 A 
HETATM   23  C   UNL     1      24.879  49.672  48.398  1.00  0.00    -0.062 A 
HETATM   24  C   UNL     1      26.312  50.043  48.157  1.00  0.00     0.048 C 
HETATM   25  C   UNL     1      23.846  50.434  47.843  1.00  0.00     0.007 A 
HETATM   26  C   UNL     1      22.510  50.097  48.078  1.00  0.00     0.011 A 
ENDBRANCH   4  20
TORSDOF 2
ENDMDL
MODEL 8
REMARK VINA RESULT:      -8.0     10.577     12.933
REMARK  2 active torsions:
REMARK  status: ('A' for Active; 'I' for Inactive)
REMARK    1  A    between atoms: C_5  and  C_6 
REMARK    2  A    between atoms: C_9  and  C_10 
ROOT
HETATM    1  C   UNL     1      30.166  50.296  39.467  1.00  0.00     0.220 C 
HETATM    2  N   UNL     1      28.737  50.551  39.467  1.00  0.00    -0.126 NA
HETATM    3  N   UNL     1      28.087  49.329  39.186  1.00  0.00    -0.126 NA
HETATM    4  C   UNL     1      26.906  49.634  38.400  1.00  0.00     0.220 C 
HETATM    5  N   UNL     1      26.914  51.070  38.287  1.00  0.00    -0.324 N 
HETATM    6  C   UNL     1      28.128  51.566  38.746  1.00  0.00     0.315 C 
HETATM    7  O   UNL     1      28.582  52.662  38.468  1.00  0.00    -0.252 OA
HETATM    8  C   UNL     1      29.034  48.383  38.831  1.00  0.00     0.315 C 
HETATM    9  O   UNL     1      28.861  47.342  38.221  1.00  0.00    -0.252 OA
HETATM   10  N   UNL     1      30.276  48.884  39.207  1.00  0.00    -0.324 N 
HETATM   11  H   UNL     1      26.386  51.586  37.601  1.00  0.00     0.165 HD
HETATM   12  H   UNL     1      31.119  48.431  38.892  1.00  0.00     0.165 HD
ENDROOT
BRANCH   1  13
HETATM   13  C   UNL     1      30.831  50.688  40.764  1.00  0.00    -0.020 A 
HETATM   14  C   UNL     1      31.401  49.725  41.613  1.00  0.00     0.011 A 
HETATM   15  C   UNL     1      31.962  50.093  42.838  1.00  0.00     0.007 A 
HETATM   16  C   UNL     1      31.971  51.432  43.239  1.00  0.00    -0.062 A 
HETATM   17  C   UNL     1      32.562  51.831  44.557  1.00  0.00     0.048 C 
HETATM   18  C   UNL     1      31.453  52.402  42.374  1.00  0.00     0.007 A 
HETATM   19  C   UNL     1      30.887  52.035  41.150  1.00  0.00     0.011 A 
ENDBRANCH   1  13
BRANCH   4  20
HETATM   20  C   UNL     1      25.635  49.120  39.030  1.00  0.00    -0.020 A 
HETATM   21  C   UNL     1      25.658  48.102  39.999  1.00  0.00     0.011 A 
HETATM   22  C   UNL     1      24.473  47.593  40.532  1.00  0.00     0.007 A 
HETATM   23  C   UNL     1      23.237  48.093  40.113  1.00  0.00    -0.062 A 
HETATM   24  C   UNL     1      21.962  47.541  40.679  1.00  0.00     0.048 C 
HETATM   25  C   UNL     1      23.206  49.144  39.191  1.00  0.00     0.007 A 
HETATM   26  C   UNL     1      24.392  49.652  38.652  1.00  0.00     0.011 A 
ENDBRANCH   4  20
TORSDOF 2
ENDMDL
MODEL 9
REMARK VINA RESULT:      -8.0     10.567     11.824
REMARK  2 active torsions:
REMARK  status: ('A' for Active; 'I' for Inactive)
REMARK    1  A    between atoms: C_5  and  C_6 
REMARK    2  A    between atoms: C_9  and  C_10 
ROOT
HETATM    1  C   UNL     1      26.877  49.636  38.403  1.00  0.00     0.220 C 
HETATM    2  N   UNL     1      28.064  49.327  39.181  1.00  0.00    -0.126 NA
HETATM    3  N   UNL     1      28.715  50.547  39.466  1.00  0.00    -0.126 NA
HETATM    4  C   UNL     1      30.143  50.293  39.455  1.00  0.00     0.220 C 
HETATM    5  N   UNL     1      30.252  48.882  39.186  1.00  0.00    -0.324 N 
HETATM    6  C   UNL     1      29.009  48.383  38.815  1.00  0.00     0.315 C 
HETATM    7  O   UNL     1      28.833  47.346  38.199  1.00  0.00    -0.252 OA
HETATM    8  C   UNL     1      28.101  51.566  38.755  1.00  0.00     0.315 C 
HETATM    9  O   UNL     1      28.551  52.664  38.480  1.00  0.00    -0.252 OA
HETATM   10  N   UNL     1      26.883  51.071  38.300  1.00  0.00    -0.324 N 
HETATM   11  H   UNL     1      31.094  48.432  38.863  1.00  0.00     0.165 HD
HETATM   12  H   UNL     1      26.350  51.591  37.620  1.00  0.00     0.165 HD
ENDROOT
BRANCH   1  13
HETATM   13  C   UNL     1      25.610  49.117  39.039  1.00  0.00    -0.020 A 
HETATM   14  C   UNL     1      25.642  48.099  40.007  1.00  0.00     0.011 A 
HETATM   15  C   UNL     1      24.461  47.586  40.546  1.00  0.00     0.007 A 
HETATM   16  C   UNL     1      23.221  48.083  40.133  1.00  0.00    -0.062 A 
HETATM   17  C   UNL     1      21.948  47.529  40.701  1.00  0.00     0.048 C 
HETATM   18  C   UNL     1      23.184  49.133  39.209  1.00  0.00     0.007 A 
HETATM   19  C   UNL     1      24.365  49.644  38.665  1.00  0.00     0.011 A 
ENDBRANCH   1  13
BRANCH   4  20
HETATM   20  C   UNL     1      30.816  50.678  40.751  1.00  0.00    -0.020 A 
HETATM   21  C   UNL     1      31.369  49.709  41.604  1.00  0.00     0.011 A 
HETATM   22  C   UNL     1      31.936  50.070  42.827  1.00  0.00     0.007 A 
HETATM   23  C   UNL     1      31.967  51.410  43.224  1.00  0.00    -0.062 A 
HETATM   24  C   UNL     1      32.568  51.800  44.541  1.00  0.00     0.048 C 
HETATM   25  C   UNL     1      31.468  52.387  42.356  1.00  0.00     0.007 A 
HETATM   26  C   UNL     1      30.896  52.026  41.133  1.00  0.00     0.011 A 
ENDBRANCH   4  20
TORSDOF 2
ENDMDL
MODEL 10
REMARK VINA RESULT:      -7.9      3.884      8.629
REMARK  2 active torsions:
REMARK  status: ('A' for Active; 'I' for Inactive)
REMARK    1  A    between atoms: C_5  and  C_6 
REMARK    2  A    between atoms: C_9  and  C_10 
ROOT
HETATM    1  C   UNL     1      20.766  50.028  48.889  1.00  0.00     0.220 C 
HETATM    2  N   UNL     1      20.047  49.822  47.645  1.00  0.00    -0.126 NA
HETATM    3  N   UNL     1      19.295  50.991  47.391  1.00  0.00    -0.126 NA
HETATM    4  C   UNL     1      18.056  50.583  46.756  1.00  0.00     0.220 C 
HETATM    5  N   UNL     1      18.168  49.152  46.642  1.00  0.00    -0.324 N 
HETATM    6  C   UNL     1      19.264  48.712  47.374  1.00  0.00     0.315 C 
HETATM    7  O   UNL     1      19.425  47.569  47.765  1.00  0.00    -0.252 OA
HETATM    8  C   UNL     1      19.366  51.825  48.495  1.00  0.00     0.315 C 
HETATM    9  O   UNL     1      18.617  52.739  48.792  1.00  0.00    -0.252 OA
HETATM   10  N   UNL     1      20.408  51.362  49.292  1.00  0.00    -0.324 N 
HETATM   11  H   UNL     1      17.387  48.535  46.483  1.00  0.00     0.165 HD
HETATM   12  H   UNL     1      20.526  51.722  50.226  1.00  0.00     0.165 HD
ENDROOT
BRANCH   1  13
HETATM   13  C   UNL     1      22.258  49.861  48.736  1.00  0.00    -0.020 A 
HETATM   14  C   UNL     1      22.931  48.758  49.289  1.00  0.00     0.011 A 
HETATM   15  C   UNL     1      24.319  48.643  49.191  1.00  0.00     0.007 A 
HETATM   16  C   UNL     1      25.066  49.626  48.536  1.00  0.00    -0.062 A 
HETATM   17  C   UNL     1      26.558  49.514  48.437  1.00  0.00     0.048 C 
HETATM   18  C   UNL     1      24.397  50.700  47.937  1.00  0.00     0.007 A 
HETATM   19  C   UNL     1      23.008  50.819  48.038  1.00  0.00     0.011 A 
ENDBRANCH   1  13
BRANCH   4  20
HETATM   20  C   UNL     1      17.839  51.246  45.417  1.00  0.00    -0.020 A 
HETATM   21  C   UNL     1      18.303  50.659  44.227  1.00  0.00     0.011 A 
HETATM   22  C   UNL     1      18.148  51.308  43.001  1.00  0.00     0.007 A 
HETATM   23  C   UNL     1      17.524  52.557  42.936  1.00  0.00    -0.062 A 
HETATM   24  C   UNL     1      17.366  53.260  41.620  1.00  0.00     0.048 C 
HETATM   25  C   UNL     1      17.010  53.122  44.108  1.00  0.00     0.007 A 
HETATM   26  C   UNL     1      17.168  52.475  45.337  1.00  0.00     0.011 A 
ENDBRANCH   4  20
TORSDOF 2
ENDMDL
