MODEL 1
REMARK VINA RESULT:      -8.6      0.000      0.000
REMARK  10 active torsions:
REMARK  status: ('A' for Active; 'I' for Inactive)
REMARK    1  A    between atoms: C_6  and  N_7 
REMARK    2  A    between atoms: C_8  and  S_9 
REMARK    3  A    between atoms: S_9  and  C_10 
REMARK    4  A    between atoms: C_10  and  C_11 
REMARK       I    between atoms: C_11  and  N_12 
REMARK    5  A    between atoms: N_12  and  C_13 
REMARK    6  A    between atoms: C_13  and  C_14 
REMARK    7  A    between atoms: C_14  and  C_15 
REMARK    8  A    between atoms: C_17  and  O_18 
REMARK    9  A    between atoms: C_20  and  O_21 
REMARK   10  A    between atoms: C_29  and  N_30 
ROOT
HETATM    1  N   UNL     1      21.902  48.722  48.812  1.00  0.00    -0.276 N 
HETATM    2  C   UNL     1      21.178  47.608  48.301  1.00  0.00     0.177 A 
HETATM    3  N   UNL     1      19.872  47.528  48.208  1.00  0.00    -0.204 NA
HETATM    4  C   UNL     1      19.219  48.635  48.622  1.00  0.00     0.162 A 
HETATM    5  C   UNL     1      19.722  49.796  49.138  1.00  0.00     0.081 A 
HETATM    6  C   UNL     1      21.144  49.876  49.282  1.00  0.00     0.124 A 
HETATM    7  N   UNL     1      17.868  48.813  48.585  1.00  0.00    -0.260 N 
HETATM    8  H   UNL     1      17.163  48.164  48.252  1.00  0.00     0.191 HD
HETATM    9  N   UNL     1      17.481  50.020  49.051  1.00  0.00    -0.177 NA
HETATM   10  C   UNL     1      18.627  50.635  49.388  1.00  0.00     0.068 A 
HETATM   11  C   UNL     1      18.579  52.013  49.933  1.00  0.00     0.073 C 
ENDROOT
BRANCH   2  12
HETATM   12  S   UNL     1      22.058  46.179  47.709  1.00  0.00    -0.082 SA
BRANCH  12  13
HETATM   13  C   UNL     1      21.370  44.886  48.779  1.00  0.00     0.185 C 
BRANCH  13  14
HETATM   14  C   UNL     1      22.368  43.762  49.015  1.00  0.00     0.227 C 
HETATM   15  N   UNL     1      23.185  43.962  50.112  1.00  0.00    -0.360 N 
HETATM   16  H   UNL     1      23.150  44.836  50.619  1.00  0.00     0.162 HD
HETATM   17  O   UNL     1      22.409  42.740  48.335  1.00  0.00    -0.273 OA
BRANCH  15  18
HETATM   18  C   UNL     1      24.101  42.941  50.586  1.00  0.00     0.127 C 
BRANCH  18  19
HETATM   19  C   UNL     1      25.554  43.211  50.190  1.00  0.00     0.058 C 
BRANCH  19  20
HETATM   20  C   UNL     1      26.483  42.999  51.363  1.00  0.00    -0.054 A 
HETATM   21  C   UNL     1      26.323  43.749  52.538  1.00  0.00     0.046 A 
HETATM   22  C   UNL     1      27.206  43.596  53.614  1.00  0.00     0.102 A 
HETATM   23  C   UNL     1      28.271  42.678  53.515  1.00  0.00     0.101 A 
HETATM   24  C   UNL     1      28.427  41.929  52.344  1.00  0.00     0.040 A 
HETATM   25  C   UNL     1      27.541  42.090  51.276  1.00  0.00     0.010 A 
BRANCH  22  26
HETATM   26  O   UNL     1      27.124  44.297  54.793  1.00  0.00    -0.353 OA
HETATM   27  C   UNL     1      27.275  45.707  54.734  1.00  0.00     0.210 C 
ENDBRANCH  22  26
BRANCH  23  28
HETATM   28  O   UNL     1      29.098  42.591  54.608  1.00  0.00    -0.353 OA
HETATM   29  C   UNL     1      30.367  43.224  54.529  1.00  0.00     0.210 C 
ENDBRANCH  23  28
ENDBRANCH  19  20
ENDBRANCH  18  19
ENDBRANCH  15  18
ENDBRANCH  13  14
ENDBRANCH  12  13
ENDBRANCH   2  12
BRANCH   1  30
HETATM   30  C   UNL     1      23.328  48.744  48.850  1.00  0.00     0.045 A 
HETATM   31  C   UNL     1      24.041  47.948  49.755  1.00  0.00     0.054 A 
HETATM   32  C   UNL     1      25.434  48.049  49.844  1.00  0.00     0.042 A 
HETATM   33  C   UNL     1      26.141  48.959  49.044  1.00  0.00    -0.040 A 
HETATM   34 CL   UNL     1      26.240  47.034  50.986  1.00  0.00    -0.084 Cl
HETATM   35  C   UNL     1      27.637  49.093  49.122  1.00  0.00     0.050 C 
HETATM   36  C   UNL     1      25.425  49.750  48.136  1.00  0.00     0.011 A 
HETATM   37  C   UNL     1      24.034  49.646  48.041  1.00  0.00     0.031 A 
ENDBRANCH   1  30
BRANCH   6  38
HETATM   38  N   UNL     1      21.712  50.927  49.844  1.00  0.00    -0.384 N 
HETATM   39  H   UNL     1      21.585  51.144  50.822  1.00  0.00     0.157 HD
HETATM   40  H   UNL     1      22.320  51.527  49.300  1.00  0.00     0.157 HD
ENDBRANCH   6  38
TORSDOF 10
ENDMDL
MODEL 2
REMARK VINA RESULT:      -8.6      3.880     10.062
REMARK  10 active torsions:
REMARK  status: ('A' for Active; 'I' for Inactive)
REMARK    1  A    between atoms: C_6  and  N_7 
REMARK    2  A    between atoms: C_8  and  S_9 
REMARK    3  A    between atoms: S_9  and  C_10 
REMARK    4  A    between atoms: C_10  and  C_11 
REMARK       I    between atoms: C_11  and  N_12 
REMARK    5  A    between atoms: N_12  and  C_13 
REMARK    6  A    between atoms: C_13  and  C_14 
REMARK    7  A    between atoms: C_14  and  C_15 
REMARK    8  A    between atoms: C_17  and  O_18 
REMARK    9  A    between atoms: C_20  and  O_21 
REMARK   10  A    between atoms: C_29  and  N_30 
ROOT
HETATM    1  N   UNL     1      27.254  42.451  51.667  1.00  0.00    -0.276 N 
HETATM    2  C   UNL     1      26.300  43.497  51.803  1.00  0.00     0.177 A 
HETATM    3  N   UNL     1      26.351  44.465  52.688  1.00  0.00    -0.204 NA
HETATM    4  C   UNL     1      27.435  44.422  53.491  1.00  0.00     0.162 A 
HETATM    5  C   UNL     1      28.455  43.512  53.523  1.00  0.00     0.081 A 
HETATM    6  C   UNL     1      28.386  42.431  52.587  1.00  0.00     0.124 A 
HETATM    7  N   UNL     1      27.736  45.334  54.458  1.00  0.00    -0.260 N 
HETATM    8  H   UNL     1      27.210  46.162  54.719  1.00  0.00     0.191 HD
HETATM    9  N   UNL     1      28.888  45.056  55.106  1.00  0.00    -0.177 NA
HETATM   10  C   UNL     1      29.341  43.933  54.526  1.00  0.00     0.068 A 
HETATM   11  C   UNL     1      30.618  43.340  54.988  1.00  0.00     0.073 C 
ENDROOT
BRANCH   2  12
HETATM   12  S   UNL     1      24.905  43.569  50.699  1.00  0.00    -0.082 SA
BRANCH  12  13
HETATM   13  C   UNL     1      25.611  44.506  49.316  1.00  0.00     0.185 C 
BRANCH  13  14
HETATM   14  C   UNL     1      25.558  46.006  49.568  1.00  0.00     0.227 C 
HETATM   15  N   UNL     1      24.279  46.530  49.548  1.00  0.00    -0.360 N 
HETATM   16  H   UNL     1      23.495  45.947  49.287  1.00  0.00     0.162 HD
HETATM   17  O   UNL     1      26.548  46.684  49.826  1.00  0.00    -0.273 OA
BRANCH  15  18
HETATM   18  C   UNL     1      24.006  47.910  49.907  1.00  0.00     0.127 C 
BRANCH  18  19
HETATM   19  C   UNL     1      23.727  48.800  48.694  1.00  0.00     0.058 C 
BRANCH  19  20
HETATM   20  C   UNL     1      22.360  49.435  48.791  1.00  0.00    -0.054 A 
HETATM   21  C   UNL     1      21.255  48.678  49.211  1.00  0.00     0.046 A 
HETATM   22  C   UNL     1      19.974  49.243  49.260  1.00  0.00     0.102 A 
HETATM   23  C   UNL     1      19.792  50.588  48.881  1.00  0.00     0.101 A 
HETATM   24  C   UNL     1      20.894  51.341  48.466  1.00  0.00     0.040 A 
HETATM   25  C   UNL     1      22.168  50.768  48.420  1.00  0.00     0.010 A 
BRANCH  22  26
HETATM   26  O   UNL     1      18.843  48.569  49.650  1.00  0.00    -0.353 OA
HETATM   27  C   UNL     1      18.571  48.485  51.041  1.00  0.00     0.210 C 
ENDBRANCH  22  26
BRANCH  23  28
HETATM   28  O   UNL     1      18.506  51.065  48.948  1.00  0.00    -0.353 OA
HETATM   29  C   UNL     1      18.278  52.245  49.707  1.00  0.00     0.210 C 
ENDBRANCH  23  28
ENDBRANCH  19  20
ENDBRANCH  18  19
ENDBRANCH  15  18
ENDBRANCH  13  14
ENDBRANCH  12  13
ENDBRANCH   2  12
BRANCH   1  30
HETATM   30  C   UNL     1      27.143  41.452  50.655  1.00  0.00     0.045 A 
HETATM   31  C   UNL     1      27.721  41.632  49.393  1.00  0.00     0.054 A 
HETATM   32  C   UNL     1      27.526  40.686  48.380  1.00  0.00     0.042 A 
HETATM   33  C   UNL     1      26.733  39.549  48.603  1.00  0.00    -0.040 A 
HETATM   34 CL   UNL     1      28.272  40.981  46.851  1.00  0.00    -0.084 Cl
HETATM   35  C   UNL     1      26.500  38.519  47.533  1.00  0.00     0.050 C 
HETATM   36  C   UNL     1      26.159  39.370  49.869  1.00  0.00     0.011 A 
HETATM   37  C   UNL     1      26.360  40.311  50.883  1.00  0.00     0.031 A 
ENDBRANCH   1  30
BRANCH   6  38
HETATM   38  N   UNL     1      29.285  41.464  52.599  1.00  0.00    -0.384 N 
HETATM   39  H   UNL     1      30.201  41.591  53.004  1.00  0.00     0.157 HD
HETATM   40  H   UNL     1      29.054  40.552  52.223  1.00  0.00     0.157 HD
ENDBRANCH   6  38
TORSDOF 10
ENDMDL
MODEL 3
REMARK VINA RESULT:      -8.6      3.620     10.226
REMARK  10 active torsions:
REMARK  status: ('A' for Active; 'I' for Inactive)
REMARK    1  A    between atoms: C_6  and  N_7 
REMARK    2  A    between atoms: C_8  and  S_9 
REMARK    3  A    between atoms: S_9  and  C_10 
REMARK    4  A    between atoms: C_10  and  C_11 
REMARK       I    between atoms: C_11  and  N_12 
REMARK    5  A    between atoms: N_12  and  C_13 
REMARK    6  A    between atoms: C_13  and  C_14 
REMARK    7  A    between atoms: C_14  and  C_15 
REMARK    8  A    between atoms: C_17  and  O_18 
REMARK    9  A    between atoms: C_20  and  O_21 
REMARK   10  A    between atoms: C_29  and  N_30 
ROOT
HETATM    1  N   UNL     1      27.946  42.325  51.334  1.00  0.00    -0.276 N 
HETATM    2  C   UNL     1      27.317  43.189  50.395  1.00  0.00     0.177 A 
HETATM    3  N   UNL     1      26.734  42.809  49.282  1.00  0.00    -0.204 NA
HETATM    4  C   UNL     1      26.744  41.474  49.082  1.00  0.00     0.162 A 
HETATM    5  C   UNL     1      27.288  40.485  49.853  1.00  0.00     0.081 A 
HETATM    6  C   UNL     1      27.961  40.895  51.048  1.00  0.00     0.124 A 
HETATM    7  N   UNL     1      26.169  40.831  48.026  1.00  0.00    -0.260 N 
HETATM    8  H   UNL     1      25.660  41.240  47.249  1.00  0.00     0.191 HD
HETATM    9  N   UNL     1      26.318  39.489  48.079  1.00  0.00    -0.177 NA
HETATM   10  C   UNL     1      27.004  39.270  49.212  1.00  0.00     0.068 A 
HETATM   11  C   UNL     1      27.340  37.880  49.601  1.00  0.00     0.073 C 
ENDROOT
BRANCH   2  12
HETATM   12  S   UNL     1      27.265  44.941  50.702  1.00  0.00    -0.082 SA
BRANCH  12  13
HETATM   13  C   UNL     1      25.713  45.388  49.876  1.00  0.00     0.185 C 
BRANCH  13  14
HETATM   14  C   UNL     1      25.497  46.894  49.863  1.00  0.00     0.227 C 
HETATM   15  N   UNL     1      24.296  47.280  49.296  1.00  0.00    -0.360 N 
HETATM   16  H   UNL     1      23.698  46.593  48.856  1.00  0.00     0.162 HD
HETATM   17  O   UNL     1      26.282  47.695  50.363  1.00  0.00    -0.273 OA
BRANCH  15  18
HETATM   18  C   UNL     1      23.842  48.658  49.320  1.00  0.00     0.127 C 
BRANCH  18  19
HETATM   19  C   UNL     1      22.824  48.971  48.220  1.00  0.00     0.058 C 
BRANCH  19  20
HETATM   20  C   UNL     1      21.545  49.520  48.807  1.00  0.00    -0.054 A 
HETATM   21  C   UNL     1      20.529  48.649  49.231  1.00  0.00     0.046 A 
HETATM   22  C   UNL     1      19.319  49.147  49.732  1.00  0.00     0.102 A 
HETATM   23  C   UNL     1      19.119  50.540  49.810  1.00  0.00     0.101 A 
HETATM   24  C   UNL     1      20.134  51.406  49.391  1.00  0.00     0.040 A 
HETATM   25  C   UNL     1      21.337  50.899  48.892  1.00  0.00     0.010 A 
BRANCH  22  26
HETATM   26  O   UNL     1      18.274  48.364  50.157  1.00  0.00    -0.353 OA
HETATM   27  C   UNL     1      17.509  47.691  49.169  1.00  0.00     0.210 C 
ENDBRANCH  22  26
BRANCH  23  28
HETATM   28  O   UNL     1      17.904  50.949  50.305  1.00  0.00    -0.353 OA
HETATM   29  C   UNL     1      17.367  52.168  49.813  1.00  0.00     0.210 C 
ENDBRANCH  23  28
ENDBRANCH  19  20
ENDBRANCH  18  19
ENDBRANCH  15  18
ENDBRANCH  13  14
ENDBRANCH  12  13
ENDBRANCH   2  12
BRANCH   1  30
HETATM   30  C   UNL     1      28.530  42.816  52.539  1.00  0.00     0.045 A 
HETATM   31  C   UNL     1      27.830  43.687  53.382  1.00  0.00     0.054 A 
HETATM   32  C   UNL     1      28.449  44.233  54.512  1.00  0.00     0.042 A 
HETATM   33  C   UNL     1      29.786  43.933  54.814  1.00  0.00    -0.040 A 
HETATM   34 CL   UNL     1      27.518  45.301  55.500  1.00  0.00    -0.084 Cl
HETATM   35  C   UNL     1      30.480  44.509  56.018  1.00  0.00     0.050 C 
HETATM   36  C   UNL     1      30.483  43.056  53.971  1.00  0.00     0.011 A 
HETATM   37  C   UNL     1      29.863  42.505  52.846  1.00  0.00     0.031 A 
ENDBRANCH   1  30
BRANCH   6  38
HETATM   38  N   UNL     1      28.585  40.016  51.811  1.00  0.00    -0.384 N 
HETATM   39  H   UNL     1      28.512  39.022  51.651  1.00  0.00     0.157 HD
HETATM   40  H   UNL     1      29.182  40.333  52.566  1.00  0.00     0.157 HD
ENDBRANCH   6  38
TORSDOF 10
ENDMDL
MODEL 4
REMARK VINA RESULT:      -8.5      1.303      2.038
REMARK  10 active torsions:
REMARK  status: ('A' for Active; 'I' for Inactive)
REMARK    1  A    between atoms: C_6  and  N_7 
REMARK    2  A    between atoms: C_8  and  S_9 
REMARK    3  A    between atoms: S_9  and  C_10 
REMARK    4  A    between atoms: C_10  and  C_11 
REMARK       I    between atoms: C_11  and  N_12 
REMARK    5  A    between atoms: N_12  and  C_13 
REMARK    6  A    between atoms: C_13  and  C_14 
REMARK    7  A    between atoms: C_14  and  C_15 
REMARK    8  A    between atoms: C_17  and  O_18 
REMARK    9  A    between atoms: C_20  and  O_21 
REMARK   10  A    between atoms: C_29  and  N_30 
ROOT
HETATM    1  N   UNL     1      21.916  48.378  48.981  1.00  0.00    -0.276 N 
HETATM    2  C   UNL     1      21.311  47.282  48.303  1.00  0.00     0.177 A 
HETATM    3  N   UNL     1      20.027  47.152  48.061  1.00  0.00    -0.204 NA
HETATM    4  C   UNL     1      19.276  48.187  48.492  1.00  0.00     0.162 A 
HETATM    5  C   UNL     1      19.659  49.320  49.155  1.00  0.00     0.081 A 
HETATM    6  C   UNL     1      21.052  49.451  49.460  1.00  0.00     0.124 A 
HETATM    7  N   UNL     1      17.928  48.307  48.323  1.00  0.00    -0.260 N 
HETATM    8  H   UNL     1      17.298  47.659  47.863  1.00  0.00     0.191 HD
HETATM    9  N   UNL     1      17.431  49.450  48.843  1.00  0.00    -0.177 NA
HETATM   10  C   UNL     1      18.499  50.084  49.353  1.00  0.00     0.068 A 
HETATM   11  C   UNL     1      18.321  51.404  50.002  1.00  0.00     0.073 C 
ENDROOT
BRANCH   2  12
HETATM   12  S   UNL     1      22.323  45.952  47.693  1.00  0.00    -0.082 SA
BRANCH  12  13
HETATM   13  C   UNL     1      21.595  44.539  48.567  1.00  0.00     0.185 C 
BRANCH  13  14
HETATM   14  C   UNL     1      22.620  43.827  49.437  1.00  0.00     0.227 C 
HETATM   15  N   UNL     1      23.794  43.516  48.776  1.00  0.00    -0.360 N 
HETATM   16  H   UNL     1      23.875  43.680  47.781  1.00  0.00     0.162 HD
HETATM   17  O   UNL     1      22.453  43.600  50.632  1.00  0.00    -0.273 OA
BRANCH  15  18
HETATM   18  C   UNL     1      24.945  42.966  49.468  1.00  0.00     0.127 C 
BRANCH  18  19
HETATM   19  C   UNL     1      26.103  43.960  49.583  1.00  0.00     0.058 C 
BRANCH  19  20
HETATM   20  C   UNL     1      26.494  44.171  51.027  1.00  0.00    -0.054 A 
HETATM   21  C   UNL     1      27.803  43.899  51.454  1.00  0.00     0.046 A 
HETATM   22  C   UNL     1      28.165  44.045  52.799  1.00  0.00     0.102 A 
HETATM   23  C   UNL     1      27.201  44.469  53.737  1.00  0.00     0.101 A 
HETATM   24  C   UNL     1      25.899  44.743  53.309  1.00  0.00     0.040 A 
HETATM   25  C   UNL     1      25.548  44.592  51.965  1.00  0.00     0.010 A 
BRANCH  22  26
HETATM   26  O   UNL     1      29.419  43.792  53.298  1.00  0.00    -0.353 OA
HETATM   27  C   UNL     1      29.987  42.517  53.038  1.00  0.00     0.210 C 
ENDBRANCH  22  26
BRANCH  23  28
HETATM   28  O   UNL     1      27.632  44.580  55.036  1.00  0.00    -0.353 OA
HETATM   29  C   UNL     1      27.899  45.883  55.534  1.00  0.00     0.210 C 
ENDBRANCH  23  28
ENDBRANCH  19  20
ENDBRANCH  18  19
ENDBRANCH  15  18
ENDBRANCH  13  14
ENDBRANCH  12  13
ENDBRANCH   2  12
BRANCH   1  30
HETATM   30  C   UNL     1      23.327  48.460  49.176  1.00  0.00     0.045 A 
HETATM   31  C   UNL     1      24.100  49.402  48.488  1.00  0.00     0.054 A 
HETATM   32  C   UNL     1      25.493  49.410  48.620  1.00  0.00     0.042 A 
HETATM   33  C   UNL     1      26.143  48.464  49.428  1.00  0.00    -0.040 A 
HETATM   34 CL   UNL     1      26.376  50.604  47.738  1.00  0.00    -0.084 Cl
HETATM   35  C   UNL     1      27.639  48.444  49.584  1.00  0.00     0.050 C 
HETATM   36  C   UNL     1      25.366  47.525  50.119  1.00  0.00     0.011 A 
HETATM   37  C   UNL     1      23.974  47.521  49.993  1.00  0.00     0.031 A 
ENDBRANCH   1  30
BRANCH   6  38
HETATM   38  N   UNL     1      21.499  50.472  50.166  1.00  0.00    -0.384 N 
HETATM   39  H   UNL     1      22.332  50.406  50.734  1.00  0.00     0.157 HD
HETATM   40  H   UNL     1      21.023  51.365  50.125  1.00  0.00     0.157 HD
ENDBRANCH   6  38
TORSDOF 10
ENDMDL
MODEL 5
REMARK VINA RESULT:      -8.4      3.914      9.731
REMARK  10 active torsions:
REMARK  status: ('A' for Active; 'I' for Inactive)
REMARK    1  A    between atoms: C_6  and  N_7 
REMARK    2  A    between atoms: C_8  and  S_9 
REMARK    3  A    between atoms: S_9  and  C_10 
REMARK    4  A    between atoms: C_10  and  C_11 
REMARK       I    between atoms: C_11  and  N_12 
REMARK    5  A    between atoms: N_12  and  C_13 
REMARK    6  A    between atoms: C_13  and  C_14 
REMARK    7  A    between atoms: C_14  and  C_15 
REMARK    8  A    between atoms: C_17  and  O_18 
REMARK    9  A    between atoms: C_20  and  O_21 
REMARK   10  A    between atoms: C_29  and  N_30 
ROOT
HETATM    1  N   UNL     1      26.786  41.916  50.784  1.00  0.00    -0.276 N 
HETATM    2  C   UNL     1      25.571  42.656  50.778  1.00  0.00     0.177 A 
HETATM    3  N   UNL     1      25.260  43.616  51.618  1.00  0.00    -0.204 NA
HETATM    4  C   UNL     1      26.224  43.894  52.521  1.00  0.00     0.162 A 
HETATM    5  C   UNL     1      27.446  43.306  52.693  1.00  0.00     0.081 A 
HETATM    6  C   UNL     1      27.777  42.231  51.807  1.00  0.00     0.124 A 
HETATM    7  N   UNL     1      26.158  44.872  53.468  1.00  0.00    -0.260 N 
HETATM    8  H   UNL     1      25.400  45.524  53.639  1.00  0.00     0.191 HD
HETATM    9  N   UNL     1      27.268  44.940  54.235  1.00  0.00    -0.177 NA
HETATM   10  C   UNL     1      28.071  43.977  53.754  1.00  0.00     0.068 A 
HETATM   11  C   UNL     1      29.407  43.774  54.363  1.00  0.00     0.073 C 
ENDROOT
BRANCH   2  12
HETATM   12  S   UNL     1      24.334  42.314  49.545  1.00  0.00    -0.082 SA
BRANCH  12  13
HETATM   13  C   UNL     1      22.915  43.217  50.225  1.00  0.00     0.185 C 
BRANCH  13  14
HETATM   14  C   UNL     1      22.312  44.169  49.203  1.00  0.00     0.227 C 
HETATM   15  N   UNL     1      22.824  45.451  49.264  1.00  0.00    -0.360 N 
HETATM   16  H   UNL     1      23.465  45.707  50.003  1.00  0.00     0.162 HD
HETATM   17  O   UNL     1      21.491  43.822  48.357  1.00  0.00    -0.273 OA
BRANCH  15  18
HETATM   18  C   UNL     1      22.483  46.464  48.282  1.00  0.00     0.127 C 
BRANCH  18  19
HETATM   19  C   UNL     1      23.214  47.789  48.512  1.00  0.00     0.058 C 
BRANCH  19  20
HETATM   20  C   UNL     1      22.236  48.906  48.790  1.00  0.00    -0.054 A 
HETATM   21  C   UNL     1      20.953  48.619  49.280  1.00  0.00     0.046 A 
HETATM   22  C   UNL     1      20.021  49.642  49.497  1.00  0.00     0.102 A 
HETATM   23  C   UNL     1      20.376  50.978  49.218  1.00  0.00     0.101 A 
HETATM   24  C   UNL     1      21.656  51.262  48.733  1.00  0.00     0.040 A 
HETATM   25  C   UNL     1      22.578  50.234  48.519  1.00  0.00     0.010 A 
BRANCH  22  26
HETATM   26  O   UNL     1      18.745  49.444  49.965  1.00  0.00    -0.353 OA
HETATM   27  C   UNL     1      18.579  48.597  51.092  1.00  0.00     0.210 C 
ENDBRANCH  22  26
BRANCH  23  28
HETATM   28  O   UNL     1      19.405  51.922  49.449  1.00  0.00    -0.353 OA
HETATM   29  C   UNL     1      18.779  52.515  48.321  1.00  0.00     0.210 C 
ENDBRANCH  23  28
ENDBRANCH  19  20
ENDBRANCH  18  19
ENDBRANCH  15  18
ENDBRANCH  13  14
ENDBRANCH  12  13
ENDBRANCH   2  12
BRANCH   1  30
HETATM   30  C   UNL     1      27.062  40.907  49.814  1.00  0.00     0.045 A 
HETATM   31  C   UNL     1      26.781  39.560  50.070  1.00  0.00     0.054 A 
HETATM   32  C   UNL     1      27.142  38.572  49.147  1.00  0.00     0.042 A 
HETATM   33  C   UNL     1      27.806  38.908  47.957  1.00  0.00    -0.040 A 
HETATM   34 CL   UNL     1      26.762  36.932  49.536  1.00  0.00    -0.084 Cl
HETATM   35  C   UNL     1      28.211  37.868  46.949  1.00  0.00     0.050 C 
HETATM   36  C   UNL     1      28.081  40.259  47.702  1.00  0.00     0.011 A 
HETATM   37  C   UNL     1      27.715  41.247  48.620  1.00  0.00     0.031 A 
ENDBRANCH   1  30
BRANCH   6  38
HETATM   38  N   UNL     1      28.901  41.555  51.951  1.00  0.00    -0.384 N 
HETATM   39  H   UNL     1      29.146  40.788  51.340  1.00  0.00     0.157 HD
HETATM   40  H   UNL     1      29.564  41.819  52.670  1.00  0.00     0.157 HD
ENDBRANCH   6  38
TORSDOF 10
ENDMDL
MODEL 6
REMARK VINA RESULT:      -8.3      3.431      8.387
REMARK  10 active torsions:
REMARK  status: ('A' for Active; 'I' for Inactive)
REMARK    1  A    between atoms: C_6  and  N_7 
REMARK    2  A    between atoms: C_8  and  S_9 
REMARK    3  A    between atoms: S_9  and  C_10 
REMARK    4  A    between atoms: C_10  and  C_11 
REMARK       I    between atoms: C_11  and  N_12 
REMARK    5  A    between atoms: N_12  and  C_13 
REMARK    6  A    between atoms: C_13  and  C_14 
REMARK    7  A    between atoms: C_14  and  C_15 
REMARK    8  A    between atoms: C_17  and  O_18 
REMARK    9  A    between atoms: C_20  and  O_21 
REMARK   10  A    between atoms: C_29  and  N_30 
ROOT
HETATM    1  N   UNL     1      25.758  45.809  50.980  1.00  0.00    -0.276 N 
HETATM    2  C   UNL     1      25.670  44.468  50.512  1.00  0.00     0.177 A 
HETATM    3  N   UNL     1      26.048  43.402  51.179  1.00  0.00    -0.204 NA
HETATM    4  C   UNL     1      26.526  43.665  52.414  1.00  0.00     0.162 A 
HETATM    5  C   UNL     1      26.690  44.867  53.043  1.00  0.00     0.081 A 
HETATM    6  C   UNL     1      26.319  46.038  52.307  1.00  0.00     0.124 A 
HETATM    7  N   UNL     1      26.941  42.728  53.313  1.00  0.00    -0.260 N 
HETATM    8  H   UNL     1      26.956  41.720  53.201  1.00  0.00     0.191 HD
HETATM    9  N   UNL     1      27.363  43.265  54.479  1.00  0.00    -0.177 NA
HETATM   10  C   UNL     1      27.203  44.589  54.319  1.00  0.00     0.068 A 
HETATM   11  C   UNL     1      27.560  45.504  55.428  1.00  0.00     0.073 C 
ENDROOT
BRANCH   2  12
HETATM   12  S   UNL     1      24.985  44.136  48.903  1.00  0.00    -0.082 SA
BRANCH  12  13
HETATM   13  C   UNL     1      23.553  43.115  49.345  1.00  0.00     0.185 C 
BRANCH  13  14
HETATM   14  C   UNL     1      22.357  43.406  48.451  1.00  0.00     0.227 C 
HETATM   15  N   UNL     1      21.714  44.593  48.747  1.00  0.00    -0.360 N 
HETATM   16  H   UNL     1      21.992  45.133  49.557  1.00  0.00     0.162 HD
HETATM   17  O   UNL     1      22.024  42.688  47.511  1.00  0.00    -0.273 OA
BRANCH  15  18
HETATM   18  C   UNL     1      20.643  45.116  47.919  1.00  0.00     0.127 C 
BRANCH  18  19
HETATM   19  C   UNL     1      21.043  46.378  47.152  1.00  0.00     0.058 C 
BRANCH  19  20
HETATM   20  C   UNL     1      20.319  47.591  47.688  1.00  0.00    -0.054 A 
HETATM   21  C   UNL     1      19.516  47.487  48.834  1.00  0.00     0.046 A 
HETATM   22  C   UNL     1      18.802  48.593  49.313  1.00  0.00     0.102 A 
HETATM   23  C   UNL     1      18.890  49.825  48.635  1.00  0.00     0.101 A 
HETATM   24  C   UNL     1      19.693  49.927  47.495  1.00  0.00     0.040 A 
HETATM   25  C   UNL     1      20.401  48.818  47.024  1.00  0.00     0.010 A 
BRANCH  22  26
HETATM   26  O   UNL     1      17.989  48.572  50.421  1.00  0.00    -0.353 OA
HETATM   27  C   UNL     1      18.612  48.587  51.696  1.00  0.00     0.210 C 
ENDBRANCH  22  26
BRANCH  23  28
HETATM   28  O   UNL     1      18.154  50.858  49.162  1.00  0.00    -0.353 OA
HETATM   29  C   UNL     1      18.862  51.949  49.733  1.00  0.00     0.210 C 
ENDBRANCH  23  28
ENDBRANCH  19  20
ENDBRANCH  18  19
ENDBRANCH  15  18
ENDBRANCH  13  14
ENDBRANCH  12  13
ENDBRANCH   2  12
BRANCH   1  30
HETATM   30  C   UNL     1      25.294  46.912  50.204  1.00  0.00     0.045 A 
HETATM   31  C   UNL     1      26.188  47.842  49.659  1.00  0.00     0.054 A 
HETATM   32  C   UNL     1      25.713  48.969  48.979  1.00  0.00     0.042 A 
HETATM   33  C   UNL     1      24.336  49.200  48.845  1.00  0.00    -0.040 A 
HETATM   34 CL   UNL     1      26.880  50.069  48.337  1.00  0.00    -0.084 Cl
HETATM   35  C   UNL     1      23.796  50.405  48.125  1.00  0.00     0.050 C 
HETATM   36  C   UNL     1      23.443  48.265  49.388  1.00  0.00     0.011 A 
HETATM   37  C   UNL     1      23.916  47.135  50.061  1.00  0.00     0.031 A 
ENDBRANCH   1  30
BRANCH   6  38
HETATM   38  N   UNL     1      26.518  47.244  52.804  1.00  0.00    -0.384 N 
HETATM   39  H   UNL     1      26.249  47.484  53.748  1.00  0.00     0.157 HD
HETATM   40  H   UNL     1      26.979  47.953  52.247  1.00  0.00     0.157 HD
ENDBRANCH   6  38
TORSDOF 10
ENDMDL
MODEL 7
REMARK VINA RESULT:      -8.0      1.527      2.402
REMARK  10 active torsions:
REMARK  status: ('A' for Active; 'I' for Inactive)
REMARK    1  A    between atoms: C_6  and  N_7 
REMARK    2  A    between atoms: C_8  and  S_9 
REMARK    3  A    between atoms: S_9  and  C_10 
REMARK    4  A    between atoms: C_10  and  C_11 
REMARK       I    between atoms: C_11  and  N_12 
REMARK    5  A    between atoms: N_12  and  C_13 
REMARK    6  A    between atoms: C_13  and  C_14 
REMARK    7  A    between atoms: C_14  and  C_15 
REMARK    8  A    between atoms: C_17  and  O_18 
REMARK    9  A    between atoms: C_20  and  O_21 
REMARK   10  A    between atoms: C_29  and  N_30 
ROOT
HETATM    1  N   UNL     1      21.807  48.985  48.416  1.00  0.00    -0.276 N 
HETATM    2  C   UNL     1      21.111  48.003  47.657  1.00  0.00     0.177 A 
HETATM    3  N   UNL     1      19.811  47.958  47.480  1.00  0.00    -0.204 NA
HETATM    4  C   UNL     1      19.138  48.969  48.069  1.00  0.00     0.162 A 
HETATM    5  C   UNL     1      19.614  50.000  48.830  1.00  0.00     0.081 A 
HETATM    6  C   UNL     1      21.026  50.033  49.063  1.00  0.00     0.124 A 
HETATM    7  N   UNL     1      17.791  49.168  47.996  1.00  0.00    -0.260 N 
HETATM    8  H   UNL     1      17.105  48.606  47.504  1.00  0.00     0.191 HD
HETATM    9  N   UNL     1      17.382  50.265  48.670  1.00  0.00    -0.177 NA
HETATM   10  C   UNL     1      18.507  50.787  49.182  1.00  0.00     0.068 A 
HETATM   11  C   UNL     1      18.432  52.030  49.985  1.00  0.00     0.073 C 
ENDROOT
BRANCH   2  12
HETATM   12  S   UNL     1      22.020  46.708  46.842  1.00  0.00    -0.082 SA
BRANCH  12  13
HETATM   13  C   UNL     1      20.887  45.307  47.058  1.00  0.00     0.185 C 
BRANCH  13  14
HETATM   14  C   UNL     1      21.090  44.622  48.401  1.00  0.00     0.227 C 
HETATM   15  N   UNL     1      22.262  43.894  48.484  1.00  0.00    -0.360 N 
HETATM   16  H   UNL     1      22.847  43.778  47.668  1.00  0.00     0.162 HD
HETATM   17  O   UNL     1      20.319  44.749  49.349  1.00  0.00    -0.273 OA
BRANCH  15  18
HETATM   18  C   UNL     1      22.705  43.287  49.727  1.00  0.00     0.127 C 
BRANCH  18  19
HETATM   19  C   UNL     1      23.662  44.180  50.519  1.00  0.00     0.058 C 
BRANCH  19  20
HETATM   20  C   UNL     1      24.965  43.467  50.794  1.00  0.00    -0.054 A 
HETATM   21  C   UNL     1      25.428  42.473  49.917  1.00  0.00     0.046 A 
HETATM   22  C   UNL     1      26.610  41.771  50.186  1.00  0.00     0.102 A 
HETATM   23  C   UNL     1      27.345  42.066  51.353  1.00  0.00     0.101 A 
HETATM   24  C   UNL     1      26.885  43.060  52.222  1.00  0.00     0.040 A 
HETATM   25  C   UNL     1      25.703  43.753  51.946  1.00  0.00     0.010 A 
BRANCH  22  26
HETATM   26  O   UNL     1      27.124  40.780  49.386  1.00  0.00    -0.353 OA
HETATM   27  C   UNL     1      26.207  39.899  48.756  1.00  0.00     0.210 C 
ENDBRANCH  22  26
BRANCH  23  28
HETATM   28  O   UNL     1      28.487  41.330  51.549  1.00  0.00    -0.353 OA
HETATM   29  C   UNL     1      28.941  41.157  52.884  1.00  0.00     0.210 C 
ENDBRANCH  23  28
ENDBRANCH  19  20
ENDBRANCH  18  19
ENDBRANCH  15  18
ENDBRANCH  13  14
ENDBRANCH  12  13
ENDBRANCH   2  12
BRANCH   1  30
HETATM   30  C   UNL     1      23.229  48.981  48.534  1.00  0.00     0.045 A 
HETATM   31  C   UNL     1      23.877  48.151  49.456  1.00  0.00     0.054 A 
HETATM   32  C   UNL     1      25.264  48.226  49.625  1.00  0.00     0.042 A 
HETATM   33  C   UNL     1      26.030  49.143  48.889  1.00  0.00    -0.040 A 
HETATM   34 CL   UNL     1      25.989  47.169  50.784  1.00  0.00    -0.084 Cl
HETATM   35  C   UNL     1      27.521  49.249  49.054  1.00  0.00     0.050 C 
HETATM   36  C   UNL     1      25.378  49.969  47.963  1.00  0.00     0.011 A 
HETATM   37  C   UNL     1      23.993  49.891  47.789  1.00  0.00     0.031 A 
ENDBRANCH   1  30
BRANCH   6  38
HETATM   38  N   UNL     1      21.563  50.946  49.852  1.00  0.00    -0.384 N 
HETATM   39  H   UNL     1      22.562  51.023  49.977  1.00  0.00     0.157 HD
HETATM   40  H   UNL     1      20.972  51.616  50.328  1.00  0.00     0.157 HD
ENDBRANCH   6  38
TORSDOF 10
ENDMDL
MODEL 8
REMARK VINA RESULT:      -8.0      4.503     10.317
REMARK  10 active torsions:
REMARK  status: ('A' for Active; 'I' for Inactive)
REMARK    1  A    between atoms: C_6  and  N_7 
REMARK    2  A    between atoms: C_8  and  S_9 
REMARK    3  A    between atoms: S_9  and  C_10 
REMARK    4  A    between atoms: C_10  and  C_11 
REMARK       I    between atoms: C_11  and  N_12 
REMARK    5  A    between atoms: N_12  and  C_13 
REMARK    6  A    between atoms: C_13  and  C_14 
REMARK    7  A    between atoms: C_14  and  C_15 
REMARK    8  A    between atoms: C_17  and  O_18 
REMARK    9  A    between atoms: C_20  and  O_21 
REMARK   10  A    between atoms: C_29  and  N_30 
ROOT
HETATM    1  N   UNL     1      22.568  47.223  48.541  1.00  0.00    -0.276 N 
HETATM    2  C   UNL     1      22.198  46.175  47.652  1.00  0.00     0.177 A 
HETATM    3  N   UNL     1      22.805  45.016  47.546  1.00  0.00    -0.204 NA
HETATM    4  C   UNL     1      23.842  44.857  48.396  1.00  0.00     0.162 A 
HETATM    5  C   UNL     1      24.351  45.730  49.316  1.00  0.00     0.081 A 
HETATM    6  C   UNL     1      23.720  47.012  49.409  1.00  0.00     0.124 A 
HETATM    7  N   UNL     1      24.602  43.730  48.509  1.00  0.00    -0.260 N 
HETATM    8  H   UNL     1      24.513  42.863  47.990  1.00  0.00     0.191 HD
HETATM    9  N   UNL     1      25.569  43.837  49.447  1.00  0.00    -0.177 NA
HETATM   10  C   UNL     1      25.413  45.071  49.954  1.00  0.00     0.068 A 
HETATM   11  C   UNL     1      26.313  45.530  51.038  1.00  0.00     0.073 C 
ENDROOT
BRANCH   2  12
HETATM   12  S   UNL     1      20.794  46.381  46.577  1.00  0.00    -0.082 SA
BRANCH  12  13
HETATM   13  C   UNL     1      19.625  45.206  47.313  1.00  0.00     0.185 C 
BRANCH  13  14
HETATM   14  C   UNL     1      18.253  45.832  47.519  1.00  0.00     0.227 C 
HETATM   15  N   UNL     1      18.076  47.023  46.840  1.00  0.00    -0.360 N 
HETATM   16  H   UNL     1      18.851  47.447  46.346  1.00  0.00     0.162 HD
HETATM   17  O   UNL     1      17.360  45.304  48.175  1.00  0.00    -0.273 OA
BRANCH  15  18
HETATM   18  C   UNL     1      16.792  47.699  46.793  1.00  0.00     0.127 C 
BRANCH  18  19
HETATM   19  C   UNL     1      16.724  48.918  47.715  1.00  0.00     0.058 C 
BRANCH  19  20
HETATM   20  C   UNL     1      16.663  50.198  46.916  1.00  0.00    -0.054 A 
HETATM   21  C   UNL     1      15.634  51.126  47.141  1.00  0.00     0.046 A 
HETATM   22  C   UNL     1      15.539  52.294  46.374  1.00  0.00     0.102 A 
HETATM   23  C   UNL     1      16.488  52.541  45.361  1.00  0.00     0.101 A 
HETATM   24  C   UNL     1      17.514  51.618  45.141  1.00  0.00     0.040 A 
HETATM   25  C   UNL     1      17.600  50.455  45.911  1.00  0.00     0.010 A 
BRANCH  22  26
HETATM   26  O   UNL     1      14.559  53.245  46.525  1.00  0.00    -0.353 OA
HETATM   27  C   UNL     1      14.435  53.868  47.795  1.00  0.00     0.210 C 
ENDBRANCH  22  26
BRANCH  23  28
HETATM   28  O   UNL     1      16.322  53.703  44.649  1.00  0.00    -0.353 OA
HETATM   29  C   UNL     1      16.870  53.760  43.340  1.00  0.00     0.210 C 
ENDBRANCH  23  28
ENDBRANCH  19  20
ENDBRANCH  18  19
ENDBRANCH  15  18
ENDBRANCH  13  14
ENDBRANCH  12  13
ENDBRANCH   2  12
BRANCH   1  30
HETATM   30  C   UNL     1      21.834  48.444  48.617  1.00  0.00     0.045 A 
HETATM   31  C   UNL     1      20.690  48.553  49.416  1.00  0.00     0.054 A 
HETATM   32  C   UNL     1      19.928  49.727  49.409  1.00  0.00     0.042 A 
HETATM   33  C   UNL     1      20.285  50.809  48.590  1.00  0.00    -0.040 A 
HETATM   34 CL   UNL     1      18.530  49.783  50.422  1.00  0.00    -0.084 Cl
HETATM   35  C   UNL     1      19.482  52.081  48.557  1.00  0.00     0.050 C 
HETATM   36  C   UNL     1      21.433  50.698  47.794  1.00  0.00     0.011 A 
HETATM   37  C   UNL     1      22.198  49.529  47.806  1.00  0.00     0.031 A 
ENDBRANCH   1  30
BRANCH   6  38
HETATM   38  N   UNL     1      24.195  47.945  50.213  1.00  0.00    -0.384 N 
HETATM   39  H   UNL     1      25.168  48.212  50.207  1.00  0.00     0.157 HD
HETATM   40  H   UNL     1      23.571  48.440  50.840  1.00  0.00     0.157 HD
ENDBRANCH   6  38
TORSDOF 10
ENDMDL
MODEL 9
REMARK VINA RESULT:      -8.0      3.008      5.750
REMARK  10 active torsions:
REMARK  status: ('A' for Active; 'I' for Inactive)
REMARK    1  A    between atoms: C_6  and  N_7 
REMARK    2  A    between atoms: C_8  and  S_9 
REMARK    3  A    between atoms: S_9  and  C_10 
REMARK    4  A    between atoms: C_10  and  C_11 
REMARK       I    between atoms: C_11  and  N_12 
REMARK    5  A    between atoms: N_12  and  C_13 
REMARK    6  A    between atoms: C_13  and  C_14 
REMARK    7  A    between atoms: C_14  and  C_15 
REMARK    8  A    between atoms: C_17  and  O_18 
REMARK    9  A    between atoms: C_20  and  O_21 
REMARK   10  A    between atoms: C_29  and  N_30 
ROOT
HETATM    1  N   UNL     1      20.326  48.169  48.273  1.00  0.00    -0.276 N 
HETATM    2  C   UNL     1      21.735  48.244  48.456  1.00  0.00     0.177 A 
HETATM    3  N   UNL     1      22.591  47.288  48.181  1.00  0.00    -0.204 NA
HETATM    4  C   UNL     1      22.029  46.177  47.660  1.00  0.00     0.162 A 
HETATM    5  C   UNL     1      20.712  45.908  47.408  1.00  0.00     0.081 A 
HETATM    6  C   UNL     1      19.768  46.929  47.743  1.00  0.00     0.124 A 
HETATM    7  N   UNL     1      22.708  45.066  47.254  1.00  0.00    -0.260 N 
HETATM    8  H   UNL     1      23.709  44.904  47.279  1.00  0.00     0.191 HD
HETATM    9  N   UNL     1      21.899  44.103  46.761  1.00  0.00    -0.177 NA
HETATM   10  C   UNL     1      20.663  44.622  46.847  1.00  0.00     0.068 A 
HETATM   11  C   UNL     1      19.506  43.828  46.372  1.00  0.00     0.073 C 
ENDROOT
BRANCH   2  12
HETATM   12  S   UNL     1      22.465  49.738  49.092  1.00  0.00    -0.082 SA
BRANCH  12  13
HETATM   13  C   UNL     1      23.707  50.082  47.815  1.00  0.00     0.185 C 
BRANCH  13  14
HETATM   14  C   UNL     1      25.095  49.634  48.247  1.00  0.00     0.227 C 
HETATM   15  N   UNL     1      25.088  48.674  49.242  1.00  0.00    -0.360 N 
HETATM   16  H   UNL     1      24.217  48.401  49.677  1.00  0.00     0.162 HD
HETATM   17  O   UNL     1      26.130  50.039  47.723  1.00  0.00    -0.273 OA
BRANCH  15  18
HETATM   18  C   UNL     1      26.304  48.018  49.686  1.00  0.00     0.127 C 
BRANCH  18  19
HETATM   19  C   UNL     1      26.146  47.322  51.040  1.00  0.00     0.058 C 
BRANCH  19  20
HETATM   20  C   UNL     1      26.407  45.839  50.921  1.00  0.00    -0.054 A 
HETATM   21  C   UNL     1      26.980  45.131  51.989  1.00  0.00     0.046 A 
HETATM   22  C   UNL     1      27.271  43.766  51.872  1.00  0.00     0.102 A 
HETATM   23  C   UNL     1      26.985  43.094  50.667  1.00  0.00     0.101 A 
HETATM   24  C   UNL     1      26.410  43.799  49.605  1.00  0.00     0.040 A 
HETATM   25  C   UNL     1      26.125  45.162  49.731  1.00  0.00     0.010 A 
BRANCH  22  26
HETATM   26  O   UNL     1      27.839  43.006  52.865  1.00  0.00    -0.353 OA
HETATM   27  C   UNL     1      27.223  43.024  54.144  1.00  0.00     0.210 C 
ENDBRANCH  22  26
BRANCH  23  28
HETATM   28  O   UNL     1      27.306  41.759  50.629  1.00  0.00    -0.353 OA
HETATM   29  C   UNL     1      26.238  40.822  50.623  1.00  0.00     0.210 C 
ENDBRANCH  23  28
ENDBRANCH  19  20
ENDBRANCH  18  19
ENDBRANCH  15  18
ENDBRANCH  13  14
ENDBRANCH  12  13
ENDBRANCH   2  12
BRANCH   1  30
HETATM   30  C   UNL     1      19.465  49.268  48.567  1.00  0.00     0.045 A 
HETATM   31  C   UNL     1      19.088  50.180  47.574  1.00  0.00     0.054 A 
HETATM   32  C   UNL     1      18.320  51.304  47.897  1.00  0.00     0.042 A 
HETATM   33  C   UNL     1      17.927  51.549  49.222  1.00  0.00    -0.040 A 
HETATM   34 CL   UNL     1      17.897  52.382  46.615  1.00  0.00    -0.084 Cl
HETATM   35  C   UNL     1      17.106  52.751  49.599  1.00  0.00     0.050 C 
HETATM   36  C   UNL     1      18.302  50.631  50.213  1.00  0.00     0.011 A 
HETATM   37  C   UNL     1      19.064  49.505  49.890  1.00  0.00     0.031 A 
ENDBRANCH   1  30
BRANCH   6  38
HETATM   38  N   UNL     1      18.471  46.726  47.608  1.00  0.00    -0.384 N 
HETATM   39  H   UNL     1      18.058  45.812  47.723  1.00  0.00     0.157 HD
HETATM   40  H   UNL     1      17.852  47.505  47.414  1.00  0.00     0.157 HD
ENDBRANCH   6  38
TORSDOF 10
ENDMDL
MODEL 10
REMARK VINA RESULT:      -7.9      3.012      4.942
REMARK  10 active torsions:
REMARK  status: ('A' for Active; 'I' for Inactive)
REMARK    1  A    between atoms: C_6  and  N_7 
REMARK    2  A    between atoms: C_8  and  S_9 
REMARK    3  A    between atoms: S_9  and  C_10 
REMARK    4  A    between atoms: C_10  and  C_11 
REMARK       I    between atoms: C_11  and  N_12 
REMARK    5  A    between atoms: N_12  and  C_13 
REMARK    6  A    between atoms: C_13  and  C_14 
REMARK    7  A    between atoms: C_14  and  C_15 
REMARK    8  A    between atoms: C_17  and  O_18 
REMARK    9  A    between atoms: C_20  and  O_21 
REMARK   10  A    between atoms: C_29  and  N_30 
ROOT
HETATM    1  N   UNL     1      20.634  45.833  47.543  1.00  0.00    -0.276 N 
HETATM    2  C   UNL     1      21.647  44.902  47.906  1.00  0.00     0.177 A 
HETATM    3  N   UNL     1      21.757  43.678  47.444  1.00  0.00    -0.204 NA
HETATM    4  C   UNL     1      20.817  43.345  46.535  1.00  0.00     0.162 A 
HETATM    5  C   UNL     1      19.772  44.085  46.056  1.00  0.00     0.081 A 
HETATM    6  C   UNL     1      19.620  45.407  46.585  1.00  0.00     0.124 A 
HETATM    7  N   UNL     1      20.742  42.151  45.880  1.00  0.00    -0.260 N 
HETATM    8  H   UNL     1      21.360  41.351  45.970  1.00  0.00     0.191 HD
HETATM    9  N   UNL     1      19.707  42.087  45.014  1.00  0.00    -0.177 NA
HETATM   10  C   UNL     1      19.108  43.285  45.115  1.00  0.00     0.068 A 
HETATM   11  C   UNL     1      17.920  43.575  44.278  1.00  0.00     0.073 C 
ENDROOT
BRANCH   2  12
HETATM   12  S   UNL     1      22.911  45.378  49.065  1.00  0.00    -0.082 SA
BRANCH  12  13
HETATM   13  C   UNL     1      23.556  43.754  49.553  1.00  0.00     0.185 C 
BRANCH  13  14
HETATM   14  C   UNL     1      24.555  43.866  50.696  1.00  0.00     0.227 C 
HETATM   15  N   UNL     1      25.772  44.405  50.322  1.00  0.00    -0.360 N 
HETATM   16  H   UNL     1      25.964  44.599  49.348  1.00  0.00     0.162 HD
HETATM   17  O   UNL     1      24.292  43.566  51.857  1.00  0.00    -0.273 OA
BRANCH  15  18
HETATM   18  C   UNL     1      26.802  44.726  51.292  1.00  0.00     0.127 C 
BRANCH  18  19
HETATM   19  C   UNL     1      27.797  43.583  51.507  1.00  0.00     0.058 C 
BRANCH  19  20
HETATM   20  C   UNL     1      28.524  43.738  52.822  1.00  0.00    -0.054 A 
HETATM   21  C   UNL     1      28.105  44.700  53.754  1.00  0.00     0.046 A 
HETATM   22  C   UNL     1      28.800  44.885  54.957  1.00  0.00     0.102 A 
HETATM   23  C   UNL     1      29.935  44.096  55.234  1.00  0.00     0.101 A 
HETATM   24  C   UNL     1      30.348  43.136  54.306  1.00  0.00     0.040 A 
HETATM   25  C   UNL     1      29.649  42.960  53.109  1.00  0.00     0.010 A 
BRANCH  22  26
HETATM   26  O   UNL     1      28.461  45.809  55.915  1.00  0.00    -0.353 OA
HETATM   27  C   UNL     1      27.764  46.972  55.493  1.00  0.00     0.210 C 
ENDBRANCH  22  26
BRANCH  23  28
HETATM   28  O   UNL     1      30.564  44.343  56.429  1.00  0.00    -0.353 OA
HETATM   29  C   UNL     1      31.581  43.441  56.839  1.00  0.00     0.210 C 
ENDBRANCH  23  28
ENDBRANCH  19  20
ENDBRANCH  18  19
ENDBRANCH  15  18
ENDBRANCH  13  14
ENDBRANCH  12  13
ENDBRANCH   2  12
BRANCH   1  30
HETATM   30  C   UNL     1      20.603  47.160  48.068  1.00  0.00     0.045 A 
HETATM   31  C   UNL     1      19.821  47.480  49.184  1.00  0.00     0.054 A 
HETATM   32  C   UNL     1      19.728  48.802  49.631  1.00  0.00     0.042 A 
HETATM   33  C   UNL     1      20.402  49.835  48.961  1.00  0.00    -0.040 A 
HETATM   34 CL   UNL     1      18.741  49.116  51.013  1.00  0.00    -0.084 Cl
HETATM   35  C   UNL     1      20.317  51.267  49.415  1.00  0.00     0.050 C 
HETATM   36  C   UNL     1      21.189  49.511  47.847  1.00  0.00     0.011 A 
HETATM   37  C   UNL     1      21.287  48.189  47.404  1.00  0.00     0.031 A 
ENDBRANCH   1  30
BRANCH   6  38
HETATM   38  N   UNL     1      18.595  46.163  46.241  1.00  0.00    -0.384 N 
HETATM   39  H   UNL     1      17.991  46.591  46.928  1.00  0.00     0.157 HD
HETATM   40  H   UNL     1      18.411  46.354  45.263  1.00  0.00     0.157 HD
ENDBRANCH   6  38
TORSDOF 10
ENDMDL
