MODEL 1
REMARK VINA RESULT:      -9.8      0.000      0.000
REMARK  10 active torsions:
REMARK  status: ('A' for Active; 'I' for Inactive)
REMARK    1  A    between atoms: C_2  and  C_3 
REMARK    2  A    between atoms: C_3  and  C_4 
REMARK    3  A    between atoms: C_4  and  O_5 
REMARK    4  A    between atoms: O_5  and  C_6 
REMARK    5  A    between atoms: C_9  and  C_10 
REMARK       I    between atoms: C_10  and  N_11 
REMARK    6  A    between atoms: N_11  and  C_12 
REMARK    7  A    between atoms: C_12  and  N_13 
REMARK    8  A    between atoms: N_13  and  C_14 
REMARK    9  A    between atoms: C_16  and  O_17 
REMARK   10  A    between atoms: C_18  and  C_19 
ROOT
HETATM    1  N   UNL     1      24.486  47.119  51.266  1.00  0.00    -0.333 N 
HETATM    2  H   UNL     1      23.518  47.309  51.508  1.00  0.00     0.168 HD
ENDROOT
BRANCH   1   3
HETATM    3  C   UNL     1      24.832  47.384  49.945  1.00  0.00     0.179 C 
HETATM    4  S   UNL     1      26.255  48.183  49.627  1.00  0.00    -0.040 SA
BRANCH   3   5
HETATM    5  N   UNL     1      23.854  47.006  49.019  1.00  0.00    -0.299 N 
HETATM    6  C   UNL     1      22.739  47.526  48.380  1.00  0.00     0.257 C 
HETATM    7  O   UNL     1      22.323  46.951  47.371  1.00  0.00    -0.267 OA
HETATM    8  H   UNL     1      24.039  46.114  48.582  1.00  0.00     0.171 HD
BRANCH   6   9
HETATM    9  C   UNL     1      22.044  48.738  48.814  1.00  0.00     0.032 A 
HETATM   10  C   UNL     1      22.666  49.966  48.549  1.00  0.00     0.020 A 
HETATM   11  C   UNL     1      21.925  51.142  48.608  1.00  0.00     0.038 A 
HETATM   12  C   UNL     1      20.559  51.076  48.886  1.00  0.00     0.068 A 
HETATM   13  C   UNL     1      19.954  49.866  49.231  1.00  0.00     0.038 A 
HETATM   14  C   UNL     1      20.694  48.684  49.177  1.00  0.00     0.020 A 
BRANCH  12  15
HETATM   15  O   UNL     1      19.761  52.184  48.782  1.00  0.00    -0.351 OA
BRANCH  15  16
HETATM   16  C   UNL     1      18.371  51.820  48.726  1.00  0.00     0.175 C 
BRANCH  16  17
HETATM   17  C   UNL     1      17.603  52.614  49.781  1.00  0.00     0.026 C 
BRANCH  17  18
HETATM   18  C   UNL     1      16.143  52.807  49.375  1.00  0.00    -0.002 C 
HETATM   19  C   UNL     1      15.317  53.391  50.509  1.00  0.00     0.005 C 
ENDBRANCH  17  18
ENDBRANCH  16  17
ENDBRANCH  15  16
ENDBRANCH  12  15
ENDBRANCH   6   9
ENDBRANCH   3   5
ENDBRANCH   1   3
BRANCH   1  20
HETATM   20  C   UNL     1      25.317  46.535  52.248  1.00  0.00     0.036 C 
HETATM   21  C   UNL     1      25.822  45.251  52.048  1.00  0.00     0.067 C 
HETATM   22  C   UNL     1      26.855  44.784  52.875  1.00  0.00     0.082 C 
HETATM   23  C   UNL     1      27.357  45.570  53.926  1.00  0.00     0.050 C 
HETATM   24  C   UNL     1      26.710  46.780  54.209  1.00  0.00     0.021 C 
HETATM   25  C   UNL     1      25.697  47.257  53.382  1.00  0.00     0.030 C 
BRANCH  22  26
HETATM   26  O   UNL     1      27.402  43.554  52.625  1.00  0.00    -0.360 OA
HETATM   27  H   UNL     1      28.311  43.654  52.299  1.00  0.00     0.217 HD
ENDBRANCH  22  26
BRANCH  23  28
HETATM   28  C   UNL     1      28.574  45.275  54.679  1.00  0.00     0.183 A 
HETATM   29  O   UNL     1      28.793  46.022  55.810  1.00  0.00    -0.289 OA
HETATM   30  C   UNL     1      29.783  45.350  56.464  1.00  0.00     0.106 A 
HETATM   31  C   UNL     1      30.124  44.247  55.700  1.00  0.00     0.093 A 
HETATM   32  C   UNL     1      30.342  45.661  57.697  1.00  0.00     0.040 A 
HETATM   33  N   UNL     1      29.362  44.216  54.561  1.00  0.00    -0.221 NA
HETATM   34  C   UNL     1      31.097  43.362  56.180  1.00  0.00     0.034 A 
HETATM   35  C   UNL     1      31.680  43.634  57.427  1.00  0.00     0.002 A 
HETATM   36  C   UNL     1      31.308  44.764  58.169  1.00  0.00     0.003 A 
ENDBRANCH  23  28
ENDBRANCH   1  20
TORSDOF 10
ENDMDL
MODEL 2
REMARK VINA RESULT:      -9.7      1.691      2.178
REMARK  10 active torsions:
REMARK  status: ('A' for Active; 'I' for Inactive)
REMARK    1  A    between atoms: C_2  and  C_3 
REMARK    2  A    between atoms: C_3  and  C_4 
REMARK    3  A    between atoms: C_4  and  O_5 
REMARK    4  A    between atoms: O_5  and  C_6 
REMARK    5  A    between atoms: C_9  and  C_10 
REMARK       I    between atoms: C_10  and  N_11 
REMARK    6  A    between atoms: N_11  and  C_12 
REMARK    7  A    between atoms: C_12  and  N_13 
REMARK    8  A    between atoms: N_13  and  C_14 
REMARK    9  A    between atoms: C_16  and  O_17 
REMARK   10  A    between atoms: C_18  and  C_19 
ROOT
HETATM    1  N   UNL     1      24.234  45.510  51.158  1.00  0.00    -0.333 N 
HETATM    2  H   UNL     1      23.236  45.415  51.316  1.00  0.00     0.168 HD
ENDROOT
BRANCH   1   3
HETATM    3  C   UNL     1      24.613  45.684  49.831  1.00  0.00     0.179 C 
HETATM    4  S   UNL     1      24.066  44.608  48.687  1.00  0.00    -0.040 SA
BRANCH   3   5
HETATM    5  N   UNL     1      25.514  46.736  49.635  1.00  0.00    -0.299 N 
HETATM    6  C   UNL     1      25.517  48.099  49.378  1.00  0.00     0.257 C 
HETATM    7  O   UNL     1      26.554  48.731  49.591  1.00  0.00    -0.267 OA
HETATM    8  H   UNL     1      26.473  46.483  49.830  1.00  0.00     0.171 HD
BRANCH   6   9
HETATM    9  C   UNL     1      24.349  48.839  48.899  1.00  0.00     0.032 A 
HETATM   10  C   UNL     1      23.088  48.391  49.317  1.00  0.00     0.020 A 
HETATM   11  C   UNL     1      21.984  49.229  49.199  1.00  0.00     0.038 A 
HETATM   12  C   UNL     1      22.158  50.523  48.707  1.00  0.00     0.068 A 
HETATM   13  C   UNL     1      23.394  50.943  48.214  1.00  0.00     0.038 A 
HETATM   14  C   UNL     1      24.505  50.105  48.326  1.00  0.00     0.020 A 
BRANCH  12  15
HETATM   15  O   UNL     1      21.137  51.435  48.737  1.00  0.00    -0.351 OA
BRANCH  15  16
HETATM   16  C   UNL     1      20.127  51.054  49.688  1.00  0.00     0.175 C 
BRANCH  16  17
HETATM   17  C   UNL     1      18.960  52.035  49.599  1.00  0.00     0.026 C 
BRANCH  17  18
HETATM   18  C   UNL     1      18.758  52.527  48.166  1.00  0.00    -0.002 C 
HETATM   19  C   UNL     1      17.891  51.573  47.362  1.00  0.00     0.005 C 
ENDBRANCH  17  18
ENDBRANCH  16  17
ENDBRANCH  15  16
ENDBRANCH  12  15
ENDBRANCH   6   9
ENDBRANCH   3   5
ENDBRANCH   1   3
BRANCH   1  20
HETATM   20  C   UNL     1      25.102  45.364  52.263  1.00  0.00     0.036 C 
HETATM   21  C   UNL     1      25.445  44.087  52.705  1.00  0.00     0.067 C 
HETATM   22  C   UNL     1      26.508  43.936  53.609  1.00  0.00     0.082 C 
HETATM   23  C   UNL     1      27.199  45.052  54.110  1.00  0.00     0.050 C 
HETATM   24  C   UNL     1      26.717  46.327  53.784  1.00  0.00     0.021 C 
HETATM   25  C   UNL     1      25.676  46.483  52.873  1.00  0.00     0.030 C 
BRANCH  22  26
HETATM   26  O   UNL     1      26.893  42.676  53.979  1.00  0.00    -0.360 OA
HETATM   27  H   UNL     1      26.329  42.354  54.702  1.00  0.00     0.217 HD
ENDBRANCH  22  26
BRANCH  23  28
HETATM   28  C   UNL     1      28.453  44.988  54.857  1.00  0.00     0.183 A 
HETATM   29  O   UNL     1      28.541  45.774  55.980  1.00  0.00    -0.289 OA
HETATM   30  C   UNL     1      29.639  45.297  56.633  1.00  0.00     0.106 A 
HETATM   31  C   UNL     1      30.168  44.266  55.877  1.00  0.00     0.093 A 
HETATM   32  C   UNL     1      30.139  45.716  57.860  1.00  0.00     0.040 A 
HETATM   33  N   UNL     1      29.418  44.086  54.744  1.00  0.00    -0.221 NA
HETATM   34  C   UNL     1      31.287  43.574  56.358  1.00  0.00     0.034 A 
HETATM   35  C   UNL     1      31.818  43.959  57.599  1.00  0.00     0.002 A 
HETATM   36  C   UNL     1      31.252  45.011  58.334  1.00  0.00     0.003 A 
ENDBRANCH  23  28
ENDBRANCH   1  20
TORSDOF 10
ENDMDL
MODEL 3
REMARK VINA RESULT:      -9.6      1.840      2.597
REMARK  10 active torsions:
REMARK  status: ('A' for Active; 'I' for Inactive)
REMARK    1  A    between atoms: C_2  and  C_3 
REMARK    2  A    between atoms: C_3  and  C_4 
REMARK    3  A    between atoms: C_4  and  O_5 
REMARK    4  A    between atoms: O_5  and  C_6 
REMARK    5  A    between atoms: C_9  and  C_10 
REMARK       I    between atoms: C_10  and  N_11 
REMARK    6  A    between atoms: N_11  and  C_12 
REMARK    7  A    between atoms: C_12  and  N_13 
REMARK    8  A    between atoms: N_13  and  C_14 
REMARK    9  A    between atoms: C_16  and  O_17 
REMARK   10  A    between atoms: C_18  and  C_19 
ROOT
HETATM    1  N   UNL     1      24.062  46.809  49.199  1.00  0.00    -0.333 N 
HETATM    2  H   UNL     1      24.520  46.436  48.373  1.00  0.00     0.168 HD
ENDROOT
BRANCH   1   3
HETATM    3  C   UNL     1      22.998  47.669  48.951  1.00  0.00     0.179 C 
HETATM    4  S   UNL     1      21.527  47.030  48.509  1.00  0.00    -0.040 SA
BRANCH   3   5
HETATM    5  N   UNL     1      23.339  49.024  49.024  1.00  0.00    -0.299 N 
HETATM    6  C   UNL     1      22.741  50.262  49.208  1.00  0.00     0.257 C 
HETATM    7  O   UNL     1      23.458  51.214  49.525  1.00  0.00    -0.267 OA
HETATM    8  H   UNL     1      24.336  49.185  49.053  1.00  0.00     0.171 HD
BRANCH   6   9
HETATM    9  C   UNL     1      21.303  50.498  49.079  1.00  0.00     0.032 A 
HETATM   10  C   UNL     1      20.600  50.835  50.244  1.00  0.00     0.020 A 
HETATM   11  C   UNL     1      19.336  51.407  50.145  1.00  0.00     0.038 A 
HETATM   12  C   UNL     1      18.806  51.679  48.884  1.00  0.00     0.068 A 
HETATM   13  C   UNL     1      19.465  51.270  47.724  1.00  0.00     0.038 A 
HETATM   14  C   UNL     1      20.732  50.692  47.817  1.00  0.00     0.020 A 
BRANCH  12  15
HETATM   15  O   UNL     1      17.647  52.397  48.742  1.00  0.00    -0.351 OA
BRANCH  15  16
HETATM   16  C   UNL     1      16.686  52.034  49.749  1.00  0.00     0.175 C 
BRANCH  16  17
HETATM   17  C   UNL     1      15.296  52.478  49.295  1.00  0.00     0.026 C 
BRANCH  17  18
HETATM   18  C   UNL     1      14.421  52.863  50.486  1.00  0.00    -0.002 C 
HETATM   19  C   UNL     1      14.843  54.193  51.088  1.00  0.00     0.005 C 
ENDBRANCH  17  18
ENDBRANCH  16  17
ENDBRANCH  15  16
ENDBRANCH  12  15
ENDBRANCH   6   9
ENDBRANCH   3   5
ENDBRANCH   1   3
BRANCH   1  20
HETATM   20  C   UNL     1      24.604  46.492  50.464  1.00  0.00     0.036 C 
HETATM   21  C   UNL     1      24.337  45.249  51.036  1.00  0.00     0.067 C 
HETATM   22  C   UNL     1      25.087  44.828  52.145  1.00  0.00     0.082 C 
HETATM   23  C   UNL     1      26.069  45.656  52.714  1.00  0.00     0.050 C 
HETATM   24  C   UNL     1      26.191  46.965  52.226  1.00  0.00     0.021 C 
HETATM   25  C   UNL     1      25.463  47.381  51.115  1.00  0.00     0.030 C 
BRANCH  22  26
HETATM   26  O   UNL     1      24.876  43.575  52.655  1.00  0.00    -0.360 OA
HETATM   27  H   UNL     1      25.308  42.911  52.094  1.00  0.00     0.217 HD
ENDBRANCH  22  26
BRANCH  23  28
HETATM   28  C   UNL     1      27.053  45.222  53.704  1.00  0.00     0.183 A 
HETATM   29  O   UNL     1      27.649  44.005  53.486  1.00  0.00    -0.289 OA
HETATM   30  C   UNL     1      28.709  43.996  54.344  1.00  0.00     0.106 A 
HETATM   31  C   UNL     1      28.697  45.189  55.044  1.00  0.00     0.093 A 
HETATM   32  C   UNL     1      29.672  43.005  54.485  1.00  0.00     0.040 A 
HETATM   33  N   UNL     1      27.634  45.956  54.643  1.00  0.00    -0.221 NA
HETATM   34  C   UNL     1      29.719  45.446  55.967  1.00  0.00     0.034 A 
HETATM   35  C   UNL     1      30.719  44.474  56.132  1.00  0.00     0.002 A 
HETATM   36  C   UNL     1      30.693  43.277  55.404  1.00  0.00     0.003 A 
ENDBRANCH  23  28
ENDBRANCH   1  20
TORSDOF 10
ENDMDL
MODEL 4
REMARK VINA RESULT:      -9.5      3.393      9.819
REMARK  10 active torsions:
REMARK  status: ('A' for Active; 'I' for Inactive)
REMARK    1  A    between atoms: C_2  and  C_3 
REMARK    2  A    between atoms: C_3  and  C_4 
REMARK    3  A    between atoms: C_4  and  O_5 
REMARK    4  A    between atoms: O_5  and  C_6 
REMARK    5  A    between atoms: C_9  and  C_10 
REMARK       I    between atoms: C_10  and  N_11 
REMARK    6  A    between atoms: N_11  and  C_12 
REMARK    7  A    between atoms: C_12  and  N_13 
REMARK    8  A    between atoms: N_13  and  C_14 
REMARK    9  A    between atoms: C_16  and  O_17 
REMARK   10  A    between atoms: C_18  and  C_19 
ROOT
HETATM    1  N   UNL     1      26.046  41.755  51.010  1.00  0.00    -0.333 N 
HETATM    2  H   UNL     1      25.332  41.188  51.457  1.00  0.00     0.168 HD
ENDROOT
BRANCH   1   3
HETATM    3  C   UNL     1      27.238  41.096  50.727  1.00  0.00     0.179 C 
HETATM    4  S   UNL     1      27.638  40.792  49.142  1.00  0.00    -0.040 SA
BRANCH   3   5
HETATM    5  N   UNL     1      27.936  40.678  51.866  1.00  0.00    -0.299 N 
HETATM    6  C   UNL     1      28.274  41.134  53.131  1.00  0.00     0.257 C 
HETATM    7  O   UNL     1      28.646  40.308  53.968  1.00  0.00    -0.267 OA
HETATM    8  H   UNL     1      28.212  39.707  51.832  1.00  0.00     0.171 HD
BRANCH   6   9
HETATM    9  C   UNL     1      28.183  42.535  53.542  1.00  0.00     0.032 A 
HETATM   10  C   UNL     1      27.002  42.943  54.177  1.00  0.00     0.020 A 
HETATM   11  C   UNL     1      26.981  44.134  54.896  1.00  0.00     0.038 A 
HETATM   12  C   UNL     1      28.153  44.882  55.013  1.00  0.00     0.068 A 
HETATM   13  C   UNL     1      29.308  44.522  54.315  1.00  0.00     0.038 A 
HETATM   14  C   UNL     1      29.333  43.331  53.589  1.00  0.00     0.020 A 
BRANCH  12  15
HETATM   15  O   UNL     1      28.223  45.963  55.851  1.00  0.00    -0.351 OA
BRANCH  15  16
HETATM   16  C   UNL     1      28.185  47.197  55.112  1.00  0.00     0.175 C 
BRANCH  16  17
HETATM   17  C   UNL     1      26.865  47.909  55.396  1.00  0.00     0.026 C 
BRANCH  17  18
HETATM   18  C   UNL     1      25.839  47.636  54.297  1.00  0.00    -0.002 C 
HETATM   19  C   UNL     1      26.508  47.297  52.976  1.00  0.00     0.005 C 
ENDBRANCH  17  18
ENDBRANCH  16  17
ENDBRANCH  15  16
ENDBRANCH  12  15
ENDBRANCH   6   9
ENDBRANCH   3   5
ENDBRANCH   1   3
BRANCH   1  20
HETATM   20  C   UNL     1      25.784  43.130  50.819  1.00  0.00     0.036 C 
HETATM   21  C   UNL     1      26.777  43.952  50.287  1.00  0.00     0.067 C 
HETATM   22  C   UNL     1      26.436  45.239  49.842  1.00  0.00     0.082 C 
HETATM   23  C   UNL     1      25.124  45.727  49.966  1.00  0.00     0.050 C 
HETATM   24  C   UNL     1      24.193  44.944  50.663  1.00  0.00     0.021 C 
HETATM   25  C   UNL     1      24.520  43.660  51.089  1.00  0.00     0.030 C 
BRANCH  22  26
HETATM   26  O   UNL     1      27.396  46.014  49.249  1.00  0.00    -0.360 OA
HETATM   27  H   UNL     1      27.775  45.548  48.486  1.00  0.00     0.217 HD
ENDBRANCH  22  26
BRANCH  23  28
HETATM   28  C   UNL     1      24.623  46.941  49.326  1.00  0.00     0.183 A 
HETATM   29  O   UNL     1      23.351  46.886  48.812  1.00  0.00    -0.289 OA
HETATM   30  C   UNL     1      23.032  48.190  48.576  1.00  0.00     0.106 A 
HETATM   31  C   UNL     1      24.120  48.965  48.939  1.00  0.00     0.093 A 
HETATM   32  C   UNL     1      21.827  48.691  48.099  1.00  0.00     0.040 A 
HETATM   33  N   UNL     1      25.131  48.163  49.400  1.00  0.00    -0.221 NA
HETATM   34  C   UNL     1      24.027  50.359  48.831  1.00  0.00     0.034 A 
HETATM   35  C   UNL     1      22.823  50.907  48.363  1.00  0.00     0.002 A 
HETATM   36  C   UNL     1      21.745  50.086  48.004  1.00  0.00     0.003 A 
ENDBRANCH  23  28
ENDBRANCH   1  20
TORSDOF 10
ENDMDL
MODEL 5
REMARK VINA RESULT:      -9.5      1.956      2.820
REMARK  10 active torsions:
REMARK  status: ('A' for Active; 'I' for Inactive)
REMARK    1  A    between atoms: C_2  and  C_3 
REMARK    2  A    between atoms: C_3  and  C_4 
REMARK    3  A    between atoms: C_4  and  O_5 
REMARK    4  A    between atoms: O_5  and  C_6 
REMARK    5  A    between atoms: C_9  and  C_10 
REMARK       I    between atoms: C_10  and  N_11 
REMARK    6  A    between atoms: N_11  and  C_12 
REMARK    7  A    between atoms: C_12  and  N_13 
REMARK    8  A    between atoms: N_13  and  C_14 
REMARK    9  A    between atoms: C_16  and  O_17 
REMARK   10  A    between atoms: C_18  and  C_19 
ROOT
HETATM    1  N   UNL     1      23.992  46.736  49.233  1.00  0.00    -0.333 N 
HETATM    2  H   UNL     1      24.436  46.346  48.408  1.00  0.00     0.168 HD
ENDROOT
BRANCH   1   3
HETATM    3  C   UNL     1      22.946  47.618  48.984  1.00  0.00     0.179 C 
HETATM    4  S   UNL     1      21.470  47.011  48.514  1.00  0.00    -0.040 SA
BRANCH   3   5
HETATM    5  N   UNL     1      23.309  48.966  49.081  1.00  0.00    -0.299 N 
HETATM    6  C   UNL     1      22.728  50.213  49.253  1.00  0.00     0.257 C 
HETATM    7  O   UNL     1      23.450  51.149  49.605  1.00  0.00    -0.267 OA
HETATM    8  H   UNL     1      24.308  49.107  49.149  1.00  0.00     0.171 HD
BRANCH   6   9
HETATM    9  C   UNL     1      21.301  50.477  49.073  1.00  0.00     0.032 A 
HETATM   10  C   UNL     1      20.575  50.885  50.200  1.00  0.00     0.020 A 
HETATM   11  C   UNL     1      19.329  51.483  50.040  1.00  0.00     0.038 A 
HETATM   12  C   UNL     1      18.840  51.708  48.753  1.00  0.00     0.068 A 
HETATM   13  C   UNL     1      19.520  51.229  47.632  1.00  0.00     0.038 A 
HETATM   14  C   UNL     1      20.769  50.626  47.787  1.00  0.00     0.020 A 
BRANCH  12  15
HETATM   15  O   UNL     1      17.705  52.446  48.545  1.00  0.00    -0.351 OA
BRANCH  15  16
HETATM   16  C   UNL     1      16.765  51.732  47.722  1.00  0.00     0.175 C 
BRANCH  16  17
HETATM   17  C   UNL     1      15.853  50.894  48.616  1.00  0.00     0.026 C 
BRANCH  17  18
HETATM   18  C   UNL     1      15.509  49.558  47.960  1.00  0.00    -0.002 C 
HETATM   19  C   UNL     1      16.733  48.904  47.340  1.00  0.00     0.005 C 
ENDBRANCH  17  18
ENDBRANCH  16  17
ENDBRANCH  15  16
ENDBRANCH  12  15
ENDBRANCH   6   9
ENDBRANCH   3   5
ENDBRANCH   1   3
BRANCH   1  20
HETATM   20  C   UNL     1      24.535  46.417  50.497  1.00  0.00     0.036 C 
HETATM   21  C   UNL     1      24.317  45.152  51.042  1.00  0.00     0.067 C 
HETATM   22  C   UNL     1      25.074  44.743  52.150  1.00  0.00     0.082 C 
HETATM   23  C   UNL     1      26.013  45.601  52.746  1.00  0.00     0.050 C 
HETATM   24  C   UNL     1      26.082  46.924  52.286  1.00  0.00     0.021 C 
HETATM   25  C   UNL     1      25.348  47.330  51.175  1.00  0.00     0.030 C 
BRANCH  22  26
HETATM   26  O   UNL     1      24.914  43.471  52.632  1.00  0.00    -0.360 OA
HETATM   27  H   UNL     1      24.472  43.497  53.496  1.00  0.00     0.217 HD
ENDBRANCH  22  26
BRANCH  23  28
HETATM   28  C   UNL     1      27.005  45.191  53.738  1.00  0.00     0.183 A 
HETATM   29  O   UNL     1      27.675  44.019  53.489  1.00  0.00    -0.289 OA
HETATM   30  C   UNL     1      28.720  44.042  54.364  1.00  0.00     0.106 A 
HETATM   31  C   UNL     1      28.627  45.207  55.105  1.00  0.00     0.093 A 
HETATM   32  C   UNL     1      29.738  43.104  54.488  1.00  0.00     0.040 A 
HETATM   33  N   UNL     1      27.527  45.923  54.711  1.00  0.00    -0.221 NA
HETATM   34  C   UNL     1      29.618  45.490  56.054  1.00  0.00     0.034 A 
HETATM   35  C   UNL     1      30.670  44.573  56.203  1.00  0.00     0.002 A 
HETATM   36  C   UNL     1      30.726  43.403  55.434  1.00  0.00     0.003 A 
ENDBRANCH  23  28
ENDBRANCH   1  20
TORSDOF 10
ENDMDL
MODEL 6
REMARK VINA RESULT:      -9.1      2.021     11.317
REMARK  10 active torsions:
REMARK  status: ('A' for Active; 'I' for Inactive)
REMARK    1  A    between atoms: C_2  and  C_3 
REMARK    2  A    between atoms: C_3  and  C_4 
REMARK    3  A    between atoms: C_4  and  O_5 
REMARK    4  A    between atoms: O_5  and  C_6 
REMARK    5  A    between atoms: C_9  and  C_10 
REMARK       I    between atoms: C_10  and  N_11 
REMARK    6  A    between atoms: N_11  and  C_12 
REMARK    7  A    between atoms: C_12  and  N_13 
REMARK    8  A    between atoms: N_13  and  C_14 
REMARK    9  A    between atoms: C_16  and  O_17 
REMARK   10  A    between atoms: C_18  and  C_19 
ROOT
HETATM    1  N   UNL     1      26.030  45.721  50.288  1.00  0.00    -0.333 N 
HETATM    2  H   UNL     1      26.929  46.149  50.485  1.00  0.00     0.168 HD
ENDROOT
BRANCH   1   3
HETATM    3  C   UNL     1      25.936  44.367  50.590  1.00  0.00     0.179 C 
HETATM    4  S   UNL     1      26.495  43.252  49.490  1.00  0.00    -0.040 SA
BRANCH   3   5
HETATM    5  N   UNL     1      25.276  44.102  51.795  1.00  0.00    -0.299 N 
HETATM    6  C   UNL     1      25.363  44.410  53.144  1.00  0.00     0.257 C 
HETATM    7  O   UNL     1      24.371  44.219  53.851  1.00  0.00    -0.267 OA
HETATM    8  H   UNL     1      24.398  43.616  51.672  1.00  0.00     0.171 HD
BRANCH   6   9
HETATM    9  C   UNL     1      26.554  44.982  53.773  1.00  0.00     0.032 A 
HETATM   10  C   UNL     1      26.486  46.322  54.178  1.00  0.00     0.020 A 
HETATM   11  C   UNL     1      27.423  46.818  55.078  1.00  0.00     0.038 A 
HETATM   12  C   UNL     1      28.391  45.959  55.601  1.00  0.00     0.068 A 
HETATM   13  C   UNL     1      28.512  44.648  55.138  1.00  0.00     0.038 A 
HETATM   14  C   UNL     1      27.577  44.146  54.231  1.00  0.00     0.020 A 
BRANCH  12  15
HETATM   15  O   UNL     1      29.219  46.359  56.616  1.00  0.00    -0.351 OA
BRANCH  15  16
HETATM   16  C   UNL     1      30.503  45.718  56.521  1.00  0.00     0.175 C 
BRANCH  16  17
HETATM   17  C   UNL     1      30.860  45.110  57.876  1.00  0.00     0.026 C 
BRANCH  17  18
HETATM   18  C   UNL     1      31.622  43.796  57.711  1.00  0.00    -0.002 C 
HETATM   19  C   UNL     1      31.449  43.217  56.317  1.00  0.00     0.005 C 
ENDBRANCH  17  18
ENDBRANCH  16  17
ENDBRANCH  15  16
ENDBRANCH  12  15
ENDBRANCH   6   9
ENDBRANCH   3   5
ENDBRANCH   1   3
BRANCH   1  20
HETATM   20  C   UNL     1      25.039  46.509  49.660  1.00  0.00     0.036 C 
HETATM   21  C   UNL     1      23.900  45.897  49.141  1.00  0.00     0.067 C 
HETATM   22  C   UNL     1      22.802  46.690  48.772  1.00  0.00     0.082 C 
HETATM   23  C   UNL     1      22.851  48.091  48.875  1.00  0.00     0.050 C 
HETATM   24  C   UNL     1      24.070  48.683  49.234  1.00  0.00     0.021 C 
HETATM   25  C   UNL     1      25.155  47.901  49.619  1.00  0.00     0.030 C 
BRANCH  22  26
HETATM   26  O   UNL     1      21.656  46.080  48.337  1.00  0.00    -0.360 OA
HETATM   27  H   UNL     1      21.772  45.767  47.425  1.00  0.00     0.217 HD
ENDBRANCH  22  26
BRANCH  23  28
HETATM   28  C   UNL     1      21.695  48.976  48.746  1.00  0.00     0.183 A 
HETATM   29  O   UNL     1      20.590  48.659  49.496  1.00  0.00    -0.289 OA
HETATM   30  C   UNL     1      19.815  49.779  49.434  1.00  0.00     0.106 A 
HETATM   31  C   UNL     1      20.472  50.706  48.645  1.00  0.00     0.093 A 
HETATM   32  C   UNL     1      18.601  50.000  50.071  1.00  0.00     0.040 A 
HETATM   33  N   UNL     1      21.658  50.183  48.199  1.00  0.00    -0.221 NA
HETATM   34  C   UNL     1      19.896  51.970  48.458  1.00  0.00     0.034 A 
HETATM   35  C   UNL     1      18.674  52.239  49.093  1.00  0.00     0.002 A 
HETATM   36  C   UNL     1      18.040  51.270  49.884  1.00  0.00     0.003 A 
ENDBRANCH  23  28
ENDBRANCH   1  20
TORSDOF 10
ENDMDL
MODEL 7
REMARK VINA RESULT:      -9.1     12.539     14.838
REMARK  10 active torsions:
REMARK  status: ('A' for Active; 'I' for Inactive)
REMARK    1  A    between atoms: C_2  and  C_3 
REMARK    2  A    between atoms: C_3  and  C_4 
REMARK    3  A    between atoms: C_4  and  O_5 
REMARK    4  A    between atoms: O_5  and  C_6 
REMARK    5  A    between atoms: C_9  and  C_10 
REMARK       I    between atoms: C_10  and  N_11 
REMARK    6  A    between atoms: N_11  and  C_12 
REMARK    7  A    between atoms: C_12  and  N_13 
REMARK    8  A    between atoms: N_13  and  C_14 
REMARK    9  A    between atoms: C_16  and  O_17 
REMARK   10  A    between atoms: C_18  and  C_19 
ROOT
HETATM    1  N   UNL     1      33.140  49.840  42.445  1.00  0.00    -0.333 N 
HETATM    2  H   UNL     1      34.014  49.382  42.683  1.00  0.00     0.168 HD
ENDROOT
BRANCH   1   3
HETATM    3  C   UNL     1      33.105  51.212  42.675  1.00  0.00     0.179 C 
HETATM    4  S   UNL     1      32.781  51.766  44.210  1.00  0.00    -0.040 SA
BRANCH   3   5
HETATM    5  N   UNL     1      33.267  51.982  41.519  1.00  0.00    -0.299 N 
HETATM    6  C   UNL     1      32.536  52.427  40.428  1.00  0.00     0.257 C 
HETATM    7  O   UNL     1      32.981  53.372  39.773  1.00  0.00    -0.267 OA
HETATM    8  H   UNL     1      34.154  52.464  41.480  1.00  0.00     0.171 HD
BRANCH   6   9
HETATM    9  C   UNL     1      31.248  51.861  40.026  1.00  0.00     0.032 A 
HETATM   10  C   UNL     1      30.092  52.471  40.532  1.00  0.00     0.020 A 
HETATM   11  C   UNL     1      28.862  52.222  39.931  1.00  0.00     0.038 A 
HETATM   12  C   UNL     1      28.805  51.404  38.803  1.00  0.00     0.068 A 
HETATM   13  C   UNL     1      29.939  50.729  38.347  1.00  0.00     0.038 A 
HETATM   14  C   UNL     1      31.175  50.972  38.948  1.00  0.00     0.020 A 
BRANCH  12  15
HETATM   15  O   UNL     1      27.649  51.273  38.080  1.00  0.00    -0.351 OA
BRANCH  15  16
HETATM   16  C   UNL     1      26.809  50.240  38.626  1.00  0.00     0.175 C 
BRANCH  16  17
HETATM   17  C   UNL     1      26.207  49.429  37.480  1.00  0.00     0.026 C 
BRANCH  17  18
HETATM   18  C   UNL     1      24.805  48.932  37.830  1.00  0.00    -0.002 C 
HETATM   19  C   UNL     1      24.146  48.233  36.653  1.00  0.00     0.005 C 
ENDBRANCH  17  18
ENDBRANCH  16  17
ENDBRANCH  15  16
ENDBRANCH  12  15
ENDBRANCH   6   9
ENDBRANCH   3   5
ENDBRANCH   1   3
BRANCH   1  20
HETATM   20  C   UNL     1      32.062  49.037  42.010  1.00  0.00     0.036 C 
HETATM   21  C   UNL     1      30.801  49.211  42.578  1.00  0.00     0.067 C 
HETATM   22  C   UNL     1      29.685  48.620  41.964  1.00  0.00     0.082 C 
HETATM   23  C   UNL     1      29.825  47.821  40.817  1.00  0.00     0.050 C 
HETATM   24  C   UNL     1      31.121  47.523  40.376  1.00  0.00     0.021 C 
HETATM   25  C   UNL     1      32.230  48.121  40.969  1.00  0.00     0.030 C 
BRANCH  22  26
HETATM   26  O   UNL     1      28.439  48.859  42.479  1.00  0.00    -0.360 OA
HETATM   27  H   UNL     1      27.772  48.362  41.979  1.00  0.00     0.217 HD
ENDBRANCH  22  26
BRANCH  23  28
HETATM   28  C   UNL     1      28.717  47.366  39.980  1.00  0.00     0.183 A 
HETATM   29  O   UNL     1      28.986  47.196  38.644  1.00  0.00    -0.289 OA
HETATM   30  C   UNL     1      27.918  46.488  38.178  1.00  0.00     0.106 A 
HETATM   31  C   UNL     1      27.053  46.278  39.239  1.00  0.00     0.093 A 
HETATM   32  C   UNL     1      27.720  46.009  36.890  1.00  0.00     0.040 A 
HETATM   33  N   UNL     1      27.561  46.852  40.375  1.00  0.00    -0.221 NA
HETATM   34  C   UNL     1      25.888  45.531  39.028  1.00  0.00     0.034 A 
HETATM   35  C   UNL     1      25.655  45.019  37.742  1.00  0.00     0.002 A 
HETATM   36  C   UNL     1      26.555  45.256  36.694  1.00  0.00     0.003 A 
ENDBRANCH  23  28
ENDBRANCH   1  20
TORSDOF 10
ENDMDL
MODEL 8
REMARK VINA RESULT:      -9.1      1.926      2.608
REMARK  10 active torsions:
REMARK  status: ('A' for Active; 'I' for Inactive)
REMARK    1  A    between atoms: C_2  and  C_3 
REMARK    2  A    between atoms: C_3  and  C_4 
REMARK    3  A    between atoms: C_4  and  O_5 
REMARK    4  A    between atoms: O_5  and  C_6 
REMARK    5  A    between atoms: C_9  and  C_10 
REMARK       I    between atoms: C_10  and  N_11 
REMARK    6  A    between atoms: N_11  and  C_12 
REMARK    7  A    between atoms: C_12  and  N_13 
REMARK    8  A    between atoms: N_13  and  C_14 
REMARK    9  A    between atoms: C_16  and  O_17 
REMARK   10  A    between atoms: C_18  and  C_19 
ROOT
HETATM    1  N   UNL     1      23.964  46.336  49.151  1.00  0.00    -0.333 N 
HETATM    2  H   UNL     1      24.534  46.126  48.338  1.00  0.00     0.168 HD
ENDROOT
BRANCH   1   3
HETATM    3  C   UNL     1      22.717  46.889  48.878  1.00  0.00     0.179 C 
HETATM    4  S   UNL     1      22.596  48.530  48.635  1.00  0.00    -0.040 SA
BRANCH   3   5
HETATM    5  N   UNL     1      21.667  45.966  48.930  1.00  0.00    -0.299 N 
HETATM    6  C   UNL     1      20.309  45.887  48.663  1.00  0.00     0.257 C 
HETATM    7  O   UNL     1      19.802  44.769  48.545  1.00  0.00    -0.267 OA
HETATM    8  H   UNL     1      21.973  45.023  49.126  1.00  0.00     0.171 HD
BRANCH   6   9
HETATM    9  C   UNL     1      19.446  47.054  48.482  1.00  0.00     0.032 A 
HETATM   10  C   UNL     1      19.115  47.793  49.626  1.00  0.00     0.020 A 
HETATM   11  C   UNL     1      18.608  49.082  49.492  1.00  0.00     0.038 A 
HETATM   12  C   UNL     1      18.480  49.637  48.218  1.00  0.00     0.068 A 
HETATM   13  C   UNL     1      18.730  48.876  47.075  1.00  0.00     0.038 A 
HETATM   14  C   UNL     1      19.235  47.581  47.203  1.00  0.00     0.020 A 
BRANCH  12  15
HETATM   15  O   UNL     1      18.153  50.956  48.050  1.00  0.00    -0.351 OA
BRANCH  15  16
HETATM   16  C   UNL     1      17.046  51.328  48.891  1.00  0.00     0.175 C 
BRANCH  16  17
HETATM   17  C   UNL     1      17.421  52.577  49.686  1.00  0.00     0.026 C 
BRANCH  17  18
HETATM   18  C   UNL     1      16.178  53.357  50.111  1.00  0.00    -0.002 C 
HETATM   19  C   UNL     1      14.913  52.532  49.947  1.00  0.00     0.005 C 
ENDBRANCH  17  18
ENDBRANCH  16  17
ENDBRANCH  15  16
ENDBRANCH  12  15
ENDBRANCH   6   9
ENDBRANCH   3   5
ENDBRANCH   1   3
BRANCH   1  20
HETATM   20  C   UNL     1      24.527  46.135  50.431  1.00  0.00     0.036 C 
HETATM   21  C   UNL     1      24.288  44.940  51.109  1.00  0.00     0.067 C 
HETATM   22  C   UNL     1      25.059  44.626  52.239  1.00  0.00     0.082 C 
HETATM   23  C   UNL     1      26.034  45.514  52.723  1.00  0.00     0.050 C 
HETATM   24  C   UNL     1      26.128  46.779  52.126  1.00  0.00     0.021 C 
HETATM   25  C   UNL     1      25.379  47.089  50.994  1.00  0.00     0.030 C 
BRANCH  22  26
HETATM   26  O   UNL     1      24.876  43.417  52.854  1.00  0.00    -0.360 OA
HETATM   27  H   UNL     1      24.464  42.789  52.238  1.00  0.00     0.217 HD
ENDBRANCH  22  26
BRANCH  23  28
HETATM   28  C   UNL     1      27.037  45.181  53.732  1.00  0.00     0.183 A 
HETATM   29  O   UNL     1      27.663  43.966  53.598  1.00  0.00    -0.289 OA
HETATM   30  C   UNL     1      28.730  44.048  54.443  1.00  0.00     0.106 A 
HETATM   31  C   UNL     1      28.693  45.289  55.054  1.00  0.00     0.093 A 
HETATM   32  C   UNL     1      29.720  43.095  54.647  1.00  0.00     0.040 A 
HETATM   33  N   UNL     1      27.606  45.996  54.608  1.00  0.00    -0.221 NA
HETATM   34  C   UNL     1      29.715  45.639  55.945  1.00  0.00     0.034 A 
HETATM   35  C   UNL     1      30.742  44.709  56.171  1.00  0.00     0.002 A 
HETATM   36  C   UNL     1      30.741  43.461  55.533  1.00  0.00     0.003 A 
ENDBRANCH  23  28
ENDBRANCH   1  20
TORSDOF 10
ENDMDL
MODEL 9
REMARK VINA RESULT:      -9.0      3.500      4.973
REMARK  10 active torsions:
REMARK  status: ('A' for Active; 'I' for Inactive)
REMARK    1  A    between atoms: C_2  and  C_3 
REMARK    2  A    between atoms: C_3  and  C_4 
REMARK    3  A    between atoms: C_4  and  O_5 
REMARK    4  A    between atoms: O_5  and  C_6 
REMARK    5  A    between atoms: C_9  and  C_10 
REMARK       I    between atoms: C_10  and  N_11 
REMARK    6  A    between atoms: N_11  and  C_12 
REMARK    7  A    between atoms: C_12  and  N_13 
REMARK    8  A    between atoms: N_13  and  C_14 
REMARK    9  A    between atoms: C_16  and  O_17 
REMARK   10  A    between atoms: C_18  and  C_19 
ROOT
HETATM    1  N   UNL     1      26.091  41.067  50.845  1.00  0.00    -0.333 N 
HETATM    2  H   UNL     1      25.630  40.330  51.369  1.00  0.00     0.168 HD
ENDROOT
BRANCH   1   3
HETATM    3  C   UNL     1      25.747  41.145  49.499  1.00  0.00     0.179 C 
HETATM    4  S   UNL     1      26.947  41.368  48.370  1.00  0.00    -0.040 SA
BRANCH   3   5
HETATM    5  N   UNL     1      24.368  41.111  49.267  1.00  0.00    -0.299 N 
HETATM    6  C   UNL     1      23.354  41.918  48.774  1.00  0.00     0.257 C 
HETATM    7  O   UNL     1      22.293  41.384  48.439  1.00  0.00    -0.267 OA
HETATM    8  H   UNL     1      23.962  40.194  49.394  1.00  0.00     0.171 HD
BRANCH   6   9
HETATM    9  C   UNL     1      23.479  43.365  48.596  1.00  0.00     0.032 A 
HETATM   10  C   UNL     1      22.814  43.939  47.504  1.00  0.00     0.020 A 
HETATM   11  C   UNL     1      22.597  45.313  47.473  1.00  0.00     0.038 A 
HETATM   12  C   UNL     1      23.005  46.094  48.554  1.00  0.00     0.068 A 
HETATM   13  C   UNL     1      23.740  45.540  49.603  1.00  0.00     0.038 A 
HETATM   14  C   UNL     1      23.964  44.163  49.638  1.00  0.00     0.020 A 
BRANCH  12  15
HETATM   15  O   UNL     1      22.658  47.416  48.644  1.00  0.00    -0.351 OA
BRANCH  15  16
HETATM   16  C   UNL     1      23.540  48.125  49.533  1.00  0.00     0.175 C 
BRANCH  16  17
HETATM   17  C   UNL     1      24.333  49.155  48.733  1.00  0.00     0.026 C 
BRANCH  17  18
HETATM   18  C   UNL     1      23.415  49.996  47.847  1.00  0.00    -0.002 C 
HETATM   19  C   UNL     1      22.613  50.998  48.660  1.00  0.00     0.005 C 
ENDBRANCH  17  18
ENDBRANCH  16  17
ENDBRANCH  15  16
ENDBRANCH  12  15
ENDBRANCH   6   9
ENDBRANCH   3   5
ENDBRANCH   1   3
BRANCH   1  20
HETATM   20  C   UNL     1      27.068  41.845  51.505  1.00  0.00     0.036 C 
HETATM   21  C   UNL     1      26.789  43.173  51.827  1.00  0.00     0.067 C 
HETATM   22  C   UNL     1      27.635  43.855  52.715  1.00  0.00     0.082 C 
HETATM   23  C   UNL     1      28.780  43.239  53.247  1.00  0.00     0.050 C 
HETATM   24  C   UNL     1      29.126  41.968  52.768  1.00  0.00     0.021 C 
HETATM   25  C   UNL     1      28.282  41.279  51.902  1.00  0.00     0.030 C 
BRANCH  22  26
HETATM   26  O   UNL     1      27.315  45.133  53.090  1.00  0.00    -0.360 OA
HETATM   27  H   UNL     1      27.289  45.711  52.311  1.00  0.00     0.217 HD
ENDBRANCH  22  26
BRANCH  23  28
HETATM   28  C   UNL     1      29.579  43.774  54.347  1.00  0.00     0.183 A 
HETATM   29  O   UNL     1      29.100  44.904  54.963  1.00  0.00    -0.289 OA
HETATM   30  C   UNL     1      29.834  44.995  56.108  1.00  0.00     0.106 A 
HETATM   31  C   UNL     1      30.725  43.935  56.125  1.00  0.00     0.093 A 
HETATM   32  C   UNL     1      29.708  45.940  57.118  1.00  0.00     0.040 A 
HETATM   33  N   UNL     1      30.567  43.174  54.997  1.00  0.00    -0.221 NA
HETATM   34  C   UNL     1      31.572  43.778  57.230  1.00  0.00     0.034 A 
HETATM   35  C   UNL     1      31.470  44.706  58.278  1.00  0.00     0.002 A 
HETATM   36  C   UNL     1      30.554  45.766  58.220  1.00  0.00     0.003 A 
ENDBRANCH  23  28
ENDBRANCH   1  20
TORSDOF 10
ENDMDL
MODEL 10
REMARK VINA RESULT:      -9.0      2.960     10.487
REMARK  10 active torsions:
REMARK  status: ('A' for Active; 'I' for Inactive)
REMARK    1  A    between atoms: C_2  and  C_3 
REMARK    2  A    between atoms: C_3  and  C_4 
REMARK    3  A    between atoms: C_4  and  O_5 
REMARK    4  A    between atoms: O_5  and  C_6 
REMARK    5  A    between atoms: C_9  and  C_10 
REMARK       I    between atoms: C_10  and  N_11 
REMARK    6  A    between atoms: N_11  and  C_12 
REMARK    7  A    between atoms: C_12  and  N_13 
REMARK    8  A    between atoms: N_13  and  C_14 
REMARK    9  A    between atoms: C_16  and  O_17 
REMARK   10  A    between atoms: C_18  and  C_19 
ROOT
HETATM    1  N   UNL     1      25.779  42.118  51.357  1.00  0.00    -0.333 N 
HETATM    2  H   UNL     1      25.356  41.512  52.053  1.00  0.00     0.168 HD
ENDROOT
BRANCH   1   3
HETATM    3  C   UNL     1      26.947  41.634  50.777  1.00  0.00     0.179 C 
HETATM    4  S   UNL     1      27.178  41.826  49.142  1.00  0.00    -0.040 SA
BRANCH   3   5
HETATM    5  N   UNL     1      27.773  40.940  51.668  1.00  0.00    -0.299 N 
HETATM    6  C   UNL     1      28.230  41.020  52.975  1.00  0.00     0.257 C 
HETATM    7  O   UNL     1      28.714  40.008  53.487  1.00  0.00    -0.267 OA
HETATM    8  H   UNL     1      28.073  40.041  51.319  1.00  0.00     0.171 HD
BRANCH   6   9
HETATM    9  C   UNL     1      28.143  42.229  53.795  1.00  0.00     0.032 A 
HETATM   10  C   UNL     1      29.151  43.189  53.634  1.00  0.00     0.020 A 
HETATM   11  C   UNL     1      28.951  44.484  54.102  1.00  0.00     0.038 A 
HETATM   12  C   UNL     1      27.728  44.819  54.684  1.00  0.00     0.068 A 
HETATM   13  C   UNL     1      26.755  43.847  54.921  1.00  0.00     0.038 A 
HETATM   14  C   UNL     1      26.952  42.545  54.457  1.00  0.00     0.020 A 
BRANCH  12  15
HETATM   15  O   UNL     1      27.425  46.117  54.999  1.00  0.00    -0.351 OA
BRANCH  15  16
HETATM   16  C   UNL     1      28.530  46.764  55.655  1.00  0.00     0.175 C 
BRANCH  16  17
HETATM   17  C   UNL     1      28.743  46.121  57.024  1.00  0.00     0.026 C 
BRANCH  17  18
HETATM   18  C   UNL     1      30.227  46.065  57.385  1.00  0.00    -0.002 C 
HETATM   19  C   UNL     1      30.723  44.633  57.503  1.00  0.00     0.005 C 
ENDBRANCH  17  18
ENDBRANCH  16  17
ENDBRANCH  15  16
ENDBRANCH  12  15
ENDBRANCH   6   9
ENDBRANCH   3   5
ENDBRANCH   1   3
BRANCH   1  20
HETATM   20  C   UNL     1      25.198  43.386  51.135  1.00  0.00     0.036 C 
HETATM   21  C   UNL     1      25.861  44.533  51.569  1.00  0.00     0.067 C 
HETATM   22  C   UNL     1      25.432  45.789  51.112  1.00  0.00     0.082 C 
HETATM   23  C   UNL     1      24.320  45.911  50.262  1.00  0.00     0.050 C 
HETATM   24  C   UNL     1      23.572  44.758  49.986  1.00  0.00     0.021 C 
HETATM   25  C   UNL     1      24.003  43.509  50.421  1.00  0.00     0.030 C 
BRANCH  22  26
HETATM   26  O   UNL     1      26.134  46.906  51.478  1.00  0.00    -0.360 OA
HETATM   27  H   UNL     1      25.689  47.352  52.216  1.00  0.00     0.217 HD
ENDBRANCH  22  26
BRANCH  23  28
HETATM   28  C   UNL     1      23.946  47.132  49.550  1.00  0.00     0.183 A 
HETATM   29  O   UNL     1      22.742  47.115  48.890  1.00  0.00    -0.289 OA
HETATM   30  C   UNL     1      22.505  48.425  48.600  1.00  0.00     0.106 A 
HETATM   31  C   UNL     1      23.572  49.166  49.078  1.00  0.00     0.093 A 
HETATM   32  C   UNL     1      21.385  48.962  47.977  1.00  0.00     0.040 A 
HETATM   33  N   UNL     1      24.490  48.335  49.667  1.00  0.00    -0.221 NA
HETATM   34  C   UNL     1      23.548  50.560  48.941  1.00  0.00     0.034 A 
HETATM   35  C   UNL     1      22.429  51.143  48.326  1.00  0.00     0.002 A 
HETATM   36  C   UNL     1      21.370  50.357  47.853  1.00  0.00     0.003 A 
ENDBRANCH  23  28
ENDBRANCH   1  20
TORSDOF 10
ENDMDL
