MODEL 1
REMARK VINA RESULT:      -9.3      0.000      0.000
REMARK  6 active torsions:
REMARK  status: ('A' for Active; 'I' for Inactive)
REMARK    1  A    between atoms: C_2  and  C_3 
REMARK    2  A    between atoms: C_3  and  C_4 
REMARK    3  A    between atoms: C_4  and  C_5 
REMARK    4  A    between atoms: C_4  and  C_21 
REMARK       I    between atoms: C_5  and  N_6 
REMARK    5  A    between atoms: N_6  and  C_7 
REMARK    6  A    between atoms: C_14  and  C_15 
REMARK       I    between atoms: C_15  and  N_16 
ROOT
HETATM    1  C   UNL     1      27.546  42.240  51.602  1.00  0.00     0.035 A 
HETATM    2  C   UNL     1      28.343  41.104  51.409  1.00  0.00     0.046 A 
HETATM    3  C   UNL     1      27.852  40.034  50.629  1.00  0.00     0.030 A 
HETATM    4  C   UNL     1      26.575  40.128  50.091  1.00  0.00     0.063 A 
HETATM    5  N   UNL     1      26.379  38.955  49.417  1.00  0.00    -0.277 N 
HETATM    6  H   UNL     1      25.549  38.671  48.909  1.00  0.00     0.189 HD
HETATM    7  N   UNL     1      27.428  38.117  49.439  1.00  0.00    -0.168 NA
HETATM    8  C   UNL     1      28.350  38.773  50.181  1.00  0.00     0.156 A 
HETATM    9  C   UNL     1      25.755  41.244  50.265  1.00  0.00     0.034 A 
HETATM   10  C   UNL     1      26.274  42.304  51.018  1.00  0.00     0.032 A 
ENDROOT
BRANCH   1  11
HETATM   11  N   UNL     1      27.972  43.368  52.338  1.00  0.00    -0.327 N 
HETATM   12  C   UNL     1      27.805  43.579  53.700  1.00  0.00     0.231 C 
HETATM   13  O   UNL     1      27.121  42.876  54.441  1.00  0.00    -0.272 OA
HETATM   14  H   UNL     1      28.338  44.137  51.795  1.00  0.00     0.169 HD
BRANCH  12  15
HETATM   15  C   UNL     1      28.498  44.866  54.206  1.00  0.00     0.115 C 
BRANCH  15  16
HETATM   16  C   UNL     1      27.432  45.908  54.666  1.00  0.00    -0.001 C 
HETATM   17  C   UNL     1      27.988  47.341  54.679  1.00  0.00     0.011 C 
BRANCH  16  18
HETATM   18  C   UNL     1      26.129  45.853  53.828  1.00  0.00     0.001 C 
HETATM   19  C   UNL     1      26.096  46.761  52.605  1.00  0.00     0.005 C 
ENDBRANCH  16  18
ENDBRANCH  15  16
BRANCH  15  20
HETATM   20  C   UNL     1      29.529  44.538  55.286  1.00  0.00    -0.045 A 
HETATM   21  C   UNL     1      29.655  45.371  56.410  1.00  0.00     0.008 A 
HETATM   22  C   UNL     1      30.574  45.075  57.419  1.00  0.00     0.001 A 
HETATM   23  C   UNL     1      31.382  43.944  57.318  1.00  0.00     0.000 A 
HETATM   24  C   UNL     1      31.269  43.109  56.209  1.00  0.00     0.001 A 
HETATM   25  C   UNL     1      30.348  43.401  55.203  1.00  0.00     0.008 A 
ENDBRANCH  15  20
ENDBRANCH  12  15
ENDBRANCH   1  11
BRANCH   8  26
HETATM   26  C   UNL     1      29.679  38.194  50.425  1.00  0.00     0.270 C 
HETATM   27  N   UNL     1      29.826  37.634  51.665  1.00  0.00    -0.365 N 
HETATM   28  H   UNL     1      29.032  37.639  52.295  1.00  0.00     0.159 HD
HETATM   29  H   UNL     1      30.693  37.183  51.907  1.00  0.00     0.159 HD
HETATM   30  O   UNL     1      30.596  38.179  49.611  1.00  0.00    -0.266 OA
ENDBRANCH   8  26
TORSDOF 6
ENDMDL
MODEL 2
REMARK VINA RESULT:      -9.1      1.260      3.402
REMARK  6 active torsions:
REMARK  status: ('A' for Active; 'I' for Inactive)
REMARK    1  A    between atoms: C_2  and  C_3 
REMARK    2  A    between atoms: C_3  and  C_4 
REMARK    3  A    between atoms: C_4  and  C_5 
REMARK    4  A    between atoms: C_4  and  C_21 
REMARK       I    between atoms: C_5  and  N_6 
REMARK    5  A    between atoms: N_6  and  C_7 
REMARK    6  A    between atoms: C_14  and  C_15 
REMARK       I    between atoms: C_15  and  N_16 
ROOT
HETATM    1  C   UNL     1      27.946  41.924  51.917  1.00  0.00     0.035 A 
HETATM    2  C   UNL     1      28.461  40.639  51.697  1.00  0.00     0.046 A 
HETATM    3  C   UNL     1      28.327  40.044  50.423  1.00  0.00     0.030 A 
HETATM    4  C   UNL     1      27.664  40.746  49.423  1.00  0.00     0.063 A 
HETATM    5  N   UNL     1      27.678  39.922  48.333  1.00  0.00    -0.277 N 
HETATM    6  H   UNL     1      27.273  40.104  47.421  1.00  0.00     0.189 HD
HETATM    7  N   UNL     1      28.320  38.758  48.521  1.00  0.00    -0.168 NA
HETATM    8  C   UNL     1      28.732  38.821  49.808  1.00  0.00     0.156 A 
HETATM    9  C   UNL     1      27.140  42.026  49.609  1.00  0.00     0.034 A 
HETATM   10  C   UNL     1      27.310  42.606  50.872  1.00  0.00     0.032 A 
ENDROOT
BRANCH   1  11
HETATM   11  N   UNL     1      28.067  42.604  53.149  1.00  0.00    -0.327 N 
HETATM   12  C   UNL     1      29.138  43.384  53.563  1.00  0.00     0.231 C 
HETATM   13  O   UNL     1      30.212  43.471  52.971  1.00  0.00    -0.272 OA
HETATM   14  H   UNL     1      27.346  42.413  53.831  1.00  0.00     0.169 HD
BRANCH  12  15
HETATM   15  C   UNL     1      28.894  44.084  54.920  1.00  0.00     0.115 C 
BRANCH  15  16
HETATM   16  C   UNL     1      30.253  44.410  55.612  1.00  0.00    -0.001 C 
HETATM   17  C   UNL     1      30.078  45.325  56.835  1.00  0.00     0.011 C 
BRANCH  16  18
HETATM   18  C   UNL     1      31.051  43.142  56.008  1.00  0.00     0.001 C 
HETATM   19  C   UNL     1      31.947  43.286  57.233  1.00  0.00     0.005 C 
ENDBRANCH  16  18
ENDBRANCH  15  16
BRANCH  15  20
HETATM   20  C   UNL     1      27.995  45.309  54.744  1.00  0.00    -0.045 A 
HETATM   21  C   UNL     1      28.536  46.598  54.876  1.00  0.00     0.008 A 
HETATM   22  C   UNL     1      27.736  47.729  54.695  1.00  0.00     0.001 A 
HETATM   23  C   UNL     1      26.386  47.588  54.384  1.00  0.00     0.000 A 
HETATM   24  C   UNL     1      25.835  46.316  54.252  1.00  0.00     0.001 A 
HETATM   25  C   UNL     1      26.633  45.185  54.427  1.00  0.00     0.008 A 
ENDBRANCH  15  20
ENDBRANCH  12  15
ENDBRANCH   1  11
BRANCH   8  26
HETATM   26  C   UNL     1      29.514  37.730  50.410  1.00  0.00     0.270 C 
HETATM   27  N   UNL     1      28.761  36.663  50.818  1.00  0.00    -0.365 N 
HETATM   28  H   UNL     1      27.759  36.690  50.663  1.00  0.00     0.159 HD
HETATM   29  H   UNL     1      29.216  35.855  51.211  1.00  0.00     0.159 HD
HETATM   30  O   UNL     1      30.734  37.731  50.538  1.00  0.00    -0.266 OA
ENDBRANCH   8  26
TORSDOF 6
ENDMDL
MODEL 3
REMARK VINA RESULT:      -8.8      1.846      2.752
REMARK  6 active torsions:
REMARK  status: ('A' for Active; 'I' for Inactive)
REMARK    1  A    between atoms: C_2  and  C_3 
REMARK    2  A    between atoms: C_3  and  C_4 
REMARK    3  A    between atoms: C_4  and  C_5 
REMARK    4  A    between atoms: C_4  and  C_21 
REMARK       I    between atoms: C_5  and  N_6 
REMARK    5  A    between atoms: N_6  and  C_7 
REMARK    6  A    between atoms: C_14  and  C_15 
REMARK       I    between atoms: C_15  and  N_16 
ROOT
HETATM    1  C   UNL     1      28.300  42.583  52.160  1.00  0.00     0.035 A 
HETATM    2  C   UNL     1      27.340  42.475  51.144  1.00  0.00     0.046 A 
HETATM    3  C   UNL     1      27.147  41.235  50.498  1.00  0.00     0.030 A 
HETATM    4  C   UNL     1      27.935  40.154  50.874  1.00  0.00     0.063 A 
HETATM    5  N   UNL     1      27.537  39.120  50.073  1.00  0.00    -0.277 N 
HETATM    6  H   UNL     1      27.905  38.176  50.063  1.00  0.00     0.189 HD
HETATM    7  N   UNL     1      26.534  39.420  49.232  1.00  0.00    -0.168 NA
HETATM    8  C   UNL     1      26.278  40.724  49.487  1.00  0.00     0.156 A 
HETATM    9  C   UNL     1      28.900  40.227  51.879  1.00  0.00     0.034 A 
HETATM   10  C   UNL     1      29.053  41.460  52.525  1.00  0.00     0.032 A 
ENDROOT
BRANCH   1  11
HETATM   11  N   UNL     1      28.534  43.775  52.880  1.00  0.00    -0.327 N 
HETATM   12  C   UNL     1      28.054  44.085  54.145  1.00  0.00     0.231 C 
HETATM   13  O   UNL     1      27.224  43.422  54.763  1.00  0.00    -0.272 OA
HETATM   14  H   UNL     1      29.009  44.510  52.376  1.00  0.00     0.169 HD
BRANCH  12  15
HETATM   15  C   UNL     1      28.599  45.426  54.692  1.00  0.00     0.115 C 
BRANCH  15  16
HETATM   16  C   UNL     1      27.423  46.405  54.990  1.00  0.00    -0.001 C 
HETATM   17  C   UNL     1      27.823  47.874  54.780  1.00  0.00     0.011 C 
BRANCH  16  18
HETATM   18  C   UNL     1      26.144  46.083  54.177  1.00  0.00     0.001 C 
HETATM   19  C   UNL     1      25.882  46.987  52.979  1.00  0.00     0.005 C 
ENDBRANCH  16  18
ENDBRANCH  15  16
BRANCH  15  20
HETATM   20  C   UNL     1      29.511  45.189  55.897  1.00  0.00    -0.045 A 
HETATM   21  C   UNL     1      29.315  45.925  57.077  1.00  0.00     0.008 A 
HETATM   22  C   UNL     1      30.122  45.707  58.196  1.00  0.00     0.001 A 
HETATM   23  C   UNL     1      31.137  44.753  58.150  1.00  0.00     0.000 A 
HETATM   24  C   UNL     1      31.343  44.016  56.987  1.00  0.00     0.001 A 
HETATM   25  C   UNL     1      30.535  44.229  55.870  1.00  0.00     0.008 A 
ENDBRANCH  15  20
ENDBRANCH  12  15
ENDBRANCH   1  11
BRANCH   8  26
HETATM   26  C   UNL     1      25.206  41.440  48.778  1.00  0.00     0.270 C 
HETATM   27  N   UNL     1      25.560  41.884  47.533  1.00  0.00    -0.365 N 
HETATM   28  H   UNL     1      26.491  41.678  47.192  1.00  0.00     0.159 HD
HETATM   29  H   UNL     1      24.877  42.355  46.962  1.00  0.00     0.159 HD
HETATM   30  O   UNL     1      24.079  41.629  49.222  1.00  0.00    -0.266 OA
ENDBRANCH   8  26
TORSDOF 6
ENDMDL
MODEL 4
REMARK VINA RESULT:      -8.6      4.933      8.425
REMARK  6 active torsions:
REMARK  status: ('A' for Active; 'I' for Inactive)
REMARK    1  A    between atoms: C_2  and  C_3 
REMARK    2  A    between atoms: C_3  and  C_4 
REMARK    3  A    between atoms: C_4  and  C_5 
REMARK    4  A    between atoms: C_4  and  C_21 
REMARK       I    between atoms: C_5  and  N_6 
REMARK    5  A    between atoms: N_6  and  C_7 
REMARK    6  A    between atoms: C_14  and  C_15 
REMARK       I    between atoms: C_15  and  N_16 
ROOT
HETATM    1  C   UNL     1      25.915  47.726  49.990  1.00  0.00     0.035 A 
HETATM    2  C   UNL     1      24.559  47.811  49.644  1.00  0.00     0.046 A 
HETATM    3  C   UNL     1      24.128  48.826  48.763  1.00  0.00     0.030 A 
HETATM    4  C   UNL     1      25.062  49.733  48.277  1.00  0.00     0.063 A 
HETATM    5  N   UNL     1      24.356  50.589  47.481  1.00  0.00    -0.277 N 
HETATM    6  H   UNL     1      24.714  51.388  46.969  1.00  0.00     0.189 HD
HETATM    7  N   UNL     1      23.048  50.302  47.375  1.00  0.00    -0.168 NA
HETATM    8  C   UNL     1      22.893  49.210  48.158  1.00  0.00     0.156 A 
HETATM    9  C   UNL     1      26.419  49.678  48.602  1.00  0.00     0.034 A 
HETATM   10  C   UNL     1      26.827  48.645  49.455  1.00  0.00     0.032 A 
ENDROOT
BRANCH   1  11
HETATM   11  N   UNL     1      26.436  46.723  50.837  1.00  0.00    -0.327 N 
HETATM   12  C   UNL     1      26.146  46.542  52.182  1.00  0.00     0.231 C 
HETATM   13  O   UNL     1      25.503  47.330  52.874  1.00  0.00    -0.272 OA
HETATM   14  H   UNL     1      27.170  46.151  50.444  1.00  0.00     0.169 HD
BRANCH  12  15
HETATM   15  C   UNL     1      26.796  45.272  52.781  1.00  0.00     0.115 C 
BRANCH  15  16
HETATM   16  C   UNL     1      26.521  45.197  54.314  1.00  0.00    -0.001 C 
HETATM   17  C   UNL     1      26.150  43.776  54.769  1.00  0.00     0.011 C 
BRANCH  16  18
HETATM   18  C   UNL     1      27.696  45.737  55.168  1.00  0.00     0.001 C 
HETATM   19  C   UNL     1      28.981  44.919  55.110  1.00  0.00     0.005 C 
ENDBRANCH  16  18
ENDBRANCH  15  16
BRANCH  15  20
HETATM   20  C   UNL     1      26.345  44.024  52.022  1.00  0.00    -0.045 A 
HETATM   21  C   UNL     1      25.000  43.884  51.642  1.00  0.00     0.008 A 
HETATM   22  C   UNL     1      24.573  42.763  50.928  1.00  0.00     0.001 A 
HETATM   23  C   UNL     1      25.483  41.764  50.587  1.00  0.00     0.000 A 
HETATM   24  C   UNL     1      26.819  41.887  50.958  1.00  0.00     0.001 A 
HETATM   25  C   UNL     1      27.248  43.010  51.667  1.00  0.00     0.008 A 
ENDBRANCH  15  20
ENDBRANCH  12  15
ENDBRANCH   1  11
BRANCH   8  26
HETATM   26  C   UNL     1      21.585  48.553  48.294  1.00  0.00     0.270 C 
HETATM   27  N   UNL     1      21.049  48.630  49.551  1.00  0.00    -0.365 N 
HETATM   28  H   UNL     1      21.561  49.134  50.266  1.00  0.00     0.159 HD
HETATM   29  H   UNL     1      20.138  48.237  49.728  1.00  0.00     0.159 HD
HETATM   30  O   UNL     1      20.986  47.989  47.384  1.00  0.00    -0.266 OA
ENDBRANCH   8  26
TORSDOF 6
ENDMDL
MODEL 5
REMARK VINA RESULT:      -8.4      3.623      7.487
REMARK  6 active torsions:
REMARK  status: ('A' for Active; 'I' for Inactive)
REMARK    1  A    between atoms: C_2  and  C_3 
REMARK    2  A    between atoms: C_3  and  C_4 
REMARK    3  A    between atoms: C_4  and  C_5 
REMARK    4  A    between atoms: C_4  and  C_21 
REMARK       I    between atoms: C_5  and  N_6 
REMARK    5  A    between atoms: N_6  and  C_7 
REMARK    6  A    between atoms: C_14  and  C_15 
REMARK       I    between atoms: C_15  and  N_16 
ROOT
HETATM    1  C   UNL     1      28.515  44.205  53.634  1.00  0.00     0.035 A 
HETATM    2  C   UNL     1      28.718  44.819  54.878  1.00  0.00     0.046 A 
HETATM    3  C   UNL     1      29.810  44.422  55.680  1.00  0.00     0.030 A 
HETATM    4  C   UNL     1      30.645  43.411  55.221  1.00  0.00     0.063 A 
HETATM    5  N   UNL     1      31.578  43.238  56.205  1.00  0.00    -0.277 N 
HETATM    6  H   UNL     1      32.342  42.572  56.215  1.00  0.00     0.189 HD
HETATM    7  N   UNL     1      31.447  44.071  57.250  1.00  0.00    -0.168 NA
HETATM    8  C   UNL     1      30.361  44.813  56.938  1.00  0.00     0.156 A 
HETATM    9  C   UNL     1      30.471  42.778  53.989  1.00  0.00     0.034 A 
HETATM   10  C   UNL     1      29.398  43.209  53.199  1.00  0.00     0.032 A 
ENDROOT
BRANCH   1  11
HETATM   11  N   UNL     1      27.470  44.565  52.755  1.00  0.00    -0.327 N 
HETATM   12  C   UNL     1      26.110  44.389  52.970  1.00  0.00     0.231 C 
HETATM   13  O   UNL     1      25.623  43.751  53.901  1.00  0.00    -0.272 OA
HETATM   14  H   UNL     1      27.753  44.883  51.839  1.00  0.00     0.169 HD
BRANCH  12  15
HETATM   15  C   UNL     1      25.232  45.006  51.856  1.00  0.00     0.115 C 
BRANCH  15  16
HETATM   16  C   UNL     1      26.023  46.117  51.099  1.00  0.00    -0.001 C 
HETATM   17  C   UNL     1      26.424  45.681  49.680  1.00  0.00     0.011 C 
BRANCH  16  18
HETATM   18  C   UNL     1      25.269  47.469  51.044  1.00  0.00     0.001 C 
HETATM   19  C   UNL     1      24.283  47.625  49.892  1.00  0.00     0.005 C 
ENDBRANCH  16  18
ENDBRANCH  15  16
BRANCH  15  20
HETATM   20  C   UNL     1      24.684  43.917  50.933  1.00  0.00    -0.045 A 
HETATM   21  C   UNL     1      23.417  44.071  50.345  1.00  0.00     0.008 A 
HETATM   22  C   UNL     1      22.909  43.099  49.481  1.00  0.00     0.001 A 
HETATM   23  C   UNL     1      23.656  41.959  49.194  1.00  0.00     0.000 A 
HETATM   24  C   UNL     1      24.914  41.792  49.770  1.00  0.00     0.001 A 
HETATM   25  C   UNL     1      25.425  42.765  50.630  1.00  0.00     0.008 A 
ENDBRANCH  15  20
ENDBRANCH  12  15
ENDBRANCH   1  11
BRANCH   8  26
HETATM   26  C   UNL     1      29.889  45.883  57.830  1.00  0.00     0.270 C 
HETATM   27  N   UNL     1      30.878  46.461  58.579  1.00  0.00    -0.365 N 
HETATM   28  H   UNL     1      31.831  46.140  58.454  1.00  0.00     0.159 HD
HETATM   29  H   UNL     1      30.652  47.226  59.194  1.00  0.00     0.159 HD
HETATM   30  O   UNL     1      28.726  46.262  57.915  1.00  0.00    -0.266 OA
ENDBRANCH   8  26
TORSDOF 6
ENDMDL
MODEL 6
REMARK VINA RESULT:      -8.3      4.474      7.260
REMARK  6 active torsions:
REMARK  status: ('A' for Active; 'I' for Inactive)
REMARK    1  A    between atoms: C_2  and  C_3 
REMARK    2  A    between atoms: C_3  and  C_4 
REMARK    3  A    between atoms: C_4  and  C_5 
REMARK    4  A    between atoms: C_4  and  C_21 
REMARK       I    between atoms: C_5  and  N_6 
REMARK    5  A    between atoms: N_6  and  C_7 
REMARK    6  A    between atoms: C_14  and  C_15 
REMARK       I    between atoms: C_15  and  N_16 
ROOT
HETATM    1  C   UNL     1      25.286  46.192  50.635  1.00  0.00     0.035 A 
HETATM    2  C   UNL     1      24.818  47.453  50.239  1.00  0.00     0.046 A 
HETATM    3  C   UNL     1      23.690  47.543  49.394  1.00  0.00     0.030 A 
HETATM    4  C   UNL     1      23.085  46.371  48.958  1.00  0.00     0.063 A 
HETATM    5  N   UNL     1      22.054  46.773  48.156  1.00  0.00    -0.277 N 
HETATM    6  H   UNL     1      21.400  46.182  47.655  1.00  0.00     0.189 HD
HETATM    7  N   UNL     1      21.910  48.104  48.058  1.00  0.00    -0.168 NA
HETATM    8  C   UNL     1      22.912  48.595  48.823  1.00  0.00     0.156 A 
HETATM    9  C   UNL     1      23.526  45.100  49.332  1.00  0.00     0.034 A 
HETATM   10  C   UNL     1      24.628  45.037  50.193  1.00  0.00     0.032 A 
ENDROOT
BRANCH   1  11
HETATM   11  N   UNL     1      26.385  46.013  51.504  1.00  0.00    -0.327 N 
HETATM   12  C   UNL     1      26.330  45.675  52.849  1.00  0.00     0.231 C 
HETATM   13  O   UNL     1      25.301  45.631  53.520  1.00  0.00    -0.272 OA
HETATM   14  H   UNL     1      27.290  46.259  51.128  1.00  0.00     0.169 HD
BRANCH  12  15
HETATM   15  C   UNL     1      27.724  45.439  53.475  1.00  0.00     0.115 C 
BRANCH  15  16
HETATM   16  C   UNL     1      27.778  46.040  54.914  1.00  0.00    -0.001 C 
HETATM   17  C   UNL     1      28.967  45.500  55.725  1.00  0.00     0.011 C 
BRANCH  16  18
HETATM   18  C   UNL     1      27.790  47.589  54.924  1.00  0.00     0.001 C 
HETATM   19  C   UNL     1      26.573  48.252  55.558  1.00  0.00     0.005 C 
ENDBRANCH  16  18
ENDBRANCH  15  16
BRANCH  15  20
HETATM   20  C   UNL     1      28.099  43.958  53.423  1.00  0.00    -0.045 A 
HETATM   21  C   UNL     1      29.306  43.562  52.824  1.00  0.00     0.008 A 
HETATM   22  C   UNL     1      29.677  42.216  52.787  1.00  0.00     0.001 A 
HETATM   23  C   UNL     1      28.847  41.247  53.346  1.00  0.00     0.000 A 
HETATM   24  C   UNL     1      27.646  41.624  53.943  1.00  0.00     0.001 A 
HETATM   25  C   UNL     1      27.276  42.969  53.984  1.00  0.00     0.008 A 
ENDBRANCH  15  20
ENDBRANCH  12  15
ENDBRANCH   1  11
BRANCH   8  26
HETATM   26  C   UNL     1      23.089  50.043  49.005  1.00  0.00     0.270 C 
HETATM   27  N   UNL     1      23.584  50.688  47.904  1.00  0.00    -0.365 N 
HETATM   28  H   UNL     1      23.766  50.147  47.067  1.00  0.00     0.159 HD
HETATM   29  H   UNL     1      23.706  51.688  47.927  1.00  0.00     0.159 HD
HETATM   30  O   UNL     1      22.815  50.659  50.030  1.00  0.00    -0.266 OA
ENDBRANCH   8  26
TORSDOF 6
ENDMDL
MODEL 7
REMARK VINA RESULT:      -8.1      6.772     10.032
REMARK  6 active torsions:
REMARK  status: ('A' for Active; 'I' for Inactive)
REMARK    1  A    between atoms: C_2  and  C_3 
REMARK    2  A    between atoms: C_3  and  C_4 
REMARK    3  A    between atoms: C_4  and  C_5 
REMARK    4  A    between atoms: C_4  and  C_21 
REMARK       I    between atoms: C_5  and  N_6 
REMARK    5  A    between atoms: N_6  and  C_7 
REMARK    6  A    between atoms: C_14  and  C_15 
REMARK       I    between atoms: C_15  and  N_16 
ROOT
HETATM    1  C   UNL     1      23.936  47.468  49.619  1.00  0.00     0.035 A 
HETATM    2  C   UNL     1      23.995  46.068  49.629  1.00  0.00     0.046 A 
HETATM    3  C   UNL     1      25.251  45.424  49.693  1.00  0.00     0.030 A 
HETATM    4  C   UNL     1      26.401  46.203  49.723  1.00  0.00     0.063 A 
HETATM    5  N   UNL     1      27.438  45.315  49.764  1.00  0.00    -0.277 N 
HETATM    6  H   UNL     1      28.429  45.529  49.782  1.00  0.00     0.189 HD
HETATM    7  N   UNL     1      27.067  44.024  49.799  1.00  0.00    -0.168 NA
HETATM    8  C   UNL     1      25.715  44.076  49.762  1.00  0.00     0.156 A 
HETATM    9  C   UNL     1      26.378  47.599  49.713  1.00  0.00     0.034 A 
HETATM   10  C   UNL     1      25.120  48.214  49.678  1.00  0.00     0.032 A 
ENDROOT
BRANCH   1  11
HETATM   11  N   UNL     1      22.722  48.191  49.591  1.00  0.00    -0.327 N 
HETATM   12  C   UNL     1      22.143  48.792  48.482  1.00  0.00     0.231 C 
HETATM   13  O   UNL     1      22.686  48.913  47.385  1.00  0.00    -0.272 OA
HETATM   14  H   UNL     1      22.295  48.372  50.488  1.00  0.00     0.169 HD
BRANCH  12  15
HETATM   15  C   UNL     1      20.751  49.400  48.776  1.00  0.00     0.115 C 
BRANCH  15  16
HETATM   16  C   UNL     1      20.519  50.666  47.896  1.00  0.00    -0.001 C 
HETATM   17  C   UNL     1      19.531  50.403  46.748  1.00  0.00     0.011 C 
BRANCH  16  18
HETATM   18  C   UNL     1      20.062  51.899  48.716  1.00  0.00     0.001 C 
HETATM   19  C   UNL     1      18.644  52.384  48.439  1.00  0.00     0.005 C 
ENDBRANCH  16  18
ENDBRANCH  15  16
BRANCH  15  20
HETATM   20  C   UNL     1      19.656  48.344  48.620  1.00  0.00    -0.045 A 
HETATM   21  C   UNL     1      18.421  48.517  49.268  1.00  0.00     0.008 A 
HETATM   22  C   UNL     1      17.400  47.577  49.119  1.00  0.00     0.001 A 
HETATM   23  C   UNL     1      17.598  46.449  48.325  1.00  0.00     0.000 A 
HETATM   24  C   UNL     1      18.817  46.263  47.677  1.00  0.00     0.001 A 
HETATM   25  C   UNL     1      19.837  47.205  47.821  1.00  0.00     0.008 A 
ENDBRANCH  15  20
ENDBRANCH  12  15
ENDBRANCH   1  11
BRANCH   8  26
HETATM   26  C   UNL     1      24.907  42.849  49.811  1.00  0.00     0.270 C 
HETATM   27  N   UNL     1      24.632  42.412  51.079  1.00  0.00    -0.365 N 
HETATM   28  H   UNL     1      24.973  42.956  51.863  1.00  0.00     0.159 HD
HETATM   29  H   UNL     1      24.055  41.597  51.209  1.00  0.00     0.159 HD
HETATM   30  O   UNL     1      24.484  42.249  48.829  1.00  0.00    -0.266 OA
ENDBRANCH   8  26
TORSDOF 6
ENDMDL
MODEL 8
REMARK VINA RESULT:      -8.0      4.733      7.993
REMARK  6 active torsions:
REMARK  status: ('A' for Active; 'I' for Inactive)
REMARK    1  A    between atoms: C_2  and  C_3 
REMARK    2  A    between atoms: C_3  and  C_4 
REMARK    3  A    between atoms: C_4  and  C_5 
REMARK    4  A    between atoms: C_4  and  C_21 
REMARK       I    between atoms: C_5  and  N_6 
REMARK    5  A    between atoms: N_6  and  C_7 
REMARK    6  A    between atoms: C_14  and  C_15 
REMARK       I    between atoms: C_15  and  N_16 
ROOT
HETATM    1  C   UNL     1      25.357  46.541  50.109  1.00  0.00     0.035 A 
HETATM    2  C   UNL     1      24.072  46.922  49.700  1.00  0.00     0.046 A 
HETATM    3  C   UNL     1      23.877  48.187  49.104  1.00  0.00     0.030 A 
HETATM    4  C   UNL     1      24.969  49.033  48.957  1.00  0.00     0.063 A 
HETATM    5  N   UNL     1      24.473  50.167  48.378  1.00  0.00    -0.277 N 
HETATM    6  H   UNL     1      24.987  51.006  48.134  1.00  0.00     0.189 HD
HETATM    7  N   UNL     1      23.160  50.123  48.100  1.00  0.00    -0.168 NA
HETATM    8  C   UNL     1      22.778  48.901  48.539  1.00  0.00     0.156 A 
HETATM    9  C   UNL     1      26.261  48.686  49.354  1.00  0.00     0.034 A 
HETATM   10  C   UNL     1      26.434  47.415  49.917  1.00  0.00     0.032 A 
ENDROOT
BRANCH   1  11
HETATM   11  N   UNL     1      25.645  45.283  50.683  1.00  0.00    -0.327 N 
HETATM   12  C   UNL     1      26.821  44.559  50.541  1.00  0.00     0.231 C 
HETATM   13  O   UNL     1      27.731  44.843  49.765  1.00  0.00    -0.272 OA
HETATM   14  H   UNL     1      24.877  44.825  51.153  1.00  0.00     0.169 HD
BRANCH  12  15
HETATM   15  C   UNL     1      26.853  43.274  51.402  1.00  0.00     0.115 C 
BRANCH  15  16
HETATM   16  C   UNL     1      27.014  42.018  50.491  1.00  0.00    -0.001 C 
HETATM   17  C   UNL     1      26.627  40.720  51.217  1.00  0.00     0.011 C 
BRANCH  16  18
HETATM   18  C   UNL     1      26.233  42.132  49.157  1.00  0.00     0.001 C 
HETATM   19  C   UNL     1      24.787  41.654  49.200  1.00  0.00     0.005 C 
ENDBRANCH  16  18
ENDBRANCH  15  16
BRANCH  15  20
HETATM   20  C   UNL     1      27.923  43.376  52.489  1.00  0.00    -0.045 A 
HETATM   21  C   UNL     1      29.163  42.738  52.312  1.00  0.00     0.008 A 
HETATM   22  C   UNL     1      30.162  42.839  53.283  1.00  0.00     0.001 A 
HETATM   23  C   UNL     1      29.936  43.575  54.444  1.00  0.00     0.000 A 
HETATM   24  C   UNL     1      28.712  44.211  54.634  1.00  0.00     0.001 A 
HETATM   25  C   UNL     1      27.714  44.116  53.663  1.00  0.00     0.008 A 
ENDBRANCH  15  20
ENDBRANCH  12  15
ENDBRANCH   1  11
BRANCH   8  26
HETATM   26  C   UNL     1      21.389  48.442  48.391  1.00  0.00     0.270 C 
HETATM   27  N   UNL     1      20.668  48.459  49.554  1.00  0.00    -0.365 N 
HETATM   28  H   UNL     1      21.119  48.795  50.398  1.00  0.00     0.159 HD
HETATM   29  H   UNL     1      19.697  48.193  49.541  1.00  0.00     0.159 HD
HETATM   30  O   UNL     1      20.879  48.083  47.335  1.00  0.00    -0.266 OA
ENDBRANCH   8  26
TORSDOF 6
ENDMDL
MODEL 9
REMARK VINA RESULT:      -7.9      7.854     11.627
REMARK  6 active torsions:
REMARK  status: ('A' for Active; 'I' for Inactive)
REMARK    1  A    between atoms: C_2  and  C_3 
REMARK    2  A    between atoms: C_3  and  C_4 
REMARK    3  A    between atoms: C_4  and  C_5 
REMARK    4  A    between atoms: C_4  and  C_21 
REMARK       I    between atoms: C_5  and  N_6 
REMARK    5  A    between atoms: N_6  and  C_7 
REMARK    6  A    between atoms: C_14  and  C_15 
REMARK       I    between atoms: C_15  and  N_16 
ROOT
HETATM    1  C   UNL     1      22.737  49.565  48.915  1.00  0.00     0.035 A 
HETATM    2  C   UNL     1      23.584  48.617  49.505  1.00  0.00     0.046 A 
HETATM    3  C   UNL     1      24.964  48.637  49.209  1.00  0.00     0.030 A 
HETATM    4  C   UNL     1      25.445  49.588  48.318  1.00  0.00     0.063 A 
HETATM    5  N   UNL     1      26.786  49.349  48.221  1.00  0.00    -0.277 N 
HETATM    6  H   UNL     1      27.459  49.846  47.648  1.00  0.00     0.189 HD
HETATM    7  N   UNL     1      27.232  48.346  48.996  1.00  0.00    -0.168 NA
HETATM    8  C   UNL     1      26.116  47.899  49.618  1.00  0.00     0.156 A 
HETATM    9  C   UNL     1      24.630  50.546  47.713  1.00  0.00     0.034 A 
HETATM   10  C   UNL     1      23.269  50.524  48.044  1.00  0.00     0.032 A 
ENDROOT
BRANCH   1  11
HETATM   11  N   UNL     1      21.352  49.638  49.182  1.00  0.00    -0.327 N 
HETATM   12  C   UNL     1      20.726  50.489  50.082  1.00  0.00     0.231 C 
HETATM   13  O   UNL     1      21.310  51.203  50.895  1.00  0.00    -0.272 OA
HETATM   14  H   UNL     1      20.781  48.927  48.748  1.00  0.00     0.169 HD
BRANCH  12  15
HETATM   15  C   UNL     1      19.183  50.393  50.040  1.00  0.00     0.115 C 
BRANCH  15  16
HETATM   16  C   UNL     1      18.563  51.792  49.739  1.00  0.00    -0.001 C 
HETATM   17  C   UNL     1      19.178  52.443  48.490  1.00  0.00     0.011 C 
BRANCH  16  18
HETATM   18  C   UNL     1      17.019  51.758  49.612  1.00  0.00     0.001 C 
HETATM   19  C   UNL     1      16.294  53.017  50.071  1.00  0.00     0.005 C 
ENDBRANCH  16  18
ENDBRANCH  15  16
BRANCH  15  20
HETATM   20  C   UNL     1      18.734  49.308  49.059  1.00  0.00    -0.045 A 
HETATM   21  C   UNL     1      18.962  49.472  47.683  1.00  0.00     0.008 A 
HETATM   22  C   UNL     1      18.582  48.482  46.774  1.00  0.00     0.001 A 
HETATM   23  C   UNL     1      17.966  47.317  47.227  1.00  0.00     0.000 A 
HETATM   24  C   UNL     1      17.732  47.141  48.588  1.00  0.00     0.001 A 
HETATM   25  C   UNL     1      18.116  48.127  49.498  1.00  0.00     0.008 A 
ENDBRANCH  15  20
ENDBRANCH  12  15
ENDBRANCH   1  11
BRANCH   8  26
HETATM   26  C   UNL     1      26.180  46.801  50.594  1.00  0.00     0.270 C 
HETATM   27  N   UNL     1      26.103  47.208  51.899  1.00  0.00    -0.365 N 
HETATM   28  H   UNL     1      25.991  48.197  52.092  1.00  0.00     0.159 HD
HETATM   29  H   UNL     1      26.105  46.520  52.634  1.00  0.00     0.159 HD
HETATM   30  O   UNL     1      26.276  45.613  50.306  1.00  0.00    -0.266 OA
ENDBRANCH   8  26
TORSDOF 6
ENDMDL
MODEL 10
REMARK VINA RESULT:      -7.9      4.481      7.193
REMARK  6 active torsions:
REMARK  status: ('A' for Active; 'I' for Inactive)
REMARK    1  A    between atoms: C_2  and  C_3 
REMARK    2  A    between atoms: C_3  and  C_4 
REMARK    3  A    between atoms: C_4  and  C_5 
REMARK    4  A    between atoms: C_4  and  C_21 
REMARK       I    between atoms: C_5  and  N_6 
REMARK    5  A    between atoms: N_6  and  C_7 
REMARK    6  A    between atoms: C_14  and  C_15 
REMARK       I    between atoms: C_15  and  N_16 
ROOT
HETATM    1  C   UNL     1      24.142  45.015  50.509  1.00  0.00     0.035 A 
HETATM    2  C   UNL     1      24.187  46.373  50.165  1.00  0.00     0.046 A 
HETATM    3  C   UNL     1      23.392  46.848  49.099  1.00  0.00     0.030 A 
HETATM    4  C   UNL     1      22.598  45.945  48.401  1.00  0.00     0.063 A 
HETATM    5  N   UNL     1      21.973  46.683  47.436  1.00  0.00    -0.277 N 
HETATM    6  H   UNL     1      21.325  46.349  46.732  1.00  0.00     0.189 HD
HETATM    7  N   UNL     1      22.261  47.995  47.462  1.00  0.00    -0.168 NA
HETATM    8  C   UNL     1      23.133  48.113  48.490  1.00  0.00     0.156 A 
HETATM    9  C   UNL     1      22.531  44.587  48.717  1.00  0.00     0.034 A 
HETATM   10  C   UNL     1      23.307  44.145  49.796  1.00  0.00     0.032 A 
ENDROOT
BRANCH   1  11
HETATM   11  N   UNL     1      24.878  44.464  51.581  1.00  0.00    -0.327 N 
HETATM   12  C   UNL     1      26.260  44.376  51.678  1.00  0.00     0.231 C 
HETATM   13  O   UNL     1      27.045  44.630  50.767  1.00  0.00    -0.272 OA
HETATM   14  H   UNL     1      24.336  43.996  52.294  1.00  0.00     0.169 HD
BRANCH  12  15
HETATM   15  C   UNL     1      26.741  43.826  53.041  1.00  0.00     0.115 C 
BRANCH  15  16
HETATM   16  C   UNL     1      27.809  42.710  52.825  1.00  0.00    -0.001 C 
HETATM   17  C   UNL     1      27.348  41.652  51.809  1.00  0.00     0.011 C 
BRANCH  16  18
HETATM   18  C   UNL     1      29.196  43.267  52.416  1.00  0.00     0.001 C 
HETATM   19  C   UNL     1      30.379  42.739  53.216  1.00  0.00     0.005 C 
ENDBRANCH  16  18
ENDBRANCH  15  16
BRANCH  15  20
HETATM   20  C   UNL     1      27.225  44.961  53.944  1.00  0.00    -0.045 A 
HETATM   21  C   UNL     1      26.816  46.280  53.687  1.00  0.00     0.008 A 
HETATM   22  C   UNL     1      27.228  47.328  54.515  1.00  0.00     0.001 A 
HETATM   23  C   UNL     1      28.055  47.073  55.606  1.00  0.00     0.000 A 
HETATM   24  C   UNL     1      28.469  45.770  55.872  1.00  0.00     0.001 A 
HETATM   25  C   UNL     1      28.054  44.722  55.050  1.00  0.00     0.008 A 
ENDBRANCH  15  20
ENDBRANCH  12  15
ENDBRANCH   1  11
BRANCH   8  26
HETATM   26  C   UNL     1      23.680  49.423  48.874  1.00  0.00     0.270 C 
HETATM   27  N   UNL     1      24.758  49.819  48.131  1.00  0.00    -0.365 N 
HETATM   28  H   UNL     1      25.078  49.215  47.383  1.00  0.00     0.159 HD
HETATM   29  H   UNL     1      25.177  50.719  48.302  1.00  0.00     0.159 HD
HETATM   30  O   UNL     1      23.229  50.135  49.765  1.00  0.00    -0.266 OA
ENDBRANCH   8  26
TORSDOF 6
ENDMDL
