MODEL 1
REMARK VINA RESULT:      -9.8      0.000      0.000
REMARK  3 active torsions:
REMARK  status: ('A' for Active; 'I' for Inactive)
REMARK    1  A    between atoms: C_8  and  C_9 
REMARK       I    between atoms: C_9  and  N_10 
REMARK    2  A    between atoms: N_10  and  C_11 
REMARK    3  A    between atoms: C_18  and  C_19 
REMARK       I    between atoms: C_19  and  N_20 
ROOT
HETATM    1  C   UNL     1      25.916  47.188  50.527  1.00  0.00     0.035 A 
HETATM    2  C   UNL     1      24.656  47.477  49.985  1.00  0.00     0.046 A 
HETATM    3  C   UNL     1      24.524  48.527  49.048  1.00  0.00     0.030 A 
HETATM    4  C   UNL     1      25.658  49.235  48.672  1.00  0.00     0.063 A 
HETATM    5  N   UNL     1      25.223  50.158  47.762  1.00  0.00    -0.277 N 
HETATM    6  H   UNL     1      25.784  50.846  47.271  1.00  0.00     0.189 HD
HETATM    7  N   UNL     1      23.902  50.131  47.529  1.00  0.00    -0.168 NA
HETATM    8  C   UNL     1      23.453  49.130  48.322  1.00  0.00     0.156 A 
HETATM    9  C   UNL     1      26.928  48.973  49.189  1.00  0.00     0.034 A 
HETATM   10  C   UNL     1      27.028  47.944  50.132  1.00  0.00     0.032 A 
ENDROOT
BRANCH   1  11
HETATM   11  N   UNL     1      26.142  46.185  51.493  1.00  0.00    -0.327 N 
HETATM   12  C   UNL     1      26.744  44.953  51.307  1.00  0.00     0.231 C 
HETATM   13  O   UNL     1      27.268  44.579  50.258  1.00  0.00    -0.272 OA
HETATM   14  H   UNL     1      25.872  46.428  52.438  1.00  0.00     0.169 HD
BRANCH  12  15
HETATM   15  C   UNL     1      26.708  43.990  52.507  1.00  0.00     0.116 C 
HETATM   16  C   UNL     1      28.020  43.769  53.220  1.00  0.00    -0.012 A 
HETATM   17  C   UNL     1      28.986  42.906  52.676  1.00  0.00     0.011 A 
HETATM   18  C   UNL     1      28.297  44.434  54.420  1.00  0.00     0.075 A 
HETATM   19  C   UNL     1      30.209  42.718  53.323  1.00  0.00     0.001 A 
HETATM   20  C   UNL     1      30.474  43.383  54.517  1.00  0.00     0.003 A 
HETATM   21  C   UNL     1      29.517  44.236  55.067  1.00  0.00     0.037 A 
HETATM   22  O   UNL     1      27.421  45.271  55.052  1.00  0.00    -0.351 OA
HETATM   23  C   UNL     1      26.259  45.645  54.306  1.00  0.00     0.176 C 
HETATM   24  C   UNL     1      25.671  44.486  53.517  1.00  0.00     0.045 C 
ENDBRANCH  12  15
ENDBRANCH   1  11
BRANCH   8  25
HETATM   25  C   UNL     1      22.026  48.787  48.378  1.00  0.00     0.270 C 
HETATM   26  N   UNL     1      21.428  49.081  49.574  1.00  0.00    -0.365 N 
HETATM   27  H   UNL     1      21.993  49.481  50.314  1.00  0.00     0.159 HD
HETATM   28  H   UNL     1      20.456  48.854  49.714  1.00  0.00     0.159 HD
HETATM   29  O   UNL     1      21.394  48.270  47.463  1.00  0.00    -0.266 OA
ENDBRANCH   8  25
TORSDOF 3
ENDMDL
MODEL 2
REMARK VINA RESULT:      -9.2      4.743      7.895
REMARK  3 active torsions:
REMARK  status: ('A' for Active; 'I' for Inactive)
REMARK    1  A    between atoms: C_8  and  C_9 
REMARK       I    between atoms: C_9  and  N_10 
REMARK    2  A    between atoms: N_10  and  C_11 
REMARK    3  A    between atoms: C_18  and  C_19 
REMARK       I    between atoms: C_19  and  N_20 
ROOT
HETATM    1  C   UNL     1      27.008  41.488  50.349  1.00  0.00     0.035 A 
HETATM    2  C   UNL     1      27.691  40.292  50.609  1.00  0.00     0.046 A 
HETATM    3  C   UNL     1      28.157  39.507  49.529  1.00  0.00     0.030 A 
HETATM    4  C   UNL     1      27.942  39.956  48.233  1.00  0.00     0.063 A 
HETATM    5  N   UNL     1      28.507  39.010  47.424  1.00  0.00    -0.277 N 
HETATM    6  H   UNL     1      28.545  39.013  46.411  1.00  0.00     0.189 HD
HETATM    7  N   UNL     1      29.051  37.971  48.077  1.00  0.00    -0.168 NA
HETATM    8  C   UNL     1      28.837  38.261  49.382  1.00  0.00     0.156 A 
HETATM    9  C   UNL     1      27.269  41.142  47.938  1.00  0.00     0.034 A 
HETATM   10  C   UNL     1      26.797  41.890  49.023  1.00  0.00     0.032 A 
ENDROOT
BRANCH   1  11
HETATM   11  N   UNL     1      26.475  42.321  51.356  1.00  0.00    -0.327 N 
HETATM   12  C   UNL     1      27.113  43.345  52.030  1.00  0.00     0.231 C 
HETATM   13  O   UNL     1      28.247  43.753  51.778  1.00  0.00    -0.272 OA
HETATM   14  H   UNL     1      25.495  42.171  51.563  1.00  0.00     0.169 HD
BRANCH  12  15
HETATM   15  C   UNL     1      26.337  43.978  53.199  1.00  0.00     0.116 C 
HETATM   16  C   UNL     1      27.063  45.052  53.975  1.00  0.00    -0.012 A 
HETATM   17  C   UNL     1      28.032  44.704  54.930  1.00  0.00     0.011 A 
HETATM   18  C   UNL     1      26.793  46.404  53.737  1.00  0.00     0.075 A 
HETATM   19  C   UNL     1      28.719  45.696  55.631  1.00  0.00     0.001 A 
HETATM   20  C   UNL     1      28.442  47.038  55.390  1.00  0.00     0.003 A 
HETATM   21  C   UNL     1      27.476  47.392  54.448  1.00  0.00     0.037 A 
HETATM   22  O   UNL     1      25.852  46.855  52.854  1.00  0.00    -0.351 OA
HETATM   23  C   UNL     1      25.293  45.874  51.976  1.00  0.00     0.176 C 
HETATM   24  C   UNL     1      25.019  44.551  52.673  1.00  0.00     0.045 C 
ENDBRANCH  12  15
ENDBRANCH   1  11
BRANCH   8  25
HETATM   25  C   UNL     1      29.270  37.343  50.445  1.00  0.00     0.270 C 
HETATM   26  N   UNL     1      28.387  36.328  50.699  1.00  0.00    -0.365 N 
HETATM   27  H   UNL     1      27.523  36.293  50.171  1.00  0.00     0.159 HD
HETATM   28  H   UNL     1      28.587  35.666  51.432  1.00  0.00     0.159 HD
HETATM   29  O   UNL     1      30.313  37.450  51.079  1.00  0.00    -0.266 OA
ENDBRANCH   8  25
TORSDOF 3
ENDMDL
MODEL 3
REMARK VINA RESULT:      -9.0      3.779      8.454
REMARK  3 active torsions:
REMARK  status: ('A' for Active; 'I' for Inactive)
REMARK    1  A    between atoms: C_8  and  C_9 
REMARK       I    between atoms: C_9  and  N_10 
REMARK    2  A    between atoms: N_10  and  C_11 
REMARK    3  A    between atoms: C_18  and  C_19 
REMARK       I    between atoms: C_19  and  N_20 
ROOT
HETATM    1  C   UNL     1      28.820  44.095  54.024  1.00  0.00     0.035 A 
HETATM    2  C   UNL     1      29.071  44.835  55.187  1.00  0.00     0.046 A 
HETATM    3  C   UNL     1      30.112  44.436  56.056  1.00  0.00     0.030 A 
HETATM    4  C   UNL     1      30.875  43.325  55.722  1.00  0.00     0.063 A 
HETATM    5  N   UNL     1      31.792  43.199  56.727  1.00  0.00    -0.277 N 
HETATM    6  H   UNL     1      32.518  42.496  56.811  1.00  0.00     0.189 HD
HETATM    7  N   UNL     1      31.680  44.116  57.701  1.00  0.00    -0.168 NA
HETATM    8  C   UNL     1      30.640  44.886  57.304  1.00  0.00     0.156 A 
HETATM    9  C   UNL     1      30.654  42.566  54.571  1.00  0.00     0.034 A 
HETATM   10  C   UNL     1      29.603  42.968  53.738  1.00  0.00     0.032 A 
ENDROOT
BRANCH   1  11
HETATM   11  N   UNL     1      27.783  44.393  53.114  1.00  0.00    -0.327 N 
HETATM   12  C   UNL     1      26.446  44.053  53.216  1.00  0.00     0.231 C 
HETATM   13  O   UNL     1      25.933  43.505  54.191  1.00  0.00    -0.272 OA
HETATM   14  H   UNL     1      28.056  44.964  52.323  1.00  0.00     0.169 HD
BRANCH  12  15
HETATM   15  C   UNL     1      25.569  44.367  51.991  1.00  0.00     0.116 C 
HETATM   16  C   UNL     1      26.003  45.542  51.146  1.00  0.00    -0.012 A 
HETATM   17  C   UNL     1      25.727  46.854  51.563  1.00  0.00     0.011 A 
HETATM   18  C   UNL     1      26.701  45.338  49.951  1.00  0.00     0.075 A 
HETATM   19  C   UNL     1      26.147  47.942  50.796  1.00  0.00     0.001 A 
HETATM   20  C   UNL     1      26.839  47.729  49.607  1.00  0.00     0.003 A 
HETATM   21  C   UNL     1      27.111  46.428  49.183  1.00  0.00     0.037 A 
HETATM   22  O   UNL     1      26.998  44.107  49.437  1.00  0.00    -0.351 OA
HETATM   23  C   UNL     1      26.771  42.992  50.304  1.00  0.00     0.176 C 
HETATM   24  C   UNL     1      25.484  43.123  51.104  1.00  0.00     0.045 C 
ENDBRANCH  12  15
ENDBRANCH   1  11
BRANCH   8  25
HETATM   25  C   UNL     1      30.172  46.012  58.123  1.00  0.00     0.270 C 
HETATM   26  N   UNL     1      31.176  46.716  58.730  1.00  0.00    -0.365 N 
HETATM   27  H   UNL     1      32.133  46.412  58.592  1.00  0.00     0.159 HD
HETATM   28  H   UNL     1      30.947  47.489  59.335  1.00  0.00     0.159 HD
HETATM   29  O   UNL     1      28.995  46.317  58.285  1.00  0.00    -0.266 OA
ENDBRANCH   8  25
TORSDOF 3
ENDMDL
MODEL 4
REMARK VINA RESULT:      -8.8      1.861      2.780
REMARK  3 active torsions:
REMARK  status: ('A' for Active; 'I' for Inactive)
REMARK    1  A    between atoms: C_8  and  C_9 
REMARK       I    between atoms: C_9  and  N_10 
REMARK    2  A    between atoms: N_10  and  C_11 
REMARK    3  A    between atoms: C_18  and  C_19 
REMARK       I    between atoms: C_19  and  N_20 
ROOT
HETATM    1  C   UNL     1      25.587  47.028  50.170  1.00  0.00     0.035 A 
HETATM    2  C   UNL     1      24.323  47.371  49.674  1.00  0.00     0.046 A 
HETATM    3  C   UNL     1      24.177  48.533  48.881  1.00  0.00     0.030 A 
HETATM    4  C   UNL     1      25.302  49.295  48.597  1.00  0.00     0.063 A 
HETATM    5  N   UNL     1      24.855  50.324  47.815  1.00  0.00    -0.277 N 
HETATM    6  H   UNL     1      25.406  51.075  47.415  1.00  0.00     0.189 HD
HETATM    7  N   UNL     1      23.533  50.313  47.584  1.00  0.00    -0.168 NA
HETATM    8  C   UNL     1      23.097  49.213  48.242  1.00  0.00     0.156 A 
HETATM    9  C   UNL     1      26.577  48.982  49.072  1.00  0.00     0.034 A 
HETATM   10  C   UNL     1      26.691  47.840  49.873  1.00  0.00     0.032 A 
ENDROOT
BRANCH   1  11
HETATM   11  N   UNL     1      25.827  45.910  50.998  1.00  0.00    -0.327 N 
HETATM   12  C   UNL     1      26.519  44.756  50.678  1.00  0.00     0.231 C 
HETATM   13  O   UNL     1      27.123  44.568  49.623  1.00  0.00    -0.272 OA
HETATM   14  H   UNL     1      25.491  45.999  51.949  1.00  0.00     0.169 HD
BRANCH  12  15
HETATM   15  C   UNL     1      26.483  43.629  51.726  1.00  0.00     0.116 C 
HETATM   16  C   UNL     1      26.789  42.240  51.218  1.00  0.00    -0.012 A 
HETATM   17  C   UNL     1      25.810  41.505  50.530  1.00  0.00     0.011 A 
HETATM   18  C   UNL     1      28.056  41.677  51.410  1.00  0.00     0.075 A 
HETATM   19  C   UNL     1      26.099  40.230  50.040  1.00  0.00     0.001 A 
HETATM   20  C   UNL     1      27.362  39.678  50.239  1.00  0.00     0.003 A 
HETATM   21  C   UNL     1      28.337  40.399  50.927  1.00  0.00     0.037 A 
HETATM   22  O   UNL     1      29.072  42.290  52.089  1.00  0.00    -0.351 OA
HETATM   23  C   UNL     1      28.872  43.670  52.409  1.00  0.00     0.176 C 
HETATM   24  C   UNL     1      27.452  43.968  52.861  1.00  0.00     0.045 C 
ENDBRANCH  12  15
ENDBRANCH   1  11
BRANCH   8  25
HETATM   25  C   UNL     1      21.673  48.851  48.257  1.00  0.00     0.270 C 
HETATM   26  N   UNL     1      21.171  48.614  49.508  1.00  0.00    -0.365 N 
HETATM   27  H   UNL     1      21.796  48.684  50.303  1.00  0.00     0.159 HD
HETATM   28  H   UNL     1      20.209  48.332  49.613  1.00  0.00     0.159 HD
HETATM   29  O   UNL     1      20.968  48.746  47.260  1.00  0.00    -0.266 OA
ENDBRANCH   8  25
TORSDOF 3
ENDMDL
MODEL 5
REMARK VINA RESULT:      -8.8      3.581      9.523
REMARK  3 active torsions:
REMARK  status: ('A' for Active; 'I' for Inactive)
REMARK    1  A    between atoms: C_8  and  C_9 
REMARK       I    between atoms: C_9  and  N_10 
REMARK    2  A    between atoms: N_10  and  C_11 
REMARK    3  A    between atoms: C_18  and  C_19 
REMARK       I    between atoms: C_19  and  N_20 
ROOT
HETATM    1  C   UNL     1      22.507  49.387  49.047  1.00  0.00     0.035 A 
HETATM    2  C   UNL     1      23.498  48.558  49.589  1.00  0.00     0.046 A 
HETATM    3  C   UNL     1      24.840  48.714  49.176  1.00  0.00     0.030 A 
HETATM    4  C   UNL     1      25.147  49.706  48.254  1.00  0.00     0.063 A 
HETATM    5  N   UNL     1      26.498  49.623  48.067  1.00  0.00    -0.277 N 
HETATM    6  H   UNL     1      27.070  50.200  47.462  1.00  0.00     0.189 HD
HETATM    7  N   UNL     1      27.098  48.648  48.768  1.00  0.00    -0.168 NA
HETATM    8  C   UNL     1      26.084  48.072  49.456  1.00  0.00     0.156 A 
HETATM    9  C   UNL     1      24.186  50.551  47.695  1.00  0.00     0.034 A 
HETATM   10  C   UNL     1      22.861  50.362  48.103  1.00  0.00     0.032 A 
ENDROOT
BRANCH   1  11
HETATM   11  N   UNL     1      21.137  49.285  49.369  1.00  0.00    -0.327 N 
HETATM   12  C   UNL     1      20.357  50.206  50.045  1.00  0.00     0.231 C 
HETATM   13  O   UNL     1      20.735  51.323  50.396  1.00  0.00    -0.272 OA
HETATM   14  H   UNL     1      20.671  48.459  49.013  1.00  0.00     0.169 HD
BRANCH  12  15
HETATM   15  C   UNL     1      18.929  49.756  50.401  1.00  0.00     0.116 C 
HETATM   16  C   UNL     1      17.813  50.404  49.616  1.00  0.00    -0.012 A 
HETATM   17  C   UNL     1      17.384  51.703  49.934  1.00  0.00     0.011 A 
HETATM   18  C   UNL     1      17.209  49.727  48.551  1.00  0.00     0.075 A 
HETATM   19  C   UNL     1      16.368  52.312  49.195  1.00  0.00     0.001 A 
HETATM   20  C   UNL     1      15.771  51.629  48.139  1.00  0.00     0.003 A 
HETATM   21  C   UNL     1      16.188  50.336  47.820  1.00  0.00     0.037 A 
HETATM   22  O   UNL     1      17.527  48.453  48.173  1.00  0.00    -0.351 OA
HETATM   23  C   UNL     1      18.701  47.894  48.771  1.00  0.00     0.176 C 
HETATM   24  C   UNL     1      18.828  48.237  50.247  1.00  0.00     0.045 C 
ENDBRANCH  12  15
ENDBRANCH   1  11
BRANCH   8  25
HETATM   25  C   UNL     1      26.323  46.925  50.343  1.00  0.00     0.270 C 
HETATM   26  N   UNL     1      26.789  45.810  49.700  1.00  0.00    -0.365 N 
HETATM   27  H   UNL     1      26.914  45.847  48.695  1.00  0.00     0.159 HD
HETATM   28  H   UNL     1      26.955  44.966  50.225  1.00  0.00     0.159 HD
HETATM   29  O   UNL     1      26.122  46.923  51.553  1.00  0.00    -0.266 OA
ENDBRANCH   8  25
TORSDOF 3
ENDMDL
MODEL 6
REMARK VINA RESULT:      -8.7      5.196      7.427
REMARK  3 active torsions:
REMARK  status: ('A' for Active; 'I' for Inactive)
REMARK    1  A    between atoms: C_8  and  C_9 
REMARK       I    between atoms: C_9  and  N_10 
REMARK    2  A    between atoms: N_10  and  C_11 
REMARK    3  A    between atoms: C_18  and  C_19 
REMARK       I    between atoms: C_19  and  N_20 
ROOT
HETATM    1  C   UNL     1      29.143  43.376  52.909  1.00  0.00     0.035 A 
HETATM    2  C   UNL     1      28.338  44.440  53.339  1.00  0.00     0.046 A 
HETATM    3  C   UNL     1      28.584  45.035  54.598  1.00  0.00     0.030 A 
HETATM    4  C   UNL     1      29.635  44.560  55.370  1.00  0.00     0.063 A 
HETATM    5  N   UNL     1      29.630  45.328  56.501  1.00  0.00    -0.277 N 
HETATM    6  H   UNL     1      30.266  45.264  57.288  1.00  0.00     0.189 HD
HETATM    7  N   UNL     1      28.653  46.247  56.546  1.00  0.00    -0.168 NA
HETATM    8  C   UNL     1      27.992  46.075  55.377  1.00  0.00     0.156 A 
HETATM    9  C   UNL     1      30.458  43.505  54.973  1.00  0.00     0.034 A 
HETATM   10  C   UNL     1      30.180  42.917  53.733  1.00  0.00     0.032 A 
ENDROOT
BRANCH   1  11
HETATM   11  N   UNL     1      28.955  42.695  51.688  1.00  0.00    -0.327 N 
HETATM   12  C   UNL     1      28.201  41.558  51.462  1.00  0.00     0.231 C 
HETATM   13  O   UNL     1      27.488  41.010  52.302  1.00  0.00    -0.272 OA
HETATM   14  H   UNL     1      29.388  43.130  50.882  1.00  0.00     0.169 HD
BRANCH  12  15
HETATM   15  C   UNL     1      28.310  40.937  50.058  1.00  0.00     0.116 C 
HETATM   16  C   UNL     1      28.102  39.443  49.974  1.00  0.00    -0.012 A 
HETATM   17  C   UNL     1      29.132  38.562  50.343  1.00  0.00     0.011 A 
HETATM   18  C   UNL     1      26.876  38.920  49.549  1.00  0.00     0.075 A 
HETATM   19  C   UNL     1      28.934  37.182  50.287  1.00  0.00     0.001 A 
HETATM   20  C   UNL     1      27.711  36.671  49.860  1.00  0.00     0.003 A 
HETATM   21  C   UNL     1      26.685  37.539  49.487  1.00  0.00     0.037 A 
HETATM   22  O   UNL     1      25.817  39.682  49.141  1.00  0.00    -0.351 OA
HETATM   23  C   UNL     1      25.920  41.087  49.391  1.00  0.00     0.176 C 
HETATM   24  C   UNL     1      27.315  41.630  49.124  1.00  0.00     0.045 C 
ENDBRANCH  12  15
ENDBRANCH   1  11
BRANCH   8  25
HETATM   25  C   UNL     1      26.815  46.889  55.043  1.00  0.00     0.270 C 
HETATM   26  N   UNL     1      26.976  48.227  55.282  1.00  0.00    -0.365 N 
HETATM   27  H   UNL     1      27.854  48.547  55.675  1.00  0.00     0.159 HD
HETATM   28  H   UNL     1      26.211  48.860  55.108  1.00  0.00     0.159 HD
HETATM   29  O   UNL     1      25.761  46.446  54.600  1.00  0.00    -0.266 OA
ENDBRANCH   8  25
TORSDOF 3
ENDMDL
MODEL 7
REMARK VINA RESULT:      -8.7     11.318     14.293
REMARK  3 active torsions:
REMARK  status: ('A' for Active; 'I' for Inactive)
REMARK    1  A    between atoms: C_8  and  C_9 
REMARK       I    between atoms: C_9  and  N_10 
REMARK    2  A    between atoms: N_10  and  C_11 
REMARK    3  A    between atoms: C_18  and  C_19 
REMARK       I    between atoms: C_19  and  N_20 
ROOT
HETATM    1  C   UNL     1      32.697  51.066  42.668  1.00  0.00     0.035 A 
HETATM    2  C   UNL     1      33.965  50.998  42.076  1.00  0.00     0.046 A 
HETATM    3  C   UNL     1      35.085  51.511  42.769  1.00  0.00     0.030 A 
HETATM    4  C   UNL     1      34.901  52.054  44.034  1.00  0.00     0.063 A 
HETATM    5  N   UNL     1      36.144  52.444  44.446  1.00  0.00    -0.277 N 
HETATM    6  H   UNL     1      36.389  52.878  45.329  1.00  0.00     0.189 HD
HETATM    7  N   UNL     1      37.121  52.226  43.552  1.00  0.00    -0.168 NA
HETATM    8  C   UNL     1      36.481  51.654  42.505  1.00  0.00     0.156 A 
HETATM    9  C   UNL     1      33.653  52.135  44.654  1.00  0.00     0.034 A 
HETATM   10  C   UNL     1      32.556  51.642  43.938  1.00  0.00     0.032 A 
ENDROOT
BRANCH   1  11
HETATM   11  N   UNL     1      31.515  50.614  42.043  1.00  0.00    -0.327 N 
HETATM   12  C   UNL     1      30.894  49.388  42.196  1.00  0.00     0.231 C 
HETATM   13  O   UNL     1      31.242  48.520  42.995  1.00  0.00    -0.272 OA
HETATM   14  H   UNL     1      31.052  51.296  41.453  1.00  0.00     0.169 HD
BRANCH  12  15
HETATM   15  C   UNL     1      29.705  49.106  41.261  1.00  0.00     0.116 C 
HETATM   16  C   UNL     1      29.327  50.219  40.312  1.00  0.00    -0.012 A 
HETATM   17  C   UNL     1      28.584  51.319  40.771  1.00  0.00     0.011 A 
HETATM   18  C   UNL     1      29.728  50.177  38.972  1.00  0.00     0.075 A 
HETATM   19  C   UNL     1      28.253  52.360  39.902  1.00  0.00     0.001 A 
HETATM   20  C   UNL     1      28.655  52.307  38.570  1.00  0.00     0.003 A 
HETATM   21  C   UNL     1      29.387  51.215  38.105  1.00  0.00     0.037 A 
HETATM   22  O   UNL     1      30.427  49.144  38.413  1.00  0.00    -0.351 OA
HETATM   23  C   UNL     1      30.959  48.178  39.325  1.00  0.00     0.176 C 
HETATM   24  C   UNL     1      29.994  47.840  40.450  1.00  0.00     0.045 C 
ENDBRANCH  12  15
ENDBRANCH   1  11
BRANCH   8  25
HETATM   25  C   UNL     1      37.208  51.275  41.286  1.00  0.00     0.270 C 
HETATM   26  N   UNL     1      38.358  50.569  41.518  1.00  0.00    -0.365 N 
HETATM   27  H   UNL     1      38.626  50.381  42.477  1.00  0.00     0.159 HD
HETATM   28  H   UNL     1      38.936  50.291  40.741  1.00  0.00     0.159 HD
HETATM   29  O   UNL     1      36.856  51.558  40.146  1.00  0.00    -0.266 OA
ENDBRANCH   8  25
TORSDOF 3
ENDMDL
MODEL 8
REMARK VINA RESULT:      -8.6      4.700      5.725
REMARK  3 active torsions:
REMARK  status: ('A' for Active; 'I' for Inactive)
REMARK    1  A    between atoms: C_8  and  C_9 
REMARK       I    between atoms: C_9  and  N_10 
REMARK    2  A    between atoms: N_10  and  C_11 
REMARK    3  A    between atoms: C_18  and  C_19 
REMARK       I    between atoms: C_19  and  N_20 
ROOT
HETATM    1  C   UNL     1      26.891  41.427  50.811  1.00  0.00     0.035 A 
HETATM    2  C   UNL     1      25.842  41.619  49.902  1.00  0.00     0.046 A 
HETATM    3  C   UNL     1      25.980  41.162  48.572  1.00  0.00     0.030 A 
HETATM    4  C   UNL     1      27.150  40.512  48.205  1.00  0.00     0.063 A 
HETATM    5  N   UNL     1      26.985  40.182  46.889  1.00  0.00    -0.277 N 
HETATM    6  H   UNL     1      27.641  39.690  46.292  1.00  0.00     0.189 HD
HETATM    7  N   UNL     1      25.818  40.581  46.357  1.00  0.00    -0.168 NA
HETATM    8  C   UNL     1      25.187  41.195  47.385  1.00  0.00     0.156 A 
HETATM    9  C   UNL     1      28.214  40.300  49.084  1.00  0.00     0.034 A 
HETATM   10  C   UNL     1      28.062  40.783  50.389  1.00  0.00     0.032 A 
ENDROOT
BRANCH   1  11
HETATM   11  N   UNL     1      26.862  41.878  52.148  1.00  0.00    -0.327 N 
HETATM   12  C   UNL     1      27.501  42.984  52.680  1.00  0.00     0.231 C 
HETATM   13  O   UNL     1      28.133  43.812  52.026  1.00  0.00    -0.272 OA
HETATM   14  H   UNL     1      26.260  41.350  52.768  1.00  0.00     0.169 HD
BRANCH  12  15
HETATM   15  C   UNL     1      27.427  43.141  54.209  1.00  0.00     0.116 C 
HETATM   16  C   UNL     1      28.580  43.869  54.859  1.00  0.00    -0.012 A 
HETATM   17  C   UNL     1      29.801  43.209  55.079  1.00  0.00     0.011 A 
HETATM   18  C   UNL     1      28.454  45.212  55.230  1.00  0.00     0.075 A 
HETATM   19  C   UNL     1      30.874  43.887  55.659  1.00  0.00     0.001 A 
HETATM   20  C   UNL     1      30.738  45.223  56.027  1.00  0.00     0.003 A 
HETATM   21  C   UNL     1      29.527  45.883  55.817  1.00  0.00     0.037 A 
HETATM   22  O   UNL     1      27.306  45.942  55.088  1.00  0.00    -0.351 OA
HETATM   23  C   UNL     1      26.270  45.339  54.307  1.00  0.00     0.176 C 
HETATM   24  C   UNL     1      26.122  43.851  54.577  1.00  0.00     0.045 C 
ENDBRANCH  12  15
ENDBRANCH   1  11
BRANCH   8  25
HETATM   25  C   UNL     1      23.862  41.804  47.208  1.00  0.00     0.270 C 
HETATM   26  N   UNL     1      23.898  43.101  46.771  1.00  0.00    -0.365 N 
HETATM   27  H   UNL     1      24.801  43.538  46.624  1.00  0.00     0.159 HD
HETATM   28  H   UNL     1      23.037  43.609  46.647  1.00  0.00     0.159 HD
HETATM   29  O   UNL     1      22.796  41.240  47.433  1.00  0.00    -0.266 OA
ENDBRANCH   8  25
TORSDOF 3
ENDMDL
MODEL 9
REMARK VINA RESULT:      -8.2      3.670      4.235
REMARK  3 active torsions:
REMARK  status: ('A' for Active; 'I' for Inactive)
REMARK    1  A    between atoms: C_8  and  C_9 
REMARK       I    between atoms: C_9  and  N_10 
REMARK    2  A    between atoms: N_10  and  C_11 
REMARK    3  A    between atoms: C_18  and  C_19 
REMARK       I    between atoms: C_19  and  N_20 
ROOT
HETATM    1  C   UNL     1      25.030  42.738  50.495  1.00  0.00     0.035 A 
HETATM    2  C   UNL     1      24.100  43.487  49.761  1.00  0.00     0.046 A 
HETATM    3  C   UNL     1      23.905  43.205  48.390  1.00  0.00     0.030 A 
HETATM    4  C   UNL     1      24.630  42.173  47.808  1.00  0.00     0.063 A 
HETATM    5  N   UNL     1      24.222  42.134  46.504  1.00  0.00    -0.277 N 
HETATM    6  H   UNL     1      24.539  41.498  45.781  1.00  0.00     0.189 HD
HETATM    7  N   UNL     1      23.312  43.065  46.177  1.00  0.00    -0.168 NA
HETATM    8  C   UNL     1      23.109  43.740  47.333  1.00  0.00     0.156 A 
HETATM    9  C   UNL     1      25.562  41.406  48.509  1.00  0.00     0.034 A 
HETATM   10  C   UNL     1      25.753  41.719  49.860  1.00  0.00     0.032 A 
ENDROOT
BRANCH   1  11
HETATM   11  N   UNL     1      25.320  42.966  51.857  1.00  0.00    -0.327 N 
HETATM   12  C   UNL     1      26.432  43.591  52.391  1.00  0.00     0.231 C 
HETATM   13  O   UNL     1      27.315  44.138  51.730  1.00  0.00    -0.272 OA
HETATM   14  H   UNL     1      24.597  42.677  52.505  1.00  0.00     0.169 HD
BRANCH  12  15
HETATM   15  C   UNL     1      26.565  43.553  53.923  1.00  0.00     0.116 C 
HETATM   16  C   UNL     1      27.933  43.866  54.480  1.00  0.00    -0.012 A 
HETATM   17  C   UNL     1      28.946  42.893  54.461  1.00  0.00     0.011 A 
HETATM   18  C   UNL     1      28.214  45.134  55.002  1.00  0.00     0.075 A 
HETATM   19  C   UNL     1      30.218  43.189  54.955  1.00  0.00     0.001 A 
HETATM   20  C   UNL     1      30.487  44.452  55.475  1.00  0.00     0.003 A 
HETATM   21  C   UNL     1      29.484  45.421  55.502  1.00  0.00     0.037 A 
HETATM   22  O   UNL     1      27.298  46.144  55.096  1.00  0.00    -0.351 OA
HETATM   23  C   UNL     1      26.062  45.938  54.407  1.00  0.00     0.176 C 
HETATM   24  C   UNL     1      25.546  44.514  54.539  1.00  0.00     0.045 C 
ENDBRANCH  12  15
ENDBRANCH   1  11
BRANCH   8  25
HETATM   25  C   UNL     1      22.181  44.878  47.395  1.00  0.00     0.270 C 
HETATM   26  N   UNL     1      20.860  44.521  47.384  1.00  0.00    -0.365 N 
HETATM   27  H   UNL     1      20.624  43.537  47.317  1.00  0.00     0.159 HD
HETATM   28  H   UNL     1      20.150  45.236  47.396  1.00  0.00     0.159 HD
HETATM   29  O   UNL     1      22.520  46.055  47.440  1.00  0.00    -0.266 OA
ENDBRANCH   8  25
TORSDOF 3
ENDMDL
MODEL 10
REMARK VINA RESULT:      -8.1      3.662      9.482
REMARK  3 active torsions:
REMARK  status: ('A' for Active; 'I' for Inactive)
REMARK    1  A    between atoms: C_8  and  C_9 
REMARK       I    between atoms: C_9  and  N_10 
REMARK    2  A    between atoms: N_10  and  C_11 
REMARK    3  A    between atoms: C_18  and  C_19 
REMARK       I    between atoms: C_19  and  N_20 
ROOT
HETATM    1  C   UNL     1      23.444  49.551  49.047  1.00  0.00     0.035 A 
HETATM    2  C   UNL     1      23.458  48.288  49.655  1.00  0.00     0.046 A 
HETATM    3  C   UNL     1      24.677  47.583  49.768  1.00  0.00     0.030 A 
HETATM    4  C   UNL     1      25.840  48.173  49.289  1.00  0.00     0.063 A 
HETATM    5  N   UNL     1      26.836  47.274  49.547  1.00  0.00    -0.277 N 
HETATM    6  H   UNL     1      27.823  47.375  49.338  1.00  0.00     0.189 HD
HETATM    7  N   UNL     1      26.423  46.138  50.132  1.00  0.00    -0.168 NA
HETATM    8  C   UNL     1      25.088  46.311  50.270  1.00  0.00     0.156 A 
HETATM    9  C   UNL     1      25.863  49.429  48.680  1.00  0.00     0.034 A 
HETATM   10  C   UNL     1      24.639  50.097  48.560  1.00  0.00     0.032 A 
ENDROOT
BRANCH   1  11
HETATM   11  N   UNL     1      22.273  50.315  48.856  1.00  0.00    -0.327 N 
HETATM   12  C   UNL     1      21.158  49.981  48.110  1.00  0.00     0.231 C 
HETATM   13  O   UNL     1      20.980  48.894  47.561  1.00  0.00    -0.272 OA
HETATM   14  H   UNL     1      22.239  51.187  49.372  1.00  0.00     0.169 HD
BRANCH  12  15
HETATM   15  C   UNL     1      20.095  51.082  47.943  1.00  0.00     0.116 C 
HETATM   16  C   UNL     1      18.828  50.679  47.225  1.00  0.00    -0.012 A 
HETATM   17  C   UNL     1      18.809  50.579  45.825  1.00  0.00     0.011 A 
HETATM   18  C   UNL     1      17.667  50.383  47.947  1.00  0.00     0.075 A 
HETATM   19  C   UNL     1      17.646  50.186  45.161  1.00  0.00     0.001 A 
HETATM   20  C   UNL     1      16.494  49.896  45.888  1.00  0.00     0.003 A 
HETATM   21  C   UNL     1      16.504  49.999  47.279  1.00  0.00     0.037 A 
HETATM   22  O   UNL     1      17.565  50.476  49.307  1.00  0.00    -0.351 OA
HETATM   23  C   UNL     1      18.791  50.666  50.018  1.00  0.00     0.176 C 
HETATM   24  C   UNL     1      19.730  51.638  49.322  1.00  0.00     0.045 C 
ENDBRANCH  12  15
ENDBRANCH   1  11
BRANCH   8  25
HETATM   25  C   UNL     1      24.243  45.263  50.858  1.00  0.00     0.270 C 
HETATM   26  N   UNL     1      23.254  44.811  50.026  1.00  0.00    -0.365 N 
HETATM   27  H   UNL     1      23.167  45.227  49.106  1.00  0.00     0.159 HD
HETATM   28  H   UNL     1      22.608  44.111  50.355  1.00  0.00     0.159 HD
HETATM   29  O   UNL     1      24.370  44.817  51.993  1.00  0.00    -0.266 OA
ENDBRANCH   8  25
TORSDOF 3
ENDMDL
