MODEL 1
REMARK VINA RESULT:     -10.4      0.000      0.000
REMARK  7 active torsions:
REMARK  status: ('A' for Active; 'I' for Inactive)
REMARK    1  A    between atoms: C_2  and  O_3 
REMARK    2  A    between atoms: O_3  and  C_4 
REMARK    3  A    between atoms: C_7  and  N_8 
REMARK       I    between atoms: N_8  and  C_9 
REMARK    4  A    between atoms: C_9  and  C_10 
REMARK    5  A    between atoms: C_13  and  N_14 
REMARK       I    between atoms: N_14  and  C_15 
REMARK    6  A    between atoms: C_15  and  C_16 
REMARK    7  A    between atoms: C_16  and  N_17 
ROOT
HETATM    1  C   UNL     1      25.951  42.737  50.709  1.00  0.00     0.032 A 
HETATM    2  C   UNL     1      24.620  43.137  50.845  1.00  0.00     0.019 A 
HETATM    3  C   UNL     1      24.200  44.368  50.312  1.00  0.00     0.030 A 
HETATM    4  C   UNL     1      25.110  45.209  49.664  1.00  0.00     0.034 A 
HETATM    5  C   UNL     1      26.436  44.782  49.508  1.00  0.00     0.030 A 
HETATM    6  C   UNL     1      26.858  43.561  50.037  1.00  0.00     0.019 A 
ENDROOT
BRANCH   4   7
HETATM    7  N   UNL     1      24.815  46.508  49.198  1.00  0.00    -0.326 N 
HETATM    8  C   UNL     1      24.654  47.670  49.942  1.00  0.00     0.240 C 
HETATM    9  O   UNL     1      24.613  47.746  51.166  1.00  0.00    -0.271 OA
HETATM   10  H   UNL     1      24.859  46.617  48.191  1.00  0.00     0.169 HD
BRANCH   8  11
HETATM   11  C   UNL     1      24.505  48.909  49.045  1.00  0.00     0.240 C 
BRANCH  11  12
HETATM   12  N   UNL     1      23.111  49.209  48.829  1.00  0.00    -0.259 N 
HETATM   13  C   UNL     1      22.293  48.440  48.063  1.00  0.00     0.326 A 
HETATM   14  O   UNL     1      22.589  47.408  47.485  1.00  0.00    -0.247 OA
HETATM   15  N   UNL     1      21.038  48.999  48.065  1.00  0.00    -0.324 N 
HETATM   16  C   UNL     1      20.938  50.131  48.962  1.00  0.00     0.116 A 
HETATM   17  H   UNL     1      20.272  48.551  47.578  1.00  0.00     0.165 HD
HETATM   18  C   UNL     1      20.039  49.802  50.159  1.00  0.00     0.041 C 
HETATM   19  C   UNL     1      20.508  51.406  48.238  1.00  0.00     0.041 C 
HETATM   20  C   UNL     1      22.411  50.226  49.412  1.00  0.00     0.256 A 
HETATM   21  C   UNL     1      18.557  49.787  49.776  1.00  0.00     0.007 C 
HETATM   22  C   UNL     1      18.107  51.070  49.063  1.00  0.00    -0.019 C 
HETATM   23  C   UNL     1      18.009  52.249  50.036  1.00  0.00     0.010 C 
HETATM   24  C   UNL     1      19.022  51.389  47.872  1.00  0.00     0.007 C 
HETATM   25  O   UNL     1      22.855  51.040  50.211  1.00  0.00    -0.270 OA
ENDBRANCH  11  12
ENDBRANCH   8  11
ENDBRANCH   4   7
BRANCH   1  26
HETATM   26  C   UNL     1      26.507  41.600  51.460  1.00  0.00     0.256 C 
HETATM   27  N   UNL     1      27.414  41.698  52.479  1.00  0.00    -0.323 N 
HETATM   28  H   UNL     1      27.726  40.766  52.730  1.00  0.00     0.169 HD
HETATM   29  O   UNL     1      26.143  40.472  51.116  1.00  0.00    -0.267 OA
BRANCH  27  30
HETATM   30  C   UNL     1      27.884  42.725  53.310  1.00  0.00     0.035 A 
HETATM   31  C   UNL     1      27.125  43.761  53.846  1.00  0.00     0.032 A 
HETATM   32  C   UNL     1      27.716  44.712  54.700  1.00  0.00     0.039 A 
HETATM   33  C   UNL     1      29.067  44.626  55.035  1.00  0.00     0.068 A 
HETATM   34  C   UNL     1      29.820  43.576  54.519  1.00  0.00     0.039 A 
HETATM   35  C   UNL     1      29.238  42.639  53.664  1.00  0.00     0.032 A 
BRANCH  33  36
HETATM   36  O   UNL     1      29.769  45.461  55.855  1.00  0.00    -0.352 OA
BRANCH  36  37
HETATM   37  C   UNL     1      29.153  45.959  57.040  1.00  0.00     0.171 C 
HETATM   38  C   UNL     1      30.051  45.734  58.242  1.00  0.00     0.034 C 
ENDBRANCH  36  37
ENDBRANCH  33  36
ENDBRANCH  27  30
ENDBRANCH   1  26
TORSDOF 7
ENDMDL
MODEL 2
REMARK VINA RESULT:     -10.0      0.995      1.904
REMARK  7 active torsions:
REMARK  status: ('A' for Active; 'I' for Inactive)
REMARK    1  A    between atoms: C_2  and  O_3 
REMARK    2  A    between atoms: O_3  and  C_4 
REMARK    3  A    between atoms: C_7  and  N_8 
REMARK       I    between atoms: N_8  and  C_9 
REMARK    4  A    between atoms: C_9  and  C_10 
REMARK    5  A    between atoms: C_13  and  N_14 
REMARK       I    between atoms: N_14  and  C_15 
REMARK    6  A    between atoms: C_15  and  C_16 
REMARK    7  A    between atoms: C_16  and  N_17 
ROOT
HETATM    1  C   UNL     1      25.991  42.546  50.686  1.00  0.00     0.032 A 
HETATM    2  C   UNL     1      24.641  42.869  50.844  1.00  0.00     0.019 A 
HETATM    3  C   UNL     1      24.148  44.084  50.339  1.00  0.00     0.030 A 
HETATM    4  C   UNL     1      25.003  44.986  49.697  1.00  0.00     0.034 A 
HETATM    5  C   UNL     1      26.348  44.636  49.518  1.00  0.00     0.030 A 
HETATM    6  C   UNL     1      26.843  43.431  50.019  1.00  0.00     0.019 A 
ENDROOT
BRANCH   4   7
HETATM    7  N   UNL     1      24.631  46.275  49.258  1.00  0.00    -0.326 N 
HETATM    8  C   UNL     1      24.589  47.452  49.995  1.00  0.00     0.240 C 
HETATM    9  O   UNL     1      24.748  47.554  51.207  1.00  0.00    -0.271 OA
HETATM   10  H   UNL     1      24.510  46.363  48.256  1.00  0.00     0.169 HD
BRANCH   8  11
HETATM   11  C   UNL     1      24.292  48.672  49.109  1.00  0.00     0.240 C 
BRANCH  11  12
HETATM   12  N   UNL     1      22.879  48.963  49.110  1.00  0.00    -0.259 N 
HETATM   13  C   UNL     1      22.350  50.090  49.655  1.00  0.00     0.326 A 
HETATM   14  O   UNL     1      22.962  51.004  50.183  1.00  0.00    -0.247 OA
HETATM   15  N   UNL     1      20.987  50.060  49.488  1.00  0.00    -0.324 N 
HETATM   16  C   UNL     1      20.553  48.933  48.690  1.00  0.00     0.116 A 
HETATM   17  H   UNL     1      20.411  50.833  49.797  1.00  0.00     0.165 HD
HETATM   18  C   UNL     1      20.014  49.401  47.333  1.00  0.00     0.041 C 
HETATM   19  C   UNL     1      19.563  48.042  49.439  1.00  0.00     0.041 C 
HETATM   20  C   UNL     1      21.908  48.217  48.507  1.00  0.00     0.256 A 
HETATM   21  C   UNL     1      18.628  50.037  47.455  1.00  0.00     0.007 C 
HETATM   22  C   UNL     1      17.618  49.144  48.190  1.00  0.00    -0.019 C 
HETATM   23  C   UNL     1      17.176  47.963  47.322  1.00  0.00     0.010 C 
HETATM   24  C   UNL     1      18.176  48.679  49.542  1.00  0.00     0.007 C 
HETATM   25  O   UNL     1      22.082  47.186  47.870  1.00  0.00    -0.270 OA
ENDBRANCH  11  12
ENDBRANCH   8  11
ENDBRANCH   4   7
BRANCH   1  26
HETATM   26  C   UNL     1      26.618  41.428  51.408  1.00  0.00     0.256 C 
HETATM   27  N   UNL     1      27.544  41.557  52.408  1.00  0.00    -0.323 N 
HETATM   28  H   UNL     1      27.904  40.638  52.639  1.00  0.00     0.169 HD
HETATM   29  O   UNL     1      26.299  40.288  51.059  1.00  0.00    -0.267 OA
BRANCH  27  30
HETATM   30  C   UNL     1      27.984  42.596  53.240  1.00  0.00     0.035 A 
HETATM   31  C   UNL     1      27.186  43.570  53.831  1.00  0.00     0.032 A 
HETATM   32  C   UNL     1      27.754  44.540  54.680  1.00  0.00     0.039 A 
HETATM   33  C   UNL     1      29.121  44.534  54.954  1.00  0.00     0.068 A 
HETATM   34  C   UNL     1      29.916  43.545  54.382  1.00  0.00     0.039 A 
HETATM   35  C   UNL     1      29.356  42.590  53.532  1.00  0.00     0.032 A 
BRANCH  33  36
HETATM   36  O   UNL     1      29.805  45.396  55.761  1.00  0.00    -0.352 OA
BRANCH  36  37
HETATM   37  C   UNL     1      29.163  45.935  56.914  1.00  0.00     0.171 C 
HETATM   38  C   UNL     1      30.023  45.730  58.147  1.00  0.00     0.034 C 
ENDBRANCH  36  37
ENDBRANCH  33  36
ENDBRANCH  27  30
ENDBRANCH   1  26
TORSDOF 7
ENDMDL
MODEL 3
REMARK VINA RESULT:      -9.9      2.069     10.738
REMARK  7 active torsions:
REMARK  status: ('A' for Active; 'I' for Inactive)
REMARK    1  A    between atoms: C_2  and  O_3 
REMARK    2  A    between atoms: O_3  and  C_4 
REMARK    3  A    between atoms: C_7  and  N_8 
REMARK       I    between atoms: N_8  and  C_9 
REMARK    4  A    between atoms: C_9  and  C_10 
REMARK    5  A    between atoms: C_13  and  N_14 
REMARK       I    between atoms: N_14  and  C_15 
REMARK    6  A    between atoms: C_15  and  C_16 
REMARK    7  A    between atoms: C_16  and  N_17 
ROOT
HETATM    1  C   UNL     1      24.423  48.719  48.855  1.00  0.00     0.032 A 
HETATM    2  C   UNL     1      23.518  47.664  48.985  1.00  0.00     0.019 A 
HETATM    3  C   UNL     1      23.900  46.493  49.664  1.00  0.00     0.030 A 
HETATM    4  C   UNL     1      25.189  46.367  50.192  1.00  0.00     0.034 A 
HETATM    5  C   UNL     1      26.077  47.446  50.081  1.00  0.00     0.030 A 
HETATM    6  C   UNL     1      25.703  48.609  49.407  1.00  0.00     0.019 A 
ENDROOT
BRANCH   4   7
HETATM    7  N   UNL     1      25.704  45.196  50.788  1.00  0.00    -0.326 N 
HETATM    8  C   UNL     1      25.160  44.454  51.830  1.00  0.00     0.240 C 
HETATM    9  O   UNL     1      24.188  44.766  52.510  1.00  0.00    -0.271 OA
HETATM   10  H   UNL     1      26.492  44.784  50.303  1.00  0.00     0.169 HD
BRANCH   8  11
HETATM   11  C   UNL     1      25.940  43.154  52.075  1.00  0.00     0.240 C 
BRANCH  11  12
HETATM   12  N   UNL     1      27.177  43.430  52.765  1.00  0.00    -0.259 N 
HETATM   13  C   UNL     1      28.326  43.775  52.126  1.00  0.00     0.326 A 
HETATM   14  O   UNL     1      28.479  43.922  50.925  1.00  0.00    -0.247 OA
HETATM   15  N   UNL     1      29.308  43.970  53.066  1.00  0.00    -0.324 N 
HETATM   16  C   UNL     1      28.804  43.880  54.420  1.00  0.00     0.116 A 
HETATM   17  H   UNL     1      30.235  44.269  52.790  1.00  0.00     0.165 HD
HETATM   18  C   UNL     1      28.839  45.250  55.107  1.00  0.00     0.041 C 
HETATM   19  C   UNL     1      29.515  42.799  55.231  1.00  0.00     0.041 C 
HETATM   20  C   UNL     1      27.346  43.472  54.119  1.00  0.00     0.256 A 
HETATM   21  C   UNL     1      30.259  45.656  55.506  1.00  0.00     0.007 C 
HETATM   22  C   UNL     1      30.980  44.585  56.338  1.00  0.00    -0.019 C 
HETATM   23  C   UNL     1      30.426  44.514  57.764  1.00  0.00     0.010 C 
HETATM   24  C   UNL     1      30.929  43.219  55.639  1.00  0.00     0.007 C 
HETATM   25  O   UNL     1      26.477  43.283  54.960  1.00  0.00    -0.270 OA
ENDBRANCH  11  12
ENDBRANCH   8  11
ENDBRANCH   4   7
BRANCH   1  26
HETATM   26  C   UNL     1      24.180  49.850  47.945  1.00  0.00     0.256 C 
HETATM   27  N   UNL     1      22.987  50.506  47.806  1.00  0.00    -0.323 N 
HETATM   28  H   UNL     1      23.058  51.150  47.026  1.00  0.00     0.169 HD
HETATM   29  O   UNL     1      25.123  50.209  47.234  1.00  0.00    -0.267 OA
BRANCH  27  30
HETATM   30  C   UNL     1      21.797  50.589  48.542  1.00  0.00     0.035 A 
HETATM   31  C   UNL     1      21.678  50.974  49.874  1.00  0.00     0.032 A 
HETATM   32  C   UNL     1      20.412  51.052  50.485  1.00  0.00     0.039 A 
HETATM   33  C   UNL     1      19.254  50.760  49.765  1.00  0.00     0.068 A 
HETATM   34  C   UNL     1      19.370  50.399  48.426  1.00  0.00     0.039 A 
HETATM   35  C   UNL     1      20.625  50.311  47.822  1.00  0.00     0.032 A 
BRANCH  33  36
HETATM   36  O   UNL     1      17.967  50.805  50.218  1.00  0.00    -0.352 OA
BRANCH  36  37
HETATM   37  C   UNL     1      16.974  51.465  49.438  1.00  0.00     0.171 C 
HETATM   38  C   UNL     1      16.828  52.911  49.875  1.00  0.00     0.034 C 
ENDBRANCH  36  37
ENDBRANCH  33  36
ENDBRANCH  27  30
ENDBRANCH   1  26
TORSDOF 7
ENDMDL
MODEL 4
REMARK VINA RESULT:      -9.8      1.465      2.452
REMARK  7 active torsions:
REMARK  status: ('A' for Active; 'I' for Inactive)
REMARK    1  A    between atoms: C_2  and  O_3 
REMARK    2  A    between atoms: O_3  and  C_4 
REMARK    3  A    between atoms: C_7  and  N_8 
REMARK       I    between atoms: N_8  and  C_9 
REMARK    4  A    between atoms: C_9  and  C_10 
REMARK    5  A    between atoms: C_13  and  N_14 
REMARK       I    between atoms: N_14  and  C_15 
REMARK    6  A    between atoms: C_15  and  C_16 
REMARK    7  A    between atoms: C_16  and  N_17 
ROOT
HETATM    1  C   UNL     1      26.162  44.908  50.800  1.00  0.00     0.032 A 
HETATM    2  C   UNL     1      26.952  45.594  49.874  1.00  0.00     0.019 A 
HETATM    3  C   UNL     1      26.563  46.870  49.432  1.00  0.00     0.030 A 
HETATM    4  C   UNL     1      25.378  47.453  49.895  1.00  0.00     0.034 A 
HETATM    5  C   UNL     1      24.612  46.766  50.846  1.00  0.00     0.030 A 
HETATM    6  C   UNL     1      24.992  45.498  51.287  1.00  0.00     0.019 A 
ENDROOT
BRANCH   4   7
HETATM    7  N   UNL     1      24.845  48.673  49.428  1.00  0.00    -0.326 N 
HETATM    8  C   UNL     1      23.746  48.867  48.600  1.00  0.00     0.240 C 
HETATM    9  O   UNL     1      23.115  47.991  48.017  1.00  0.00    -0.271 OA
HETATM   10  H   UNL     1      25.238  49.500  49.861  1.00  0.00     0.169 HD
BRANCH   8  11
HETATM   11  C   UNL     1      23.390  50.355  48.461  1.00  0.00     0.240 C 
BRANCH  11  12
HETATM   12  N   UNL     1      22.028  50.589  48.876  1.00  0.00    -0.259 N 
HETATM   13  C   UNL     1      21.684  50.924  50.148  1.00  0.00     0.326 A 
HETATM   14  O   UNL     1      22.440  51.098  51.089  1.00  0.00    -0.247 OA
HETATM   15  N   UNL     1      20.320  51.075  50.207  1.00  0.00    -0.324 N 
HETATM   16  C   UNL     1      19.694  50.962  48.906  1.00  0.00     0.116 A 
HETATM   17  H   UNL     1      19.868  51.361  51.066  1.00  0.00     0.165 HD
HETATM   18  C   UNL     1      19.130  52.314  48.453  1.00  0.00     0.041 C 
HETATM   19  C   UNL     1      18.652  49.846  48.860  1.00  0.00     0.041 C 
HETATM   20  C   UNL     1      20.933  50.593  48.062  1.00  0.00     0.256 A 
HETATM   21  C   UNL     1      17.846  52.679  49.203  1.00  0.00     0.007 C 
HETATM   22  C   UNL     1      16.783  51.573  49.150  1.00  0.00    -0.019 C 
HETATM   23  C   UNL     1      16.139  51.479  47.764  1.00  0.00     0.010 C 
HETATM   24  C   UNL     1      17.367  50.226  49.599  1.00  0.00     0.007 C 
HETATM   25  O   UNL     1      20.932  50.401  46.853  1.00  0.00    -0.270 OA
ENDBRANCH  11  12
ENDBRANCH   8  11
ENDBRANCH   4   7
BRANCH   1  26
HETATM   26  C   UNL     1      26.371  43.483  51.102  1.00  0.00     0.256 C 
HETATM   27  N   UNL     1      27.262  42.995  52.018  1.00  0.00    -0.323 N 
HETATM   28  H   UNL     1      27.298  41.985  51.933  1.00  0.00     0.169 HD
HETATM   29  O   UNL     1      25.708  42.670  50.452  1.00  0.00    -0.267 OA
BRANCH  27  30
HETATM   30  C   UNL     1      27.996  43.529  53.087  1.00  0.00     0.035 A 
HETATM   31  C   UNL     1      27.560  44.506  53.977  1.00  0.00     0.032 A 
HETATM   32  C   UNL     1      28.388  44.929  55.035  1.00  0.00     0.039 A 
HETATM   33  C   UNL     1      29.651  44.368  55.220  1.00  0.00     0.068 A 
HETATM   34  C   UNL     1      30.077  43.373  54.344  1.00  0.00     0.039 A 
HETATM   35  C   UNL     1      29.262  42.961  53.289  1.00  0.00     0.032 A 
BRANCH  33  36
HETATM   36  O   UNL     1      30.551  44.666  56.201  1.00  0.00    -0.352 OA
BRANCH  36  37
HETATM   37  C   UNL     1      30.287  45.749  57.088  1.00  0.00     0.171 C 
HETATM   38  C   UNL     1      30.685  45.384  58.507  1.00  0.00     0.034 C 
ENDBRANCH  36  37
ENDBRANCH  33  36
ENDBRANCH  27  30
ENDBRANCH   1  26
TORSDOF 7
ENDMDL
MODEL 5
REMARK VINA RESULT:      -9.3      2.091     10.744
REMARK  7 active torsions:
REMARK  status: ('A' for Active; 'I' for Inactive)
REMARK    1  A    between atoms: C_2  and  O_3 
REMARK    2  A    between atoms: O_3  and  C_4 
REMARK    3  A    between atoms: C_7  and  N_8 
REMARK       I    between atoms: N_8  and  C_9 
REMARK    4  A    between atoms: C_9  and  C_10 
REMARK    5  A    between atoms: C_13  and  N_14 
REMARK       I    between atoms: N_14  and  C_15 
REMARK    6  A    between atoms: C_15  and  C_16 
REMARK    7  A    between atoms: C_16  and  N_17 
ROOT
HETATM    1  C   UNL     1      23.232  48.414  48.594  1.00  0.00     0.032 A 
HETATM    2  C   UNL     1      22.331  47.478  48.080  1.00  0.00     0.019 A 
HETATM    3  C   UNL     1      22.386  46.142  48.513  1.00  0.00     0.030 A 
HETATM    4  C   UNL     1      23.351  45.735  49.440  1.00  0.00     0.034 A 
HETATM    5  C   UNL     1      24.228  46.691  49.970  1.00  0.00     0.030 A 
HETATM    6  C   UNL     1      24.179  48.018  49.542  1.00  0.00     0.019 A 
ENDROOT
BRANCH   4   7
HETATM    7  N   UNL     1      23.561  44.402  49.850  1.00  0.00    -0.326 N 
HETATM    8  C   UNL     1      24.476  43.484  49.348  1.00  0.00     0.240 C 
HETATM    9  O   UNL     1      25.185  43.636  48.358  1.00  0.00    -0.271 OA
HETATM   10  H   UNL     1      23.074  44.136  50.698  1.00  0.00     0.169 HD
BRANCH   8  11
HETATM   11  C   UNL     1      24.506  42.191  50.177  1.00  0.00     0.240 C 
BRANCH  11  12
HETATM   12  N   UNL     1      25.732  42.105  50.933  1.00  0.00    -0.259 N 
HETATM   13  C   UNL     1      26.707  41.195  50.669  1.00  0.00     0.326 A 
HETATM   14  O   UNL     1      26.710  40.363  49.778  1.00  0.00    -0.247 OA
HETATM   15  N   UNL     1      27.732  41.381  51.564  1.00  0.00    -0.324 N 
HETATM   16  C   UNL     1      27.527  42.540  52.407  1.00  0.00     0.116 A 
HETATM   17  H   UNL     1      28.574  40.821  51.510  1.00  0.00     0.165 HD
HETATM   18  C   UNL     1      28.540  43.642  52.075  1.00  0.00     0.041 C 
HETATM   19  C   UNL     1      27.517  42.181  53.892  1.00  0.00     0.041 C 
HETATM   20  C   UNL     1      26.118  42.951  51.931  1.00  0.00     0.256 A 
HETATM   21  C   UNL     1      29.937  43.317  52.609  1.00  0.00     0.007 C 
HETATM   22  C   UNL     1      29.943  42.971  54.105  1.00  0.00    -0.019 C 
HETATM   23  C   UNL     1      29.726  44.215  54.971  1.00  0.00     0.010 C 
HETATM   24  C   UNL     1      28.919  41.872  54.421  1.00  0.00     0.007 C 
HETATM   25  O   UNL     1      25.487  43.917  52.342  1.00  0.00    -0.270 OA
ENDBRANCH  11  12
ENDBRANCH   8  11
ENDBRANCH   4   7
BRANCH   1  26
HETATM   26  C   UNL     1      23.395  49.750  47.999  1.00  0.00     0.256 C 
HETATM   27  N   UNL     1      22.442  50.731  47.993  1.00  0.00    -0.323 N 
HETATM   28  H   UNL     1      22.763  51.495  47.409  1.00  0.00     0.169 HD
HETATM   29  O   UNL     1      24.469  49.985  47.438  1.00  0.00    -0.267 OA
BRANCH  27  30
HETATM   30  C   UNL     1      21.246  50.973  48.684  1.00  0.00     0.035 A 
HETATM   31  C   UNL     1      21.054  50.864  50.057  1.00  0.00     0.032 A 
HETATM   32  C   UNL     1      19.804  51.173  50.631  1.00  0.00     0.039 A 
HETATM   33  C   UNL     1      18.744  51.606  49.836  1.00  0.00     0.068 A 
HETATM   34  C   UNL     1      18.943  51.738  48.465  1.00  0.00     0.039 A 
HETATM   35  C   UNL     1      20.177  51.422  47.895  1.00  0.00     0.032 A 
BRANCH  33  36
HETATM   36  O   UNL     1      17.490  51.951  50.250  1.00  0.00    -0.352 OA
BRANCH  36  37
HETATM   37  C   UNL     1      16.466  52.158  49.281  1.00  0.00     0.171 C 
HETATM   38  C   UNL     1      15.242  52.783  49.925  1.00  0.00     0.034 C 
ENDBRANCH  36  37
ENDBRANCH  33  36
ENDBRANCH  27  30
ENDBRANCH   1  26
TORSDOF 7
ENDMDL
MODEL 6
REMARK VINA RESULT:      -9.0      2.926     11.881
REMARK  7 active torsions:
REMARK  status: ('A' for Active; 'I' for Inactive)
REMARK    1  A    between atoms: C_2  and  O_3 
REMARK    2  A    between atoms: O_3  and  C_4 
REMARK    3  A    between atoms: C_7  and  N_8 
REMARK       I    between atoms: N_8  and  C_9 
REMARK    4  A    between atoms: C_9  and  C_10 
REMARK    5  A    between atoms: C_13  and  N_14 
REMARK       I    between atoms: N_14  and  C_15 
REMARK    6  A    between atoms: C_15  and  C_16 
REMARK    7  A    between atoms: C_16  and  N_17 
ROOT
HETATM    1  C   UNL     1      20.007  49.308  49.070  1.00  0.00     0.032 A 
HETATM    2  C   UNL     1      21.337  49.722  49.178  1.00  0.00     0.019 A 
HETATM    3  C   UNL     1      22.376  48.794  48.992  1.00  0.00     0.030 A 
HETATM    4  C   UNL     1      22.091  47.451  48.722  1.00  0.00     0.034 A 
HETATM    5  C   UNL     1      20.754  47.056  48.586  1.00  0.00     0.030 A 
HETATM    6  C   UNL     1      19.717  47.974  48.771  1.00  0.00     0.019 A 
ENDROOT
BRANCH   4   7
HETATM    7  N   UNL     1      23.056  46.426  48.633  1.00  0.00    -0.326 N 
HETATM    8  C   UNL     1      24.043  46.095  49.553  1.00  0.00     0.240 C 
HETATM    9  O   UNL     1      24.334  46.729  50.562  1.00  0.00    -0.271 OA
HETATM   10  H   UNL     1      22.918  45.779  47.865  1.00  0.00     0.169 HD
BRANCH   8  11
HETATM   11  C   UNL     1      24.784  44.808  49.160  1.00  0.00     0.240 C 
BRANCH  11  12
HETATM   12  N   UNL     1      25.434  44.229  50.312  1.00  0.00    -0.259 N 
HETATM   13  C   UNL     1      24.790  43.441  51.212  1.00  0.00     0.326 A 
HETATM   14  O   UNL     1      23.621  43.093  51.177  1.00  0.00    -0.247 OA
HETATM   15  N   UNL     1      25.688  43.056  52.178  1.00  0.00    -0.324 N 
HETATM   16  C   UNL     1      27.038  43.487  51.881  1.00  0.00     0.116 A 
HETATM   17  H   UNL     1      25.409  42.431  52.924  1.00  0.00     0.165 HD
HETATM   18  C   UNL     1      27.933  42.287  51.551  1.00  0.00     0.041 C 
HETATM   19  C   UNL     1      27.619  44.367  52.986  1.00  0.00     0.041 C 
HETATM   20  C   UNL     1      26.764  44.313  50.607  1.00  0.00     0.256 A 
HETATM   21  C   UNL     1      28.305  41.488  52.802  1.00  0.00     0.007 C 
HETATM   22  C   UNL     1      28.909  42.358  53.914  1.00  0.00    -0.019 C 
HETATM   23  C   UNL     1      30.335  42.797  53.573  1.00  0.00     0.010 C 
HETATM   24  C   UNL     1      28.004  43.558  54.227  1.00  0.00     0.007 C 
HETATM   25  O   UNL     1      27.614  44.890  49.943  1.00  0.00    -0.270 OA
ENDBRANCH  11  12
ENDBRANCH   8  11
ENDBRANCH   4   7
BRANCH   1  26
HETATM   26  C   UNL     1      18.886  50.157  49.504  1.00  0.00     0.256 C 
HETATM   27  N   UNL     1      18.196  51.021  48.697  1.00  0.00    -0.323 N 
HETATM   28  H   UNL     1      17.569  51.573  49.272  1.00  0.00     0.169 HD
HETATM   29  O   UNL     1      18.570  50.101  50.695  1.00  0.00    -0.267 OA
BRANCH  27  30
HETATM   30  C   UNL     1      18.062  51.213  47.315  1.00  0.00     0.035 A 
HETATM   31  C   UNL     1      18.792  50.571  46.321  1.00  0.00     0.032 A 
HETATM   32  C   UNL     1      18.530  50.830  44.961  1.00  0.00     0.039 A 
HETATM   33  C   UNL     1      17.527  51.723  44.587  1.00  0.00     0.068 A 
HETATM   34  C   UNL     1      16.780  52.348  45.581  1.00  0.00     0.039 A 
HETATM   35  C   UNL     1      17.046  52.100  46.929  1.00  0.00     0.032 A 
BRANCH  33  36
HETATM   36  O   UNL     1      17.154  52.062  43.319  1.00  0.00    -0.352 OA
BRANCH  36  37
HETATM   37  C   UNL     1      17.733  51.376  42.212  1.00  0.00     0.171 C 
HETATM   38  C   UNL     1      18.468  52.349  41.308  1.00  0.00     0.034 C 
ENDBRANCH  36  37
ENDBRANCH  33  36
ENDBRANCH  27  30
ENDBRANCH   1  26
TORSDOF 7
ENDMDL
MODEL 7
REMARK VINA RESULT:      -8.8      3.285     11.817
REMARK  7 active torsions:
REMARK  status: ('A' for Active; 'I' for Inactive)
REMARK    1  A    between atoms: C_2  and  O_3 
REMARK    2  A    between atoms: O_3  and  C_4 
REMARK    3  A    between atoms: C_7  and  N_8 
REMARK       I    between atoms: N_8  and  C_9 
REMARK    4  A    between atoms: C_9  and  C_10 
REMARK    5  A    between atoms: C_13  and  N_14 
REMARK       I    between atoms: N_14  and  C_15 
REMARK    6  A    between atoms: C_15  and  C_16 
REMARK    7  A    between atoms: C_16  and  N_17 
ROOT
HETATM    1  C   UNL     1      17.875  51.742  49.479  1.00  0.00     0.032 A 
HETATM    2  C   UNL     1      18.223  50.488  49.988  1.00  0.00     0.019 A 
HETATM    3  C   UNL     1      19.488  49.945  49.705  1.00  0.00     0.030 A 
HETATM    4  C   UNL     1      20.397  50.640  48.900  1.00  0.00     0.034 A 
HETATM    5  C   UNL     1      20.046  51.909  48.422  1.00  0.00     0.030 A 
HETATM    6  C   UNL     1      18.790  52.453  48.698  1.00  0.00     0.019 A 
ENDROOT
BRANCH   4   7
HETATM    7  N   UNL     1      21.640  50.133  48.467  1.00  0.00    -0.326 N 
HETATM    8  C   UNL     1      22.890  50.318  49.046  1.00  0.00     0.240 C 
HETATM    9  O   UNL     1      23.151  51.074  49.977  1.00  0.00    -0.271 OA
HETATM   10  H   UNL     1      21.584  49.448  47.723  1.00  0.00     0.169 HD
BRANCH   8  11
HETATM   11  C   UNL     1      23.969  49.463  48.365  1.00  0.00     0.240 C 
BRANCH  11  12
HETATM   12  N   UNL     1      24.157  48.225  49.082  1.00  0.00    -0.259 N 
HETATM   13  C   UNL     1      23.255  47.209  49.065  1.00  0.00     0.326 A 
HETATM   14  O   UNL     1      22.203  47.175  48.447  1.00  0.00    -0.247 OA
HETATM   15  N   UNL     1      23.734  46.183  49.842  1.00  0.00    -0.324 N 
HETATM   16  C   UNL     1      25.076  46.436  50.325  1.00  0.00     0.116 A 
HETATM   17  H   UNL     1      23.220  45.316  49.928  1.00  0.00     0.165 HD
HETATM   18  C   UNL     1      26.081  45.484  49.667  1.00  0.00     0.041 C 
HETATM   19  C   UNL     1      25.156  46.411  51.850  1.00  0.00     0.041 C 
HETATM   20  C   UNL     1      25.270  47.870  49.788  1.00  0.00     0.256 A 
HETATM   21  C   UNL     1      25.985  44.066  50.235  1.00  0.00     0.007 C 
HETATM   22  C   UNL     1      26.082  44.025  51.767  1.00  0.00    -0.019 C 
HETATM   23  C   UNL     1      27.511  44.294  52.247  1.00  0.00     0.010 C 
HETATM   24  C   UNL     1      25.075  44.989  52.409  1.00  0.00     0.007 C 
HETATM   25  O   UNL     1      26.284  48.544  49.922  1.00  0.00    -0.270 OA
ENDBRANCH  11  12
ENDBRANCH   8  11
ENDBRANCH   4   7
BRANCH   1  26
HETATM   26  C   UNL     1      16.493  52.245  49.519  1.00  0.00     0.256 C 
HETATM   27  N   UNL     1      15.615  52.218  48.469  1.00  0.00    -0.323 N 
HETATM   28  H   UNL     1      14.785  52.742  48.724  1.00  0.00     0.169 HD
HETATM   29  O   UNL     1      16.113  52.755  50.576  1.00  0.00    -0.267 OA
BRANCH  27  30
HETATM   30  C   UNL     1      15.544  51.551  47.238  1.00  0.00     0.035 A 
HETATM   31  C   UNL     1      15.688  52.129  45.980  1.00  0.00     0.032 A 
HETATM   32  C   UNL     1      15.631  51.334  44.818  1.00  0.00     0.039 A 
HETATM   33  C   UNL     1      15.442  49.956  44.906  1.00  0.00     0.068 A 
HETATM   34  C   UNL     1      15.322  49.375  46.165  1.00  0.00     0.039 A 
HETATM   35  C   UNL     1      15.368  50.162  47.317  1.00  0.00     0.032 A 
BRANCH  33  36
HETATM   36  O   UNL     1      15.379  49.064  43.876  1.00  0.00    -0.352 OA
BRANCH  36  37
HETATM   37  C   UNL     1      16.578  48.459  43.399  1.00  0.00     0.171 C 
HETATM   38  C   UNL     1      16.599  46.979  43.735  1.00  0.00     0.034 C 
ENDBRANCH  36  37
ENDBRANCH  33  36
ENDBRANCH  27  30
ENDBRANCH   1  26
TORSDOF 7
ENDMDL
MODEL 8
REMARK VINA RESULT:      -8.7      4.598      9.373
REMARK  7 active torsions:
REMARK  status: ('A' for Active; 'I' for Inactive)
REMARK    1  A    between atoms: C_2  and  O_3 
REMARK    2  A    between atoms: O_3  and  C_4 
REMARK    3  A    between atoms: C_7  and  N_8 
REMARK       I    between atoms: N_8  and  C_9 
REMARK    4  A    between atoms: C_9  and  C_10 
REMARK    5  A    between atoms: C_13  and  N_14 
REMARK       I    between atoms: N_14  and  C_15 
REMARK    6  A    between atoms: C_15  and  C_16 
REMARK    7  A    between atoms: C_16  and  N_17 
ROOT
HETATM    1  C   UNL     1      25.605  45.384  51.167  1.00  0.00     0.032 A 
HETATM    2  C   UNL     1      26.608  45.105  50.236  1.00  0.00     0.019 A 
HETATM    3  C   UNL     1      26.752  43.801  49.732  1.00  0.00     0.030 A 
HETATM    4  C   UNL     1      25.911  42.772  50.170  1.00  0.00     0.034 A 
HETATM    5  C   UNL     1      24.889  43.074  51.081  1.00  0.00     0.030 A 
HETATM    6  C   UNL     1      24.744  44.367  51.586  1.00  0.00     0.019 A 
ENDROOT
BRANCH   4   7
HETATM    7  N   UNL     1      26.046  41.414  49.813  1.00  0.00    -0.326 N 
HETATM    8  C   UNL     1      27.024  40.514  50.217  1.00  0.00     0.240 C 
HETATM    9  O   UNL     1      28.031  40.783  50.865  1.00  0.00    -0.271 OA
HETATM   10  H   UNL     1      25.257  41.028  49.307  1.00  0.00     0.169 HD
BRANCH   8  11
HETATM   11  C   UNL     1      26.723  39.086  49.737  1.00  0.00     0.240 C 
BRANCH  11  12
HETATM   12  N   UNL     1      27.255  38.878  48.412  1.00  0.00    -0.259 N 
HETATM   13  C   UNL     1      28.446  38.268  48.175  1.00  0.00     0.326 A 
HETATM   14  O   UNL     1      29.207  37.799  49.005  1.00  0.00    -0.247 OA
HETATM   15  N   UNL     1      28.655  38.227  46.818  1.00  0.00    -0.324 N 
HETATM   16  C   UNL     1      27.516  38.715  46.069  1.00  0.00     0.116 A 
HETATM   17  H   UNL     1      29.476  37.777  46.434  1.00  0.00     0.165 HD
HETATM   18  C   UNL     1      26.839  37.574  45.300  1.00  0.00     0.041 C 
HETATM   19  C   UNL     1      27.878  39.894  45.168  1.00  0.00     0.041 C 
HETATM   20  C   UNL     1      26.621  39.173  47.240  1.00  0.00     0.256 A 
HETATM   21  C   UNL     1      27.650  37.148  44.075  1.00  0.00     0.007 C 
HETATM   22  C   UNL     1      28.006  38.321  43.151  1.00  0.00    -0.019 C 
HETATM   23  C   UNL     1      26.783  38.814  42.371  1.00  0.00     0.010 C 
HETATM   24  C   UNL     1      28.675  39.457  43.937  1.00  0.00     0.007 C 
HETATM   25  O   UNL     1      25.503  39.658  47.127  1.00  0.00    -0.270 OA
ENDBRANCH  11  12
ENDBRANCH   8  11
ENDBRANCH   4   7
BRANCH   1  26
HETATM   26  C   UNL     1      25.567  46.648  51.920  1.00  0.00     0.256 C 
HETATM   27  N   UNL     1      26.168  46.861  53.130  1.00  0.00    -0.323 N 
HETATM   28  H   UNL     1      25.878  47.766  53.484  1.00  0.00     0.169 HD
HETATM   29  O   UNL     1      24.915  47.573  51.428  1.00  0.00    -0.267 OA
BRANCH  27  30
HETATM   30  C   UNL     1      27.152  46.213  53.890  1.00  0.00     0.035 A 
HETATM   31  C   UNL     1      27.579  44.898  53.733  1.00  0.00     0.032 A 
HETATM   32  C   UNL     1      28.608  44.379  54.543  1.00  0.00     0.039 A 
HETATM   33  C   UNL     1      29.226  45.175  55.506  1.00  0.00     0.068 A 
HETATM   34  C   UNL     1      28.816  46.497  55.647  1.00  0.00     0.039 A 
HETATM   35  C   UNL     1      27.789  47.010  54.852  1.00  0.00     0.032 A 
BRANCH  33  36
HETATM   36  O   UNL     1      30.237  44.816  56.349  1.00  0.00    -0.352 OA
BRANCH  36  37
HETATM   37  C   UNL     1      30.901  43.570  56.155  1.00  0.00     0.171 C 
HETATM   38  C   UNL     1      32.012  43.394  57.173  1.00  0.00     0.034 C 
ENDBRANCH  36  37
ENDBRANCH  33  36
ENDBRANCH  27  30
ENDBRANCH   1  26
TORSDOF 7
ENDMDL
MODEL 9
REMARK VINA RESULT:      -8.7      3.076      6.144
REMARK  7 active torsions:
REMARK  status: ('A' for Active; 'I' for Inactive)
REMARK    1  A    between atoms: C_2  and  O_3 
REMARK    2  A    between atoms: O_3  and  C_4 
REMARK    3  A    between atoms: C_7  and  N_8 
REMARK       I    between atoms: N_8  and  C_9 
REMARK    4  A    between atoms: C_9  and  C_10 
REMARK    5  A    between atoms: C_13  and  N_14 
REMARK       I    between atoms: N_14  and  C_15 
REMARK    6  A    between atoms: C_15  and  C_16 
REMARK    7  A    between atoms: C_16  and  N_17 
ROOT
HETATM    1  C   UNL     1      24.461  49.356  48.464  1.00  0.00     0.032 A 
HETATM    2  C   UNL     1      23.726  48.244  48.881  1.00  0.00     0.019 A 
HETATM    3  C   UNL     1      22.340  48.358  49.087  1.00  0.00     0.030 A 
HETATM    4  C   UNL     1      21.692  49.583  48.899  1.00  0.00     0.034 A 
HETATM    5  C   UNL     1      22.436  50.682  48.450  1.00  0.00     0.030 A 
HETATM    6  C   UNL     1      23.813  50.575  48.246  1.00  0.00     0.019 A 
ENDROOT
BRANCH   4   7
HETATM    7  N   UNL     1      20.332  49.828  49.187  1.00  0.00    -0.326 N 
HETATM    8  C   UNL     1      19.282  48.918  49.201  1.00  0.00     0.240 C 
HETATM    9  O   UNL     1      19.333  47.748  48.834  1.00  0.00    -0.271 OA
HETATM   10  H   UNL     1      20.135  50.751  49.554  1.00  0.00     0.169 HD
BRANCH   8  11
HETATM   11  C   UNL     1      17.984  49.549  49.727  1.00  0.00     0.240 C 
BRANCH  11  12
HETATM   12  N   UNL     1      17.532  50.588  48.834  1.00  0.00    -0.259 N 
HETATM   13  C   UNL     1      17.834  51.902  49.006  1.00  0.00     0.326 A 
HETATM   14  O   UNL     1      18.525  52.385  49.888  1.00  0.00    -0.247 OA
HETATM   15  N   UNL     1      17.255  52.621  47.989  1.00  0.00    -0.324 N 
HETATM   16  C   UNL     1      16.627  51.772  46.999  1.00  0.00     0.116 A 
HETATM   17  H   UNL     1      17.394  53.621  47.918  1.00  0.00     0.165 HD
HETATM   18  C   UNL     1      17.390  51.825  45.671  1.00  0.00     0.041 C 
HETATM   19  C   UNL     1      15.140  52.079  46.834  1.00  0.00     0.041 C 
HETATM   20  C   UNL     1      16.832  50.401  47.677  1.00  0.00     0.256 A 
HETATM   21  C   UNL     1      17.143  53.135  44.919  1.00  0.00     0.007 C 
HETATM   22  C   UNL     1      15.651  53.447  44.730  1.00  0.00    -0.019 C 
HETATM   23  C   UNL     1      15.015  52.535  43.677  1.00  0.00     0.010 C 
HETATM   24  C   UNL     1      14.901  53.383  46.067  1.00  0.00     0.007 C 
HETATM   25  O   UNL     1      16.480  49.324  47.214  1.00  0.00    -0.270 OA
ENDBRANCH  11  12
ENDBRANCH   8  11
ENDBRANCH   4   7
BRANCH   1  26
HETATM   26  C   UNL     1      25.932  49.372  48.482  1.00  0.00     0.256 C 
HETATM   27  N   UNL     1      26.717  48.625  49.318  1.00  0.00    -0.323 N 
HETATM   28  H   UNL     1      27.681  48.922  49.213  1.00  0.00     0.169 HD
HETATM   29  O   UNL     1      26.493  50.143  47.699  1.00  0.00    -0.267 OA
BRANCH  27  30
HETATM   30  C   UNL     1      26.525  47.507  50.142  1.00  0.00     0.035 A 
HETATM   31  C   UNL     1      25.969  47.510  51.417  1.00  0.00     0.032 A 
HETATM   32  C   UNL     1      25.799  46.304  52.125  1.00  0.00     0.039 A 
HETATM   33  C   UNL     1      26.170  45.086  51.558  1.00  0.00     0.068 A 
HETATM   34  C   UNL     1      26.705  45.081  50.273  1.00  0.00     0.039 A 
HETATM   35  C   UNL     1      26.884  46.275  49.574  1.00  0.00     0.032 A 
BRANCH  33  36
HETATM   36  O   UNL     1      26.054  43.846  52.115  1.00  0.00    -0.352 OA
BRANCH  36  37
HETATM   37  C   UNL     1      27.214  43.197  52.628  1.00  0.00     0.171 C 
HETATM   38  C   UNL     1      27.351  43.452  54.118  1.00  0.00     0.034 C 
ENDBRANCH  36  37
ENDBRANCH  33  36
ENDBRANCH  27  30
ENDBRANCH   1  26
TORSDOF 7
ENDMDL
MODEL 10
REMARK VINA RESULT:      -8.6      3.356     11.842
REMARK  7 active torsions:
REMARK  status: ('A' for Active; 'I' for Inactive)
REMARK    1  A    between atoms: C_2  and  O_3 
REMARK    2  A    between atoms: O_3  and  C_4 
REMARK    3  A    between atoms: C_7  and  N_8 
REMARK       I    between atoms: N_8  and  C_9 
REMARK    4  A    between atoms: C_9  and  C_10 
REMARK    5  A    between atoms: C_13  and  N_14 
REMARK       I    between atoms: N_14  and  C_15 
REMARK    6  A    between atoms: C_15  and  C_16 
REMARK    7  A    between atoms: C_16  and  N_17 
ROOT
HETATM    1  C   UNL     1      19.605  48.857  49.136  1.00  0.00     0.032 A 
HETATM    2  C   UNL     1      20.909  49.342  49.003  1.00  0.00     0.019 A 
HETATM    3  C   UNL     1      21.966  48.449  48.756  1.00  0.00     0.030 A 
HETATM    4  C   UNL     1      21.728  47.073  48.663  1.00  0.00     0.034 A 
HETATM    5  C   UNL     1      20.412  46.604  48.768  1.00  0.00     0.030 A 
HETATM    6  C   UNL     1      19.358  47.487  49.015  1.00  0.00     0.019 A 
ENDROOT
BRANCH   4   7
HETATM    7  N   UNL     1      22.731  46.090  48.532  1.00  0.00    -0.326 N 
HETATM    8  C   UNL     1      23.849  45.893  49.333  1.00  0.00     0.240 C 
HETATM    9  O   UNL     1      24.233  46.632  50.235  1.00  0.00    -0.271 OA
HETATM   10  H   UNL     1      22.532  45.369  47.849  1.00  0.00     0.169 HD
BRANCH   8  11
HETATM   11  C   UNL     1      24.607  44.611  48.955  1.00  0.00     0.240 C 
BRANCH  11  12
HETATM   12  N   UNL     1      25.279  44.065  50.109  1.00  0.00    -0.259 N 
HETATM   13  C   UNL     1      24.661  43.277  51.028  1.00  0.00     0.326 A 
HETATM   14  O   UNL     1      23.500  42.905  51.010  1.00  0.00    -0.247 OA
HETATM   15  N   UNL     1      25.576  42.927  51.990  1.00  0.00    -0.324 N 
HETATM   16  C   UNL     1      26.914  43.381  51.674  1.00  0.00     0.116 A 
HETATM   17  H   UNL     1      25.318  42.308  52.749  1.00  0.00     0.165 HD
HETATM   18  C   UNL     1      27.831  42.195  51.354  1.00  0.00     0.041 C 
HETATM   19  C   UNL     1      27.488  44.291  52.758  1.00  0.00     0.041 C 
HETATM   20  C   UNL     1      26.610  44.182  50.389  1.00  0.00     0.256 A 
HETATM   21  C   UNL     1      28.233  41.425  52.613  1.00  0.00     0.007 C 
HETATM   22  C   UNL     1      28.828  42.325  53.706  1.00  0.00    -0.019 C 
HETATM   23  C   UNL     1      30.242  42.788  53.343  1.00  0.00     0.010 C 
HETATM   24  C   UNL     1      27.901  43.510  54.008  1.00  0.00     0.007 C 
HETATM   25  O   UNL     1      27.442  44.766  49.708  1.00  0.00    -0.270 OA
ENDBRANCH  11  12
ENDBRANCH   8  11
ENDBRANCH   4   7
BRANCH   1  26
HETATM   26  C   UNL     1      18.508  49.694  49.646  1.00  0.00     0.256 C 
HETATM   27  N   UNL     1      17.424  50.101  48.917  1.00  0.00    -0.323 N 
HETATM   28  H   UNL     1      16.894  50.769  49.466  1.00  0.00     0.169 HD
HETATM   29  O   UNL     1      18.595  50.078  50.815  1.00  0.00    -0.267 OA
BRANCH  27  30
HETATM   30  C   UNL     1      16.830  49.722  47.705  1.00  0.00     0.035 A 
HETATM   31  C   UNL     1      17.330  49.972  46.431  1.00  0.00     0.032 A 
HETATM   32  C   UNL     1      16.650  49.501  45.291  1.00  0.00     0.039 A 
HETATM   33  C   UNL     1      15.472  48.765  45.418  1.00  0.00     0.068 A 
HETATM   34  C   UNL     1      14.985  48.494  46.693  1.00  0.00     0.039 A 
HETATM   35  C   UNL     1      15.653  48.969  47.823  1.00  0.00     0.032 A 
BRANCH  33  36
HETATM   36  O   UNL     1      14.717  48.237  44.412  1.00  0.00    -0.352 OA
BRANCH  36  37
HETATM   37  C   UNL     1      15.361  47.597  43.314  1.00  0.00     0.171 C 
HETATM   38  C   UNL     1      14.921  46.149  43.208  1.00  0.00     0.034 C 
ENDBRANCH  36  37
ENDBRANCH  33  36
ENDBRANCH  27  30
ENDBRANCH   1  26
TORSDOF 7
ENDMDL
