MODEL 1
REMARK VINA RESULT:      -8.6      0.000      0.000
REMARK  6 active torsions:
REMARK  status: ('A' for Active; 'I' for Inactive)
REMARK    1  A    between atoms: C_2  and  C_3 
REMARK    2  A    between atoms: C_2  and  C_18 
REMARK       I    between atoms: C_3  and  N_4 
REMARK    3  A    between atoms: N_4  and  C_5 
REMARK    4  A    between atoms: C_9  and  C_10 
REMARK    5  A    between atoms: C_18  and  C_19 
REMARK    6  A    between atoms: C_22  and  O_23 
ROOT
HETATM    1  C   UNL     1      27.100  44.697  50.760  1.00  0.00     0.227 C 
HETATM    2  N   UNL     1      26.461  45.743  51.410  1.00  0.00    -0.312 N 
HETATM    3  O   UNL     1      27.261  44.637  49.542  1.00  0.00    -0.273 OA
HETATM    4  H   UNL     1      26.371  45.731  52.420  1.00  0.00     0.170 HD
ENDROOT
BRANCH   2   5
HETATM    5  C   UNL     1      25.856  46.771  50.718  1.00  0.00     0.126 A 
HETATM    6  N   UNL     1      26.524  47.768  50.064  1.00  0.00    -0.262 N 
HETATM    7  H   UNL     1      27.533  47.891  50.015  1.00  0.00     0.191 HD
HETATM    8  N   UNL     1      25.715  48.627  49.422  1.00  0.00    -0.172 NA
HETATM    9  C   UNL     1      24.472  48.180  49.676  1.00  0.00     0.092 A 
HETATM   10  C   UNL     1      24.523  47.022  50.506  1.00  0.00     0.084 A 
BRANCH   9  11
HETATM   11  C   UNL     1      23.293  48.843  49.118  1.00  0.00     0.012 A 
HETATM   12  C   UNL     1      22.136  48.140  48.793  1.00  0.00     0.130 A 
HETATM   13  N   UNL     1      21.020  48.695  48.251  1.00  0.00    -0.272 NA
HETATM   14  C   UNL     1      21.057  50.025  48.024  1.00  0.00     0.116 A 
HETATM   15  C   UNL     1      22.152  50.821  48.313  1.00  0.00     0.020 A 
HETATM   16  C   UNL     1      23.281  50.220  48.867  1.00  0.00     0.017 A 
ENDBRANCH   9  11
ENDBRANCH   2   5
BRANCH   1  17
HETATM   17  C   UNL     1      27.596  43.621  51.720  1.00  0.00     0.078 C 
HETATM   18  C   UNL     1      27.158  42.245  51.214  1.00  0.00     0.020 C 
BRANCH  17  19
HETATM   19  C   UNL     1      27.090  43.899  53.147  1.00  0.00     0.052 C 
BRANCH  19  20
HETATM   20  C   UNL     1      28.223  44.115  54.124  1.00  0.00    -0.057 A 
HETATM   21  C   UNL     1      29.224  43.145  54.262  1.00  0.00     0.010 A 
HETATM   22  C   UNL     1      30.257  43.324  55.184  1.00  0.00     0.037 A 
HETATM   23  C   UNL     1      30.311  44.469  55.981  1.00  0.00     0.068 A 
HETATM   24  C   UNL     1      29.320  45.441  55.842  1.00  0.00     0.037 A 
HETATM   25  C   UNL     1      28.283  45.265  54.918  1.00  0.00     0.010 A 
BRANCH  23  26
HETATM   26  O   UNL     1      31.370  44.512  56.845  1.00  0.00    -0.356 OA
HETATM   27  C   UNL     1      31.999  43.274  57.152  1.00  0.00     0.210 C 
ENDBRANCH  23  26
ENDBRANCH  19  20
ENDBRANCH  17  19
ENDBRANCH   1  17
TORSDOF 6
ENDMDL
MODEL 2
REMARK VINA RESULT:      -8.2      2.254      3.498
REMARK  6 active torsions:
REMARK  status: ('A' for Active; 'I' for Inactive)
REMARK    1  A    between atoms: C_2  and  C_3 
REMARK    2  A    between atoms: C_2  and  C_18 
REMARK       I    between atoms: C_3  and  N_4 
REMARK    3  A    between atoms: N_4  and  C_5 
REMARK    4  A    between atoms: C_9  and  C_10 
REMARK    5  A    between atoms: C_18  and  C_19 
REMARK    6  A    between atoms: C_22  and  O_23 
ROOT
HETATM    1  C   UNL     1      25.554  47.914  49.953  1.00  0.00     0.227 C 
HETATM    2  N   UNL     1      24.176  47.798  49.841  1.00  0.00    -0.312 N 
HETATM    3  O   UNL     1      26.206  48.858  49.508  1.00  0.00    -0.273 OA
HETATM    4  H   UNL     1      23.702  46.996  50.240  1.00  0.00     0.170 HD
ENDROOT
BRANCH   2   5
HETATM    5  C   UNL     1      23.424  48.702  49.120  1.00  0.00     0.126 A 
HETATM    6  N   UNL     1      23.867  49.377  48.016  1.00  0.00    -0.262 N 
HETATM    7  H   UNL     1      24.794  49.316  47.600  1.00  0.00     0.191 HD
HETATM    8  N   UNL     1      22.934  50.166  47.458  1.00  0.00    -0.172 NA
HETATM    9  C   UNL     1      21.846  50.008  48.232  1.00  0.00     0.092 A 
HETATM   10  C   UNL     1      22.124  49.105  49.300  1.00  0.00     0.084 A 
BRANCH   9  11
HETATM   11  C   UNL     1      20.588  50.691  47.929  1.00  0.00     0.012 A 
HETATM   12  C   UNL     1      19.756  50.280  46.891  1.00  0.00     0.130 A 
HETATM   13  N   UNL     1      18.590  50.886  46.547  1.00  0.00    -0.272 NA
HETATM   14  C   UNL     1      18.229  51.960  47.281  1.00  0.00     0.116 A 
HETATM   15  C   UNL     1      18.976  52.452  48.337  1.00  0.00     0.020 A 
HETATM   16  C   UNL     1      20.169  51.806  48.662  1.00  0.00     0.017 A 
ENDBRANCH   9  11
ENDBRANCH   2   5
BRANCH   1  17
HETATM   17  C   UNL     1      26.186  46.744  50.699  1.00  0.00     0.078 C 
HETATM   18  C   UNL     1      26.277  45.534  49.767  1.00  0.00     0.020 C 
BRANCH  17  19
HETATM   19  C   UNL     1      25.390  46.430  51.978  1.00  0.00     0.052 C 
BRANCH  19  20
HETATM   20  C   UNL     1      26.255  46.473  53.216  1.00  0.00    -0.057 A 
HETATM   21  C   UNL     1      27.125  45.413  53.502  1.00  0.00     0.010 A 
HETATM   22  C   UNL     1      27.905  45.432  54.660  1.00  0.00     0.037 A 
HETATM   23  C   UNL     1      27.833  46.505  55.550  1.00  0.00     0.068 A 
HETATM   24  C   UNL     1      26.974  47.567  55.266  1.00  0.00     0.037 A 
HETATM   25  C   UNL     1      26.191  47.551  54.106  1.00  0.00     0.010 A 
BRANCH  23  26
HETATM   26  O   UNL     1      28.645  46.392  56.645  1.00  0.00    -0.356 OA
HETATM   27  C   UNL     1      29.893  45.739  56.454  1.00  0.00     0.210 C 
ENDBRANCH  23  26
ENDBRANCH  19  20
ENDBRANCH  17  19
ENDBRANCH   1  17
TORSDOF 6
ENDMDL
MODEL 3
REMARK VINA RESULT:      -8.2      2.965      9.890
REMARK  6 active torsions:
REMARK  status: ('A' for Active; 'I' for Inactive)
REMARK    1  A    between atoms: C_2  and  C_3 
REMARK    2  A    between atoms: C_2  and  C_18 
REMARK       I    between atoms: C_3  and  N_4 
REMARK    3  A    between atoms: N_4  and  C_5 
REMARK    4  A    between atoms: C_9  and  C_10 
REMARK    5  A    between atoms: C_18  and  C_19 
REMARK    6  A    between atoms: C_22  and  O_23 
ROOT
HETATM    1  C   UNL     1      25.629  47.082  51.297  1.00  0.00     0.227 C 
HETATM    2  N   UNL     1      25.629  46.167  52.340  1.00  0.00    -0.312 N 
HETATM    3  O   UNL     1      26.522  47.906  51.101  1.00  0.00    -0.273 OA
HETATM    4  H   UNL     1      24.863  45.510  52.436  1.00  0.00     0.170 HD
ENDROOT
BRANCH   2   5
HETATM    5  C   UNL     1      26.602  46.175  53.317  1.00  0.00     0.126 A 
HETATM    6  N   UNL     1      26.826  47.210  54.183  1.00  0.00    -0.262 N 
HETATM    7  H   UNL     1      26.328  48.096  54.210  1.00  0.00     0.191 HD
HETATM    8  N   UNL     1      27.798  46.962  55.077  1.00  0.00    -0.172 NA
HETATM    9  C   UNL     1      28.232  45.725  54.776  1.00  0.00     0.092 A 
HETATM   10  C   UNL     1      27.511  45.206  53.660  1.00  0.00     0.084 A 
BRANCH   9  11
HETATM   11  C   UNL     1      29.285  45.075  55.556  1.00  0.00     0.012 A 
HETATM   12  C   UNL     1      29.747  45.604  56.758  1.00  0.00     0.130 A 
HETATM   13  N   UNL     1      30.735  45.059  57.514  1.00  0.00    -0.272 NA
HETATM   14  C   UNL     1      31.294  43.922  57.049  1.00  0.00     0.116 A 
HETATM   15  C   UNL     1      30.910  43.306  55.870  1.00  0.00     0.020 A 
HETATM   16  C   UNL     1      29.892  43.893  55.118  1.00  0.00     0.017 A 
ENDBRANCH   9  11
ENDBRANCH   2   5
BRANCH   1  17
HETATM   17  C   UNL     1      24.400  46.957  50.403  1.00  0.00     0.078 C 
HETATM   18  C   UNL     1      24.138  45.481  50.099  1.00  0.00     0.020 C 
BRANCH  17  19
HETATM   19  C   UNL     1      24.582  47.788  49.120  1.00  0.00     0.052 C 
BRANCH  19  20
HETATM   20  C   UNL     1      23.497  48.826  48.950  1.00  0.00    -0.057 A 
HETATM   21  C   UNL     1      23.832  50.137  48.589  1.00  0.00     0.010 A 
HETATM   22  C   UNL     1      22.837  51.109  48.461  1.00  0.00     0.037 A 
HETATM   23  C   UNL     1      21.497  50.792  48.688  1.00  0.00     0.068 A 
HETATM   24  C   UNL     1      21.158  49.486  49.041  1.00  0.00     0.037 A 
HETATM   25  C   UNL     1      22.152  48.509  49.171  1.00  0.00     0.010 A 
BRANCH  23  26
HETATM   26  O   UNL     1      20.630  51.838  48.535  1.00  0.00    -0.356 OA
HETATM   27  C   UNL     1      19.323  51.673  49.067  1.00  0.00     0.210 C 
ENDBRANCH  23  26
ENDBRANCH  19  20
ENDBRANCH  17  19
ENDBRANCH   1  17
TORSDOF 6
ENDMDL
MODEL 4
REMARK VINA RESULT:      -8.1      1.553      2.147
REMARK  6 active torsions:
REMARK  status: ('A' for Active; 'I' for Inactive)
REMARK    1  A    between atoms: C_2  and  C_3 
REMARK    2  A    between atoms: C_2  and  C_18 
REMARK       I    between atoms: C_3  and  N_4 
REMARK    3  A    between atoms: N_4  and  C_5 
REMARK    4  A    between atoms: C_9  and  C_10 
REMARK    5  A    between atoms: C_18  and  C_19 
REMARK    6  A    between atoms: C_22  and  O_23 
ROOT
HETATM    1  C   UNL     1      25.301  45.229  51.466  1.00  0.00     0.227 C 
HETATM    2  N   UNL     1      25.341  46.059  50.355  1.00  0.00    -0.312 N 
HETATM    3  O   UNL     1      24.264  44.800  51.970  1.00  0.00    -0.273 OA
HETATM    4  H   UNL     1      26.233  46.369  49.987  1.00  0.00     0.170 HD
ENDROOT
BRANCH   2   5
HETATM    5  C   UNL     1      24.193  46.560  49.777  1.00  0.00     0.126 A 
HETATM    6  N   UNL     1      23.154  45.796  49.322  1.00  0.00    -0.262 N 
HETATM    7  H   UNL     1      23.098  44.780  49.335  1.00  0.00     0.191 HD
HETATM    8  N   UNL     1      22.126  46.516  48.844  1.00  0.00    -0.172 NA
HETATM    9  C   UNL     1      22.513  47.796  48.981  1.00  0.00     0.092 A 
HETATM   10  C   UNL     1      23.819  47.861  49.550  1.00  0.00     0.084 A 
BRANCH   9  11
HETATM   11  C   UNL     1      21.638  48.904  48.594  1.00  0.00     0.012 A 
HETATM   12  C   UNL     1      20.535  48.719  47.764  1.00  0.00     0.130 A 
HETATM   13  N   UNL     1      19.701  49.709  47.353  1.00  0.00    -0.272 NA
HETATM   14  C   UNL     1      19.979  50.953  47.795  1.00  0.00     0.116 A 
HETATM   15  C   UNL     1      21.044  51.251  48.627  1.00  0.00     0.020 A 
HETATM   16  C   UNL     1      21.881  50.211  49.030  1.00  0.00     0.017 A 
ENDBRANCH   9  11
ENDBRANCH   2   5
BRANCH   1  17
HETATM   17  C   UNL     1      26.689  44.892  52.000  1.00  0.00     0.078 C 
HETATM   18  C   UNL     1      27.517  44.237  50.892  1.00  0.00     0.020 C 
BRANCH  17  19
HETATM   19  C   UNL     1      26.582  43.996  53.247  1.00  0.00     0.052 C 
BRANCH  19  20
HETATM   20  C   UNL     1      27.850  44.005  54.069  1.00  0.00    -0.057 A 
HETATM   21  C   UNL     1      28.170  45.120  54.853  1.00  0.00     0.010 A 
HETATM   22  C   UNL     1      29.355  45.148  55.591  1.00  0.00     0.037 A 
HETATM   23  C   UNL     1      30.238  44.067  55.562  1.00  0.00     0.068 A 
HETATM   24  C   UNL     1      29.920  42.950  54.788  1.00  0.00     0.037 A 
HETATM   25  C   UNL     1      28.733  42.920  54.047  1.00  0.00     0.010 A 
BRANCH  23  26
HETATM   26  O   UNL     1      31.362  44.229  56.324  1.00  0.00    -0.356 OA
HETATM   27  C   UNL     1      31.168  44.430  57.718  1.00  0.00     0.210 C 
ENDBRANCH  23  26
ENDBRANCH  19  20
ENDBRANCH  17  19
ENDBRANCH   1  17
TORSDOF 6
ENDMDL
MODEL 5
REMARK VINA RESULT:      -8.0      3.627     10.840
REMARK  6 active torsions:
REMARK  status: ('A' for Active; 'I' for Inactive)
REMARK    1  A    between atoms: C_2  and  C_3 
REMARK    2  A    between atoms: C_2  and  C_18 
REMARK       I    between atoms: C_3  and  N_4 
REMARK    3  A    between atoms: N_4  and  C_5 
REMARK    4  A    between atoms: C_9  and  C_10 
REMARK    5  A    between atoms: C_18  and  C_19 
REMARK    6  A    between atoms: C_22  and  O_23 
ROOT
HETATM    1  C   UNL     1      22.831  48.648  48.958  1.00  0.00     0.227 C 
HETATM    2  N   UNL     1      24.100  48.463  49.486  1.00  0.00    -0.312 N 
HETATM    3  O   UNL     1      21.884  47.888  49.154  1.00  0.00    -0.273 OA
HETATM    4  H   UNL     1      24.833  49.135  49.289  1.00  0.00     0.170 HD
ENDROOT
BRANCH   2   5
HETATM    5  C   UNL     1      24.433  47.335  50.206  1.00  0.00     0.126 A 
HETATM    6  N   UNL     1      23.859  46.105  50.036  1.00  0.00    -0.262 N 
HETATM    7  H   UNL     1      23.116  45.869  49.382  1.00  0.00     0.191 HD
HETATM    8  N   UNL     1      24.386  45.152  50.822  1.00  0.00    -0.172 NA
HETATM    9  C   UNL     1      25.330  45.785  51.540  1.00  0.00     0.092 A 
HETATM   10  C   UNL     1      25.376  47.166  51.190  1.00  0.00     0.084 A 
BRANCH   9  11
HETATM   11  C   UNL     1      26.163  45.068  52.507  1.00  0.00     0.012 A 
HETATM   12  C   UNL     1      26.445  43.711  52.374  1.00  0.00     0.130 A 
HETATM   13  N   UNL     1      27.191  42.987  53.249  1.00  0.00    -0.272 NA
HETATM   14  C   UNL     1      27.687  43.652  54.313  1.00  0.00     0.116 A 
HETATM   15  C   UNL     1      27.474  45.001  54.541  1.00  0.00     0.020 A 
HETATM   16  C   UNL     1      26.703  45.714  53.624  1.00  0.00     0.017 A 
ENDBRANCH   9  11
ENDBRANCH   2   5
BRANCH   1  17
HETATM   17  C   UNL     1      22.724  49.909  48.106  1.00  0.00     0.078 C 
HETATM   18  C   UNL     1      24.128  50.417  47.769  1.00  0.00     0.020 C 
BRANCH  17  19
HETATM   19  C   UNL     1      21.881  50.975  48.827  1.00  0.00     0.052 C 
BRANCH  19  20
HETATM   20  C   UNL     1      20.524  51.159  48.190  1.00  0.00    -0.057 A 
HETATM   21  C   UNL     1      19.646  52.135  48.679  1.00  0.00     0.010 A 
HETATM   22  C   UNL     1      18.378  52.290  48.115  1.00  0.00     0.037 A 
HETATM   23  C   UNL     1      17.964  51.479  47.057  1.00  0.00     0.068 A 
HETATM   24  C   UNL     1      18.838  50.511  46.561  1.00  0.00     0.037 A 
HETATM   25  C   UNL     1      20.110  50.352  47.124  1.00  0.00     0.010 A 
BRANCH  23  26
HETATM   26  O   UNL     1      16.699  51.733  46.606  1.00  0.00    -0.356 OA
HETATM   27  C   UNL     1      15.778  52.270  47.546  1.00  0.00     0.210 C 
ENDBRANCH  23  26
ENDBRANCH  19  20
ENDBRANCH  17  19
ENDBRANCH   1  17
TORSDOF 6
ENDMDL
MODEL 6
REMARK VINA RESULT:      -7.8      3.011      9.206
REMARK  6 active torsions:
REMARK  status: ('A' for Active; 'I' for Inactive)
REMARK    1  A    between atoms: C_2  and  C_3 
REMARK    2  A    between atoms: C_2  and  C_18 
REMARK       I    between atoms: C_3  and  N_4 
REMARK    3  A    between atoms: N_4  and  C_5 
REMARK    4  A    between atoms: C_9  and  C_10 
REMARK    5  A    between atoms: C_18  and  C_19 
REMARK    6  A    between atoms: C_22  and  O_23 
ROOT
HETATM    1  C   UNL     1      25.331  44.050  51.819  1.00  0.00     0.227 C 
HETATM    2  N   UNL     1      26.710  44.200  51.822  1.00  0.00    -0.312 N 
HETATM    3  O   UNL     1      24.602  44.347  52.765  1.00  0.00    -0.273 OA
HETATM    4  H   UNL     1      27.249  43.942  51.003  1.00  0.00     0.170 HD
ENDROOT
BRANCH   2   5
HETATM    5  C   UNL     1      27.397  44.608  52.946  1.00  0.00     0.126 A 
HETATM    6  N   UNL     1      27.117  45.741  53.661  1.00  0.00    -0.262 N 
HETATM    7  H   UNL     1      26.392  46.424  53.454  1.00  0.00     0.191 HD
HETATM    8  N   UNL     1      27.894  45.898  54.745  1.00  0.00    -0.172 NA
HETATM    9  C   UNL     1      28.719  44.837  54.731  1.00  0.00     0.092 A 
HETATM   10  C   UNL     1      28.445  44.012  53.601  1.00  0.00     0.084 A 
BRANCH   9  11
HETATM   11  C   UNL     1      29.714  44.629  55.784  1.00  0.00     0.012 A 
HETATM   12  C   UNL     1      29.821  45.485  56.878  1.00  0.00     0.130 A 
HETATM   13  N   UNL     1      30.736  45.357  57.874  1.00  0.00    -0.272 NA
HETATM   14  C   UNL     1      31.590  44.317  57.778  1.00  0.00     0.116 A 
HETATM   15  C   UNL     1      31.571  43.403  56.739  1.00  0.00     0.020 A 
HETATM   16  C   UNL     1      30.619  43.564  55.733  1.00  0.00     0.017 A 
ENDBRANCH   9  11
ENDBRANCH   2   5
BRANCH   1  17
HETATM   17  C   UNL     1      24.802  43.481  50.506  1.00  0.00     0.078 C 
HETATM   18  C   UNL     1      25.305  42.046  50.333  1.00  0.00     0.020 C 
BRANCH  17  19
HETATM   19  C   UNL     1      25.210  44.383  49.327  1.00  0.00     0.052 C 
BRANCH  19  20
HETATM   20  C   UNL     1      24.336  45.610  49.217  1.00  0.00    -0.057 A 
HETATM   21  C   UNL     1      24.750  46.819  49.791  1.00  0.00     0.010 A 
HETATM   22  C   UNL     1      23.934  47.950  49.719  1.00  0.00     0.037 A 
HETATM   23  C   UNL     1      22.696  47.896  49.076  1.00  0.00     0.068 A 
HETATM   24  C   UNL     1      22.283  46.697  48.496  1.00  0.00     0.037 A 
HETATM   25  C   UNL     1      23.098  45.561  48.566  1.00  0.00     0.010 A 
BRANCH  23  26
HETATM   26  O   UNL     1      21.998  49.072  49.086  1.00  0.00    -0.356 OA
HETATM   27  C   UNL     1      20.581  48.978  49.172  1.00  0.00     0.210 C 
ENDBRANCH  23  26
ENDBRANCH  19  20
ENDBRANCH  17  19
ENDBRANCH   1  17
TORSDOF 6
ENDMDL
MODEL 7
REMARK VINA RESULT:      -7.7      6.297     10.313
REMARK  6 active torsions:
REMARK  status: ('A' for Active; 'I' for Inactive)
REMARK    1  A    between atoms: C_2  and  C_3 
REMARK    2  A    between atoms: C_2  and  C_18 
REMARK       I    between atoms: C_3  and  N_4 
REMARK    3  A    between atoms: N_4  and  C_5 
REMARK    4  A    between atoms: C_9  and  C_10 
REMARK    5  A    between atoms: C_18  and  C_19 
REMARK    6  A    between atoms: C_22  and  O_23 
ROOT
HETATM    1  C   UNL     1      28.388  39.697  50.370  1.00  0.00     0.227 C 
HETATM    2  N   UNL     1      29.025  39.786  51.600  1.00  0.00    -0.312 N 
HETATM    3  O   UNL     1      27.638  40.560  49.918  1.00  0.00    -0.273 OA
HETATM    4  H   UNL     1      29.638  39.039  51.907  1.00  0.00     0.170 HD
ENDROOT
BRANCH   2   5
HETATM    5  C   UNL     1      28.782  40.825  52.473  1.00  0.00     0.126 A 
HETATM    6  N   UNL     1      27.574  41.083  53.060  1.00  0.00    -0.262 N 
HETATM    7  H   UNL     1      26.710  40.563  52.921  1.00  0.00     0.191 HD
HETATM    8  N   UNL     1      27.600  42.122  53.910  1.00  0.00    -0.172 NA
HETATM    9  C   UNL     1      28.868  42.566  53.869  1.00  0.00     0.092 A 
HETATM   10  C   UNL     1      29.638  41.782  52.959  1.00  0.00     0.084 A 
BRANCH   9  11
HETATM   11  C   UNL     1      29.311  43.689  54.695  1.00  0.00     0.012 A 
HETATM   12  C   UNL     1      28.619  44.897  54.731  1.00  0.00     0.130 A 
HETATM   13  N   UNL     1      28.993  45.981  55.460  1.00  0.00    -0.272 NA
HETATM   14  C   UNL     1      30.117  45.855  56.196  1.00  0.00     0.116 A 
HETATM   15  C   UNL     1      30.879  44.700  56.239  1.00  0.00     0.020 A 
HETATM   16  C   UNL     1      30.467  43.607  55.479  1.00  0.00     0.017 A 
ENDBRANCH   9  11
ENDBRANCH   2   5
BRANCH   1  17
HETATM   17  C   UNL     1      28.724  38.409  49.624  1.00  0.00     0.078 C 
HETATM   18  C   UNL     1      30.143  37.966  49.984  1.00  0.00     0.020 C 
BRANCH  17  19
HETATM   19  C   UNL     1      28.547  38.605  48.108  1.00  0.00     0.052 C 
BRANCH  19  20
HETATM   20  C   UNL     1      28.058  37.351  47.422  1.00  0.00    -0.057 A 
HETATM   21  C   UNL     1      26.970  36.643  47.948  1.00  0.00     0.010 A 
HETATM   22  C   UNL     1      26.532  35.467  47.336  1.00  0.00     0.037 A 
HETATM   23  C   UNL     1      27.167  34.978  46.193  1.00  0.00     0.068 A 
HETATM   24  C   UNL     1      28.246  35.684  45.661  1.00  0.00     0.037 A 
HETATM   25  C   UNL     1      28.688  36.864  46.272  1.00  0.00     0.010 A 
BRANCH  23  26
HETATM   26  O   UNL     1      26.641  33.815  45.703  1.00  0.00    -0.356 OA
HETATM   27  C   UNL     1      25.602  33.210  46.462  1.00  0.00     0.210 C 
ENDBRANCH  23  26
ENDBRANCH  19  20
ENDBRANCH  17  19
ENDBRANCH   1  17
TORSDOF 6
ENDMDL
MODEL 8
REMARK VINA RESULT:      -7.6      2.496      4.522
REMARK  6 active torsions:
REMARK  status: ('A' for Active; 'I' for Inactive)
REMARK    1  A    between atoms: C_2  and  C_3 
REMARK    2  A    between atoms: C_2  and  C_18 
REMARK       I    between atoms: C_3  and  N_4 
REMARK    3  A    between atoms: N_4  and  C_5 
REMARK    4  A    between atoms: C_9  and  C_10 
REMARK    5  A    between atoms: C_18  and  C_19 
REMARK    6  A    between atoms: C_22  and  O_23 
ROOT
HETATM    1  C   UNL     1      25.233  48.732  49.145  1.00  0.00     0.227 C 
HETATM    2  N   UNL     1      23.999  48.382  49.672  1.00  0.00    -0.312 N 
HETATM    3  O   UNL     1      25.399  49.610  48.299  1.00  0.00    -0.273 OA
HETATM    4  H   UNL     1      23.937  47.653  50.374  1.00  0.00     0.170 HD
ENDROOT
BRANCH   2   5
HETATM    5  C   UNL     1      22.824  48.934  49.207  1.00  0.00     0.126 A 
HETATM    6  N   UNL     1      22.233  48.616  48.015  1.00  0.00    -0.262 N 
HETATM    7  H   UNL     1      22.581  47.956  47.323  1.00  0.00     0.191 HD
HETATM    8  N   UNL     1      21.068  49.252  47.806  1.00  0.00    -0.172 NA
HETATM    9  C   UNL     1      20.899  50.022  48.894  1.00  0.00     0.092 A 
HETATM   10  C   UNL     1      21.996  49.860  49.791  1.00  0.00     0.084 A 
BRANCH   9  11
HETATM   11  C   UNL     1      19.711  50.860  49.059  1.00  0.00     0.012 A 
HETATM   12  C   UNL     1      18.674  50.510  49.921  1.00  0.00     0.130 A 
HETATM   13  N   UNL     1      17.539  51.234  50.100  1.00  0.00    -0.272 NA
HETATM   14  C   UNL     1      17.430  52.372  49.383  1.00  0.00     0.116 A 
HETATM   15  C   UNL     1      18.400  52.818  48.502  1.00  0.00     0.020 A 
HETATM   16  C   UNL     1      19.553  52.051  48.342  1.00  0.00     0.017 A 
ENDBRANCH   9  11
ENDBRANCH   2   5
BRANCH   1  17
HETATM   17  C   UNL     1      26.379  47.915  49.733  1.00  0.00     0.078 C 
HETATM   18  C   UNL     1      27.686  48.289  49.030  1.00  0.00     0.020 C 
BRANCH  17  19
HETATM   19  C   UNL     1      26.076  46.410  49.625  1.00  0.00     0.052 C 
BRANCH  19  20
HETATM   20  C   UNL     1      26.576  45.638  50.824  1.00  0.00    -0.057 A 
HETATM   21  C   UNL     1      26.242  46.057  52.118  1.00  0.00     0.010 A 
HETATM   22  C   UNL     1      26.726  45.367  53.231  1.00  0.00     0.037 A 
HETATM   23  C   UNL     1      27.548  44.249  53.074  1.00  0.00     0.068 A 
HETATM   24  C   UNL     1      27.878  43.823  51.788  1.00  0.00     0.037 A 
HETATM   25  C   UNL     1      27.394  44.513  50.669  1.00  0.00     0.010 A 
BRANCH  23  26
HETATM   26  O   UNL     1      27.956  43.674  54.246  1.00  0.00    -0.356 OA
HETATM   27  C   UNL     1      29.311  43.878  54.624  1.00  0.00     0.210 C 
ENDBRANCH  23  26
ENDBRANCH  19  20
ENDBRANCH  17  19
ENDBRANCH   1  17
TORSDOF 6
ENDMDL
MODEL 9
REMARK VINA RESULT:      -7.6      4.218      8.287
REMARK  6 active torsions:
REMARK  status: ('A' for Active; 'I' for Inactive)
REMARK    1  A    between atoms: C_2  and  C_3 
REMARK    2  A    between atoms: C_2  and  C_18 
REMARK       I    between atoms: C_3  and  N_4 
REMARK    3  A    between atoms: N_4  and  C_5 
REMARK    4  A    between atoms: C_9  and  C_10 
REMARK    5  A    between atoms: C_18  and  C_19 
REMARK    6  A    between atoms: C_22  and  O_23 
ROOT
HETATM    1  C   UNL     1      25.541  43.469  50.783  1.00  0.00     0.227 C 
HETATM    2  N   UNL     1      26.848  43.910  50.933  1.00  0.00    -0.312 N 
HETATM    3  O   UNL     1      24.708  43.462  51.688  1.00  0.00    -0.273 OA
HETATM    4  H   UNL     1      27.480  43.896  50.140  1.00  0.00     0.170 HD
ENDROOT
BRANCH   2   5
HETATM    5  C   UNL     1      27.355  44.287  52.158  1.00  0.00     0.126 A 
HETATM    6  N   UNL     1      26.773  45.201  52.993  1.00  0.00    -0.262 N 
HETATM    7  H   UNL     1      25.917  45.723  52.817  1.00  0.00     0.191 HD
HETATM    8  N   UNL     1      27.430  45.365  54.153  1.00  0.00    -0.172 NA
HETATM    9  C   UNL     1      28.486  44.537  54.067  1.00  0.00     0.092 A 
HETATM   10  C   UNL     1      28.480  43.855  52.815  1.00  0.00     0.084 A 
BRANCH   9  11
HETATM   11  C   UNL     1      29.443  44.404  55.166  1.00  0.00     0.012 A 
HETATM   12  C   UNL     1      29.566  45.373  56.160  1.00  0.00     0.130 A 
HETATM   13  N   UNL     1      30.449  45.316  57.190  1.00  0.00    -0.272 NA
HETATM   14  C   UNL     1      31.253  44.234  57.237  1.00  0.00     0.116 A 
HETATM   15  C   UNL     1      31.214  43.210  56.306  1.00  0.00     0.020 A 
HETATM   16  C   UNL     1      30.296  43.300  55.261  1.00  0.00     0.017 A 
ENDBRANCH   9  11
ENDBRANCH   2   5
BRANCH   1  17
HETATM   17  C   UNL     1      25.236  42.998  49.365  1.00  0.00     0.078 C 
HETATM   18  C   UNL     1      24.040  43.778  48.815  1.00  0.00     0.020 C 
BRANCH  17  19
HETATM   19  C   UNL     1      24.993  41.479  49.344  1.00  0.00     0.052 C 
BRANCH  19  20
HETATM   20  C   UNL     1      26.274  40.696  49.177  1.00  0.00    -0.057 A 
HETATM   21  C   UNL     1      26.414  39.441  49.782  1.00  0.00     0.010 A 
HETATM   22  C   UNL     1      27.606  38.725  49.657  1.00  0.00     0.037 A 
HETATM   23  C   UNL     1      28.677  39.247  48.929  1.00  0.00     0.068 A 
HETATM   24  C   UNL     1      28.541  40.493  48.318  1.00  0.00     0.037 A 
HETATM   25  C   UNL     1      27.346  41.213  48.441  1.00  0.00     0.010 A 
BRANCH  23  26
HETATM   26  O   UNL     1      29.785  38.446  48.894  1.00  0.00    -0.356 OA
HETATM   27  C   UNL     1      30.199  37.868  50.125  1.00  0.00     0.210 C 
ENDBRANCH  23  26
ENDBRANCH  19  20
ENDBRANCH  17  19
ENDBRANCH   1  17
TORSDOF 6
ENDMDL
MODEL 10
REMARK VINA RESULT:      -7.5      5.274      8.457
REMARK  6 active torsions:
REMARK  status: ('A' for Active; 'I' for Inactive)
REMARK    1  A    between atoms: C_2  and  C_3 
REMARK    2  A    between atoms: C_2  and  C_18 
REMARK       I    between atoms: C_3  and  N_4 
REMARK    3  A    between atoms: N_4  and  C_5 
REMARK    4  A    between atoms: C_9  and  C_10 
REMARK    5  A    between atoms: C_18  and  C_19 
REMARK    6  A    between atoms: C_22  and  O_23 
ROOT
HETATM    1  C   UNL     1      28.123  41.423  51.896  1.00  0.00     0.227 C 
HETATM    2  N   UNL     1      27.743  41.317  50.566  1.00  0.00    -0.312 N 
HETATM    3  O   UNL     1      28.843  40.611  52.475  1.00  0.00    -0.273 OA
HETATM    4  H   UNL     1      27.152  42.029  50.151  1.00  0.00     0.170 HD
ENDROOT
BRANCH   2   5
HETATM    5  C   UNL     1      28.069  40.218  49.800  1.00  0.00     0.126 A 
HETATM    6  N   UNL     1      29.335  39.724  49.646  1.00  0.00    -0.262 N 
HETATM    7  H   UNL     1      30.187  40.104  50.053  1.00  0.00     0.191 HD
HETATM    8  N   UNL     1      29.392  38.616  48.890  1.00  0.00    -0.172 NA
HETATM    9  C   UNL     1      28.118  38.384  48.528  1.00  0.00     0.092 A 
HETATM   10  C   UNL     1      27.259  39.384  49.070  1.00  0.00     0.084 A 
BRANCH   9  11
HETATM   11  C   UNL     1      27.756  37.226  47.709  1.00  0.00     0.012 A 
HETATM   12  C   UNL     1      26.727  36.360  48.069  1.00  0.00     0.130 A 
HETATM   13  N   UNL     1      26.360  35.259  47.363  1.00  0.00    -0.272 NA
HETATM   14  C   UNL     1      27.054  35.007  46.233  1.00  0.00     0.116 A 
HETATM   15  C   UNL     1      28.091  35.803  45.778  1.00  0.00     0.020 A 
HETATM   16  C   UNL     1      28.442  36.926  46.527  1.00  0.00     0.017 A 
ENDBRANCH   9  11
ENDBRANCH   2   5
BRANCH   1  17
HETATM   17  C   UNL     1      27.556  42.667  52.574  1.00  0.00     0.078 C 
HETATM   18  C   UNL     1      26.247  43.069  51.891  1.00  0.00     0.020 C 
BRANCH  17  19
HETATM   19  C   UNL     1      28.591  43.806  52.557  1.00  0.00     0.052 C 
BRANCH  19  20
HETATM   20  C   UNL     1      29.226  44.022  53.911  1.00  0.00    -0.057 A 
HETATM   21  C   UNL     1      28.839  45.112  54.701  1.00  0.00     0.010 A 
HETATM   22  C   UNL     1      29.444  45.336  55.940  1.00  0.00     0.037 A 
HETATM   23  C   UNL     1      30.441  44.480  56.411  1.00  0.00     0.068 A 
HETATM   24  C   UNL     1      30.825  43.389  55.631  1.00  0.00     0.037 A 
HETATM   25  C   UNL     1      30.220  43.162  54.389  1.00  0.00     0.010 A 
BRANCH  23  26
HETATM   26  O   UNL     1      30.952  44.819  57.633  1.00  0.00    -0.356 OA
HETATM   27  C   UNL     1      30.467  46.020  58.221  1.00  0.00     0.210 C 
ENDBRANCH  23  26
ENDBRANCH  19  20
ENDBRANCH  17  19
ENDBRANCH   1  17
TORSDOF 6
ENDMDL
