MODEL 1
REMARK VINA RESULT:      -9.7      0.000      0.000
REMARK  9 active torsions:
REMARK  status: ('A' for Active; 'I' for Inactive)
REMARK    1  A    between atoms: C_2  and  O_3 
REMARK    2  A    between atoms: O_3  and  C_4 
REMARK    3  A    between atoms: C_4  and  C_5 
REMARK    4  A    between atoms: C_10  and  C_11 
REMARK       I    between atoms: C_11  and  N_12 
REMARK    5  A    between atoms: N_12  and  C_13 
REMARK    6  A    between atoms: C_15  and  C_16 
REMARK    7  A    between atoms: C_16  and  C_17 
REMARK    8  A    between atoms: C_17  and  C_18 
REMARK    9  A    between atoms: C_18  and  C_19 
ROOT
HETATM    1  C   UNL     1      26.146  42.584  50.354  1.00  0.00     0.725 A 
HETATM    2  N   UNL     1      27.238  42.546  51.075  1.00  0.00    -0.046 NA
HETATM    3  C   UNL     1      27.436  41.215  51.317  1.00  0.00     0.165 A 
HETATM    4  N   UNL     1      26.529  40.406  50.758  1.00  0.00    -0.144 NA
HETATM    5  N   UNL     1      25.722  41.297  50.156  1.00  0.00    -0.106 N 
HETATM    6  H   UNL     1      24.920  40.962  49.639  1.00  0.00     0.208 HD
ENDROOT
BRANCH   1   7
HETATM    7  N   UNL     1      25.488  43.670  49.833  1.00  0.00    -0.152 N 
HETATM    8  C   UNL     1      24.277  44.089  50.342  1.00  0.00     0.272 C 
HETATM    9  O   UNL     1      23.612  43.509  51.191  1.00  0.00    -0.267 OA
HETATM   10  H   UNL     1      25.871  44.157  49.040  1.00  0.00     0.187 HD
BRANCH   8  11
HETATM   11  C   UNL     1      23.778  45.343  49.740  1.00  0.00     0.063 A 
HETATM   12  C   UNL     1      22.855  45.490  48.707  1.00  0.00     0.022 A 
HETATM   13  N   UNL     1      22.762  46.830  48.426  1.00  0.00    -0.354 N 
HETATM   14  C   UNL     1      22.088  44.510  47.891  1.00  0.00     0.069 C 
HETATM   15  C   UNL     1      23.661  47.559  49.169  1.00  0.00     0.115 A 
HETATM   16  H   UNL     1      22.193  47.242  47.696  1.00  0.00     0.166 HD
HETATM   17  C   UNL     1      24.246  46.673  50.067  1.00  0.00    -0.011 A 
HETATM   18  C   UNL     1      25.229  47.002  51.144  1.00  0.00     0.052 C 
BRANCH  15  19
HETATM   19  C   UNL     1      23.850  48.970  48.905  1.00  0.00     0.310 C 
HETATM   20  O   UNL     1      23.038  49.665  48.306  1.00  0.00    -0.258 OA
BRANCH  19  21
HETATM   21  O   UNL     1      25.067  49.388  49.343  1.00  0.00    -0.317 OA
BRANCH  21  22
HETATM   22  C   UNL     1      26.030  49.701  48.329  1.00  0.00     0.175 C 
HETATM   23  C   UNL     1      27.440  49.530  48.858  1.00  0.00     0.034 C 
ENDBRANCH  21  22
ENDBRANCH  19  21
ENDBRANCH  15  19
ENDBRANCH   8  11
ENDBRANCH   1   7
BRANCH   3  24
HETATM   24  C   UNL     1      28.564  40.739  52.156  1.00  0.00     0.083 C 
BRANCH  24  25
HETATM   25  C   UNL     1      28.657  41.521  53.466  1.00  0.00     0.012 C 
BRANCH  25  26
HETATM   26  C   UNL     1      29.804  42.531  53.433  1.00  0.00     0.041 C 
BRANCH  26  27
HETATM   27  C   UNL     1      29.549  43.695  54.339  1.00  0.00    -0.030 A 
HETATM   28  C   UNL     1      30.184  43.967  55.593  1.00  0.00    -0.002 A 
HETATM   29  C   UNL     1      29.627  45.143  56.097  1.00  0.00     0.042 A 
HETATM   30  C   UNL     1      31.179  43.318  56.352  1.00  0.00     0.014 A 
HETATM   31  C   UNL     1      30.017  45.705  57.319  1.00  0.00     0.030 A 
HETATM   32  N   UNL     1      28.691  45.571  55.185  1.00  0.00    -0.365 N 
HETATM   33  C   UNL     1      31.008  45.043  58.049  1.00  0.00     0.002 A 
HETATM   34  C   UNL     1      31.583  43.866  57.575  1.00  0.00     0.001 A 
HETATM   35  H   UNL     1      28.123  46.400  55.291  1.00  0.00     0.165 HD
HETATM   36  C   UNL     1      28.637  44.710  54.123  1.00  0.00     0.096 A 
ENDBRANCH  26  27
ENDBRANCH  25  26
ENDBRANCH  24  25
ENDBRANCH   3  24
TORSDOF 9
ENDMDL
MODEL 2
REMARK VINA RESULT:      -9.6      1.246      2.091
REMARK  9 active torsions:
REMARK  status: ('A' for Active; 'I' for Inactive)
REMARK    1  A    between atoms: C_2  and  O_3 
REMARK    2  A    between atoms: O_3  and  C_4 
REMARK    3  A    between atoms: C_4  and  C_5 
REMARK    4  A    between atoms: C_10  and  C_11 
REMARK       I    between atoms: C_11  and  N_12 
REMARK    5  A    between atoms: N_12  and  C_13 
REMARK    6  A    between atoms: C_15  and  C_16 
REMARK    7  A    between atoms: C_16  and  C_17 
REMARK    8  A    between atoms: C_17  and  C_18 
REMARK    9  A    between atoms: C_18  and  C_19 
ROOT
HETATM    1  C   UNL     1      26.282  42.718  50.456  1.00  0.00     0.725 A 
HETATM    2  N   UNL     1      27.434  42.566  51.060  1.00  0.00    -0.046 NA
HETATM    3  C   UNL     1      27.480  41.234  51.366  1.00  0.00     0.165 A 
HETATM    4  N   UNL     1      26.417  40.531  50.959  1.00  0.00    -0.144 NA
HETATM    5  N   UNL     1      25.672  41.493  50.389  1.00  0.00    -0.106 N 
HETATM    6  H   UNL     1      24.780  41.247  49.982  1.00  0.00     0.208 HD
ENDROOT
BRANCH   1   7
HETATM    7  N   UNL     1      25.718  43.856  49.937  1.00  0.00    -0.152 N 
HETATM    8  C   UNL     1      24.707  44.524  50.598  1.00  0.00     0.272 C 
HETATM    9  O   UNL     1      24.132  44.142  51.610  1.00  0.00    -0.267 OA
HETATM   10  H   UNL     1      26.017  44.202  49.041  1.00  0.00     0.187 HD
BRANCH   8  11
HETATM   11  C   UNL     1      24.310  45.793  49.954  1.00  0.00     0.063 A 
HETATM   12  C   UNL     1      24.927  47.038  50.060  1.00  0.00     0.022 A 
HETATM   13  N   UNL     1      24.163  47.937  49.360  1.00  0.00    -0.354 N 
HETATM   14  C   UNL     1      26.125  47.510  50.805  1.00  0.00     0.069 C 
HETATM   15  C   UNL     1      23.016  47.349  48.879  1.00  0.00     0.115 A 
HETATM   16  H   UNL     1      24.342  48.931  49.284  1.00  0.00     0.166 HD
HETATM   17  C   UNL     1      23.122  45.989  49.152  1.00  0.00    -0.011 A 
HETATM   18  C   UNL     1      22.163  44.914  48.753  1.00  0.00     0.052 C 
BRANCH  15  19
HETATM   19  C   UNL     1      21.987  48.157  48.259  1.00  0.00     0.310 C 
HETATM   20  O   UNL     1      21.609  48.008  47.103  1.00  0.00    -0.258 OA
BRANCH  19  21
HETATM   21  O   UNL     1      21.560  49.133  49.103  1.00  0.00    -0.317 OA
BRANCH  21  22
HETATM   22  C   UNL     1      21.464  50.451  48.547  1.00  0.00     0.175 C 
HETATM   23  C   UNL     1      22.828  51.110  48.496  1.00  0.00     0.034 C 
ENDBRANCH  21  22
ENDBRANCH  19  21
ENDBRANCH  15  19
ENDBRANCH   8  11
ENDBRANCH   1   7
BRANCH   3  24
HETATM   24  C   UNL     1      28.624  40.650  52.110  1.00  0.00     0.083 C 
BRANCH  24  25
HETATM   25  C   UNL     1      28.817  41.331  53.465  1.00  0.00     0.012 C 
BRANCH  25  26
HETATM   26  C   UNL     1      29.926  42.383  53.408  1.00  0.00     0.041 C 
BRANCH  26  27
HETATM   27  C   UNL     1      29.617  43.565  54.272  1.00  0.00    -0.030 A 
HETATM   28  C   UNL     1      30.211  43.888  55.534  1.00  0.00    -0.002 A 
HETATM   29  C   UNL     1      29.613  45.064  55.988  1.00  0.00     0.042 A 
HETATM   30  C   UNL     1      31.200  43.286  56.339  1.00  0.00     0.014 A 
HETATM   31  C   UNL     1      29.956  45.670  57.204  1.00  0.00     0.030 A 
HETATM   32  N   UNL     1      28.693  45.443  55.039  1.00  0.00    -0.365 N 
HETATM   33  C   UNL     1      30.941  45.053  57.979  1.00  0.00     0.002 A 
HETATM   34  C   UNL     1      31.557  43.878  57.556  1.00  0.00     0.001 A 
HETATM   35  H   UNL     1      28.103  46.260  55.106  1.00  0.00     0.165 HD
HETATM   36  C   UNL     1      28.689  44.551  54.002  1.00  0.00     0.096 A 
ENDBRANCH  26  27
ENDBRANCH  25  26
ENDBRANCH  24  25
ENDBRANCH   3  24
TORSDOF 9
ENDMDL
MODEL 3
REMARK VINA RESULT:      -9.3      2.477      4.001
REMARK  9 active torsions:
REMARK  status: ('A' for Active; 'I' for Inactive)
REMARK    1  A    between atoms: C_2  and  O_3 
REMARK    2  A    between atoms: O_3  and  C_4 
REMARK    3  A    between atoms: C_4  and  C_5 
REMARK    4  A    between atoms: C_10  and  C_11 
REMARK       I    between atoms: C_11  and  N_12 
REMARK    5  A    between atoms: N_12  and  C_13 
REMARK    6  A    between atoms: C_15  and  C_16 
REMARK    7  A    between atoms: C_16  and  C_17 
REMARK    8  A    between atoms: C_17  and  C_18 
REMARK    9  A    between atoms: C_18  and  C_19 
ROOT
HETATM    1  C   UNL     1      24.003  45.246  49.767  1.00  0.00     0.725 A 
HETATM    2  N   UNL     1      25.193  44.746  49.548  1.00  0.00    -0.046 NA
HETATM    3  C   UNL     1      25.265  43.670  50.388  1.00  0.00     0.165 A 
HETATM    4  N   UNL     1      24.160  43.451  51.111  1.00  0.00    -0.144 NA
HETATM    5  N   UNL     1      23.377  44.464  50.701  1.00  0.00    -0.106 N 
HETATM    6  H   UNL     1      22.450  44.558  51.093  1.00  0.00     0.208 HD
ENDROOT
BRANCH   1   7
HETATM    7  N   UNL     1      23.403  46.340  49.195  1.00  0.00    -0.152 N 
HETATM    8  C   UNL     1      23.696  47.622  49.611  1.00  0.00     0.272 C 
HETATM    9  O   UNL     1      24.394  47.926  50.572  1.00  0.00    -0.267 OA
HETATM   10  H   UNL     1      22.708  46.215  48.478  1.00  0.00     0.187 HD
BRANCH   8  11
HETATM   11  C   UNL     1      23.051  48.676  48.801  1.00  0.00     0.063 A 
HETATM   12  C   UNL     1      23.664  49.714  48.102  1.00  0.00     0.022 A 
HETATM   13  N   UNL     1      22.669  50.494  47.567  1.00  0.00    -0.354 N 
HETATM   14  C   UNL     1      25.087  50.112  47.927  1.00  0.00     0.069 C 
HETATM   15  C   UNL     1      21.427  50.062  47.970  1.00  0.00     0.115 A 
HETATM   16  H   UNL     1      22.808  51.343  47.033  1.00  0.00     0.166 HD
HETATM   17  C   UNL     1      21.625  48.873  48.665  1.00  0.00    -0.011 A 
HETATM   18  C   UNL     1      20.572  47.977  49.233  1.00  0.00     0.052 C 
BRANCH  15  19
HETATM   19  C   UNL     1      20.248  50.844  47.662  1.00  0.00     0.310 C 
HETATM   20  O   UNL     1      19.496  50.601  46.726  1.00  0.00    -0.258 OA
BRANCH  19  21
HETATM   21  O   UNL     1      20.137  51.908  48.500  1.00  0.00    -0.317 OA
BRANCH  21  22
HETATM   22  C   UNL     1      19.393  51.688  49.705  1.00  0.00     0.175 C 
HETATM   23  C   UNL     1      18.034  52.355  49.624  1.00  0.00     0.034 C 
ENDBRANCH  21  22
ENDBRANCH  19  21
ENDBRANCH  15  19
ENDBRANCH   8  11
ENDBRANCH   1   7
BRANCH   3  24
HETATM   24  C   UNL     1      26.493  42.842  50.482  1.00  0.00     0.083 C 
BRANCH  24  25
HETATM   25  C   UNL     1      27.531  43.482  51.403  1.00  0.00     0.012 C 
BRANCH  25  26
HETATM   26  C   UNL     1      27.258  43.149  52.870  1.00  0.00     0.041 C 
BRANCH  26  27
HETATM   27  C   UNL     1      27.800  44.196  53.791  1.00  0.00    -0.030 A 
HETATM   28  C   UNL     1      28.950  44.089  54.637  1.00  0.00    -0.002 A 
HETATM   29  C   UNL     1      29.074  45.295  55.328  1.00  0.00     0.042 A 
HETATM   30  C   UNL     1      29.897  43.074  54.884  1.00  0.00     0.014 A 
HETATM   31  C   UNL     1      30.098  45.538  56.253  1.00  0.00     0.030 A 
HETATM   32  N   UNL     1      28.040  46.104  54.919  1.00  0.00    -0.365 N 
HETATM   33  C   UNL     1      31.025  44.516  56.475  1.00  0.00     0.002 A 
HETATM   34  C   UNL     1      30.929  43.300  55.802  1.00  0.00     0.001 A 
HETATM   35  H   UNL     1      27.875  47.040  55.260  1.00  0.00     0.165 HD
HETATM   36  C   UNL     1      27.270  45.456  53.993  1.00  0.00     0.096 A 
ENDBRANCH  26  27
ENDBRANCH  25  26
ENDBRANCH  24  25
ENDBRANCH   3  24
TORSDOF 9
ENDMDL
MODEL 4
REMARK VINA RESULT:      -9.2      3.633      5.341
REMARK  9 active torsions:
REMARK  status: ('A' for Active; 'I' for Inactive)
REMARK    1  A    between atoms: C_2  and  O_3 
REMARK    2  A    between atoms: O_3  and  C_4 
REMARK    3  A    between atoms: C_4  and  C_5 
REMARK    4  A    between atoms: C_10  and  C_11 
REMARK       I    between atoms: C_11  and  N_12 
REMARK    5  A    between atoms: N_12  and  C_13 
REMARK    6  A    between atoms: C_15  and  C_16 
REMARK    7  A    between atoms: C_16  and  C_17 
REMARK    8  A    between atoms: C_17  and  C_18 
REMARK    9  A    between atoms: C_18  and  C_19 
ROOT
HETATM    1  C   UNL     1      24.272  47.350  49.724  1.00  0.00     0.725 A 
HETATM    2  N   UNL     1      24.805  46.166  49.888  1.00  0.00    -0.046 NA
HETATM    3  C   UNL     1      26.150  46.386  49.782  1.00  0.00     0.165 A 
HETATM    4  N   UNL     1      26.493  47.664  49.583  1.00  0.00    -0.144 NA
HETATM    5  N   UNL     1      25.286  48.254  49.547  1.00  0.00    -0.106 N 
HETATM    6  H   UNL     1      25.232  49.253  49.403  1.00  0.00     0.208 HD
ENDROOT
BRANCH   1   7
HETATM    7  N   UNL     1      22.948  47.714  49.731  1.00  0.00    -0.152 N 
HETATM    8  C   UNL     1      22.355  48.294  48.629  1.00  0.00     0.272 C 
HETATM    9  O   UNL     1      22.927  48.652  47.607  1.00  0.00    -0.267 OA
HETATM   10  H   UNL     1      22.397  47.591  50.564  1.00  0.00     0.187 HD
BRANCH   8  11
HETATM   11  C   UNL     1      20.900  48.504  48.775  1.00  0.00     0.063 A 
HETATM   12  C   UNL     1      19.892  47.542  48.775  1.00  0.00     0.022 A 
HETATM   13  N   UNL     1      18.691  48.204  48.853  1.00  0.00    -0.354 N 
HETATM   14  C   UNL     1      19.910  46.060  48.640  1.00  0.00     0.069 C 
HETATM   15  C   UNL     1      18.870  49.567  48.806  1.00  0.00     0.115 A 
HETATM   16  H   UNL     1      17.776  47.770  48.838  1.00  0.00     0.166 HD
HETATM   17  C   UNL     1      20.242  49.790  48.851  1.00  0.00    -0.011 A 
HETATM   18  C   UNL     1      20.937  51.113  48.907  1.00  0.00     0.052 C 
BRANCH  15  19
HETATM   19  C   UNL     1      17.727  50.449  48.701  1.00  0.00     0.310 C 
HETATM   20  O   UNL     1      17.106  50.636  47.662  1.00  0.00    -0.258 OA
BRANCH  19  21
HETATM   21  O   UNL     1      17.491  51.083  49.880  1.00  0.00    -0.317 OA
BRANCH  21  22
HETATM   22  C   UNL     1      17.499  52.516  49.838  1.00  0.00     0.175 C 
HETATM   23  C   UNL     1      16.097  53.063  50.017  1.00  0.00     0.034 C 
ENDBRANCH  21  22
ENDBRANCH  19  21
ENDBRANCH  15  19
ENDBRANCH   8  11
ENDBRANCH   1   7
BRANCH   3  24
HETATM   24  C   UNL     1      27.126  45.270  49.865  1.00  0.00     0.083 C 
BRANCH  24  25
HETATM   25  C   UNL     1      26.693  44.222  50.889  1.00  0.00     0.012 C 
BRANCH  25  26
HETATM   26  C   UNL     1      26.998  44.677  52.316  1.00  0.00     0.041 C 
BRANCH  26  27
HETATM   27  C   UNL     1      28.148  43.925  52.908  1.00  0.00    -0.030 A 
HETATM   28  C   UNL     1      28.889  44.269  54.084  1.00  0.00    -0.002 A 
HETATM   29  C   UNL     1      29.879  43.299  54.253  1.00  0.00     0.042 A 
HETATM   30  C   UNL     1      28.815  45.320  55.021  1.00  0.00     0.014 A 
HETATM   31  C   UNL     1      30.795  43.326  55.312  1.00  0.00     0.030 A 
HETATM   32  N   UNL     1      29.744  42.400  53.221  1.00  0.00    -0.365 N 
HETATM   33  C   UNL     1      30.696  44.377  56.227  1.00  0.00     0.002 A 
HETATM   34  C   UNL     1      29.721  45.361  56.087  1.00  0.00     0.001 A 
HETATM   35  H   UNL     1      30.334  41.591  53.084  1.00  0.00     0.165 HD
HETATM   36  C   UNL     1      28.706  42.764  52.408  1.00  0.00     0.096 A 
ENDBRANCH  26  27
ENDBRANCH  25  26
ENDBRANCH  24  25
ENDBRANCH   3  24
TORSDOF 9
ENDMDL
MODEL 5
REMARK VINA RESULT:      -9.2      4.389     10.955
REMARK  9 active torsions:
REMARK  status: ('A' for Active; 'I' for Inactive)
REMARK    1  A    between atoms: C_2  and  O_3 
REMARK    2  A    between atoms: O_3  and  C_4 
REMARK    3  A    between atoms: C_4  and  C_5 
REMARK    4  A    between atoms: C_10  and  C_11 
REMARK       I    between atoms: C_11  and  N_12 
REMARK    5  A    between atoms: N_12  and  C_13 
REMARK    6  A    between atoms: C_15  and  C_16 
REMARK    7  A    between atoms: C_16  and  C_17 
REMARK    8  A    between atoms: C_17  and  C_18 
REMARK    9  A    between atoms: C_18  and  C_19 
ROOT
HETATM    1  C   UNL     1      25.710  48.707  49.232  1.00  0.00     0.725 A 
HETATM    2  N   UNL     1      24.517  49.244  49.181  1.00  0.00    -0.046 NA
HETATM    3  C   UNL     1      24.591  50.133  48.145  1.00  0.00     0.165 A 
HETATM    4  N   UNL     1      25.774  50.164  47.520  1.00  0.00    -0.144 NA
HETATM    5  N   UNL     1      26.465  49.254  48.229  1.00  0.00    -0.106 N 
HETATM    6  H   UNL     1      27.425  49.063  47.977  1.00  0.00     0.208 HD
ENDROOT
BRANCH   1   7
HETATM    7  N   UNL     1      26.196  47.751  50.088  1.00  0.00    -0.152 N 
HETATM    8  C   UNL     1      25.477  46.609  50.373  1.00  0.00     0.272 C 
HETATM    9  O   UNL     1      24.329  46.372  50.019  1.00  0.00    -0.267 OA
HETATM   10  H   UNL     1      27.079  47.891  50.549  1.00  0.00     0.187 HD
BRANCH   8  11
HETATM   11  C   UNL     1      26.208  45.638  51.214  1.00  0.00     0.063 A 
HETATM   12  C   UNL     1      26.721  44.397  50.841  1.00  0.00     0.022 A 
HETATM   13  N   UNL     1      27.243  43.812  51.967  1.00  0.00    -0.354 N 
HETATM   14  C   UNL     1      26.723  43.651  49.553  1.00  0.00     0.069 C 
HETATM   15  C   UNL     1      27.004  44.579  53.083  1.00  0.00     0.115 A 
HETATM   16  H   UNL     1      27.657  42.888  52.014  1.00  0.00     0.166 HD
HETATM   17  C   UNL     1      26.442  45.770  52.635  1.00  0.00    -0.011 A 
HETATM   18  C   UNL     1      26.080  46.961  53.463  1.00  0.00     0.052 C 
BRANCH  15  19
HETATM   19  C   UNL     1      27.317  44.066  54.401  1.00  0.00     0.310 C 
HETATM   20  O   UNL     1      26.486  43.571  55.153  1.00  0.00    -0.258 OA
BRANCH  19  21
HETATM   21  O   UNL     1      28.625  44.275  54.707  1.00  0.00    -0.317 OA
BRANCH  21  22
HETATM   22  C   UNL     1      29.475  43.122  54.663  1.00  0.00     0.175 C 
HETATM   23  C   UNL     1      30.690  43.320  55.548  1.00  0.00     0.034 C 
ENDBRANCH  21  22
ENDBRANCH  19  21
ENDBRANCH  15  19
ENDBRANCH   8  11
ENDBRANCH   1   7
BRANCH   3  24
HETATM   24  C   UNL     1      23.439  50.996  47.781  1.00  0.00     0.083 C 
BRANCH  24  25
HETATM   25  C   UNL     1      22.108  50.326  48.120  1.00  0.00     0.012 C 
BRANCH  25  26
HETATM   26  C   UNL     1      21.091  51.340  48.646  1.00  0.00     0.041 C 
BRANCH  26  27
HETATM   27  C   UNL     1      19.731  51.119  48.063  1.00  0.00    -0.030 A 
HETATM   28  C   UNL     1      18.484  51.595  48.580  1.00  0.00    -0.002 A 
HETATM   29  C   UNL     1      17.477  51.140  47.728  1.00  0.00     0.042 A 
HETATM   30  C   UNL     1      18.115  52.369  49.699  1.00  0.00     0.014 A 
HETATM   31  C   UNL     1      16.121  51.421  47.937  1.00  0.00     0.030 A 
HETATM   32  N   UNL     1      18.087  50.416  46.730  1.00  0.00    -0.365 N 
HETATM   33  C   UNL     1      15.784  52.193  49.052  1.00  0.00     0.002 A 
HETATM   34  C   UNL     1      16.764  52.662  49.923  1.00  0.00     0.001 A 
HETATM   35  H   UNL     1      17.600  49.960  45.972  1.00  0.00     0.165 HD
HETATM   36  C   UNL     1      19.442  50.399  46.920  1.00  0.00     0.096 A 
ENDBRANCH  26  27
ENDBRANCH  25  26
ENDBRANCH  24  25
ENDBRANCH   3  24
TORSDOF 9
ENDMDL
MODEL 6
REMARK VINA RESULT:      -9.1      1.516      2.499
REMARK  9 active torsions:
REMARK  status: ('A' for Active; 'I' for Inactive)
REMARK    1  A    between atoms: C_2  and  O_3 
REMARK    2  A    between atoms: O_3  and  C_4 
REMARK    3  A    between atoms: C_4  and  C_5 
REMARK    4  A    between atoms: C_10  and  C_11 
REMARK       I    between atoms: C_11  and  N_12 
REMARK    5  A    between atoms: N_12  and  C_13 
REMARK    6  A    between atoms: C_15  and  C_16 
REMARK    7  A    between atoms: C_16  and  C_17 
REMARK    8  A    between atoms: C_17  and  C_18 
REMARK    9  A    between atoms: C_18  and  C_19 
ROOT
HETATM    1  C   UNL     1      25.784  42.944  51.034  1.00  0.00     0.725 A 
HETATM    2  N   UNL     1      26.975  42.819  51.563  1.00  0.00    -0.046 NA
HETATM    3  C   UNL     1      27.196  41.470  51.580  1.00  0.00     0.165 A 
HETATM    4  N   UNL     1      26.206  40.736  51.061  1.00  0.00    -0.144 NA
HETATM    5  N   UNL     1      25.322  41.692  50.725  1.00  0.00    -0.106 N 
HETATM    6  H   UNL     1      24.446  41.423  50.298  1.00  0.00     0.208 HD
ENDROOT
BRANCH   1   7
HETATM    7  N   UNL     1      25.061  44.083  50.781  1.00  0.00    -0.152 N 
HETATM    8  C   UNL     1      24.746  44.464  49.494  1.00  0.00     0.272 C 
HETATM    9  O   UNL     1      25.151  43.935  48.465  1.00  0.00    -0.267 OA
HETATM   10  H   UNL     1      24.779  44.678  51.542  1.00  0.00     0.187 HD
BRANCH   8  11
HETATM   11  C   UNL     1      23.860  45.645  49.420  1.00  0.00     0.063 A 
HETATM   12  C   UNL     1      22.520  45.688  49.043  1.00  0.00     0.022 A 
HETATM   13  N   UNL     1      22.134  47.005  49.043  1.00  0.00    -0.354 N 
HETATM   14  C   UNL     1      21.558  44.638  48.610  1.00  0.00     0.069 C 
HETATM   15  C   UNL     1      23.197  47.835  49.311  1.00  0.00     0.115 A 
HETATM   16  H   UNL     1      21.220  47.352  48.778  1.00  0.00     0.166 HD
HETATM   17  C   UNL     1      24.270  47.014  49.643  1.00  0.00    -0.011 A 
HETATM   18  C   UNL     1      25.628  47.446  50.092  1.00  0.00     0.052 C 
BRANCH  15  19
HETATM   19  C   UNL     1      23.050  49.270  49.190  1.00  0.00     0.310 C 
HETATM   20  O   UNL     1      23.969  50.064  49.353  1.00  0.00    -0.258 OA
BRANCH  19  21
HETATM   21  O   UNL     1      21.756  49.608  48.946  1.00  0.00    -0.317 OA
BRANCH  21  22
HETATM   22  C   UNL     1      21.272  50.777  49.620  1.00  0.00     0.175 C 
HETATM   23  C   UNL     1      20.344  51.567  48.719  1.00  0.00     0.034 C 
ENDBRANCH  21  22
ENDBRANCH  19  21
ENDBRANCH  15  19
ENDBRANCH   8  11
ENDBRANCH   1   7
BRANCH   3  24
HETATM   24  C   UNL     1      28.438  40.897  52.156  1.00  0.00     0.083 C 
BRANCH  24  25
HETATM   25  C   UNL     1      28.764  41.517  53.515  1.00  0.00     0.012 C 
BRANCH  25  26
HETATM   26  C   UNL     1      29.984  42.435  53.430  1.00  0.00     0.041 C 
BRANCH  26  27
HETATM   27  C   UNL     1      30.043  43.390  54.581  1.00  0.00    -0.030 A 
HETATM   28  C   UNL     1      29.184  44.511  54.817  1.00  0.00    -0.002 A 
HETATM   29  C   UNL     1      29.612  45.125  55.994  1.00  0.00     0.042 A 
HETATM   30  C   UNL     1      28.081  45.065  54.135  1.00  0.00     0.014 A 
HETATM   31  C   UNL     1      28.993  46.264  56.525  1.00  0.00     0.030 A 
HETATM   32  N   UNL     1      30.689  44.407  56.457  1.00  0.00    -0.365 N 
HETATM   33  C   UNL     1      27.900  46.790  55.830  1.00  0.00     0.002 A 
HETATM   34  C   UNL     1      27.448  46.202  54.651  1.00  0.00     0.001 A 
HETATM   35  H   UNL     1      31.209  44.628  57.295  1.00  0.00     0.165 HD
HETATM   36  C   UNL     1      30.956  43.360  55.618  1.00  0.00     0.096 A 
ENDBRANCH  26  27
ENDBRANCH  25  26
ENDBRANCH  24  25
ENDBRANCH   3  24
TORSDOF 9
ENDMDL
MODEL 7
REMARK VINA RESULT:      -9.1      3.594      5.443
REMARK  9 active torsions:
REMARK  status: ('A' for Active; 'I' for Inactive)
REMARK    1  A    between atoms: C_2  and  O_3 
REMARK    2  A    between atoms: O_3  and  C_4 
REMARK    3  A    between atoms: C_4  and  C_5 
REMARK    4  A    between atoms: C_10  and  C_11 
REMARK       I    between atoms: C_11  and  N_12 
REMARK    5  A    between atoms: N_12  and  C_13 
REMARK    6  A    between atoms: C_15  and  C_16 
REMARK    7  A    between atoms: C_16  and  C_17 
REMARK    8  A    between atoms: C_17  and  C_18 
REMARK    9  A    between atoms: C_18  and  C_19 
ROOT
HETATM    1  C   UNL     1      24.276  47.063  49.727  1.00  0.00     0.725 A 
HETATM    2  N   UNL     1      24.376  45.757  49.739  1.00  0.00    -0.046 NA
HETATM    3  C   UNL     1      25.719  45.521  49.653  1.00  0.00     0.165 A 
HETATM    4  N   UNL     1      26.478  46.623  49.613  1.00  0.00    -0.144 NA
HETATM    5  N   UNL     1      25.540  47.585  49.659  1.00  0.00    -0.106 N 
HETATM    6  H   UNL     1      25.830  48.554  49.640  1.00  0.00     0.208 HD
ENDROOT
BRANCH   1   7
HETATM    7  N   UNL     1      23.152  47.848  49.788  1.00  0.00    -0.152 N 
HETATM    8  C   UNL     1      22.363  48.062  48.678  1.00  0.00     0.272 C 
HETATM    9  O   UNL     1      22.615  47.703  47.534  1.00  0.00    -0.267 OA
HETATM   10  H   UNL     1      22.908  48.310  50.648  1.00  0.00     0.187 HD
BRANCH   8  11
HETATM   11  C   UNL     1      21.131  48.828  48.959  1.00  0.00     0.063 A 
HETATM   12  C   UNL     1      19.831  48.344  49.088  1.00  0.00     0.022 A 
HETATM   13  N   UNL     1      19.004  49.425  49.263  1.00  0.00    -0.354 N 
HETATM   14  C   UNL     1      19.250  46.977  48.998  1.00  0.00     0.069 C 
HETATM   15  C   UNL     1      19.700  50.607  49.156  1.00  0.00     0.115 A 
HETATM   16  H   UNL     1      17.996  49.388  49.351  1.00  0.00     0.166 HD
HETATM   17  C   UNL     1      21.046  50.269  49.059  1.00  0.00    -0.011 A 
HETATM   18  C   UNL     1      22.207  51.209  49.004  1.00  0.00     0.052 C 
BRANCH  15  19
HETATM   19  C   UNL     1      18.992  51.870  49.135  1.00  0.00     0.310 C 
HETATM   20  O   UNL     1      19.197  52.751  48.309  1.00  0.00    -0.258 OA
BRANCH  19  21
HETATM   21  O   UNL     1      18.137  51.966  50.188  1.00  0.00    -0.317 OA
BRANCH  21  22
HETATM   22  C   UNL     1      16.878  52.598  49.923  1.00  0.00     0.175 C 
HETATM   23  C   UNL     1      15.965  51.667  49.149  1.00  0.00     0.034 C 
ENDBRANCH  21  22
ENDBRANCH  19  21
ENDBRANCH  15  19
ENDBRANCH   8  11
ENDBRANCH   1   7
BRANCH   3  24
HETATM   24  C   UNL     1      26.261  44.141  49.590  1.00  0.00     0.083 C 
BRANCH  24  25
HETATM   25  C   UNL     1      27.402  43.940  50.587  1.00  0.00     0.012 C 
BRANCH  25  26
HETATM   26  C   UNL     1      26.879  43.489  51.950  1.00  0.00     0.041 C 
BRANCH  26  27
HETATM   27  C   UNL     1      27.528  44.238  53.072  1.00  0.00    -0.030 A 
HETATM   28  C   UNL     1      27.112  45.490  53.626  1.00  0.00    -0.002 A 
HETATM   29  C   UNL     1      28.014  45.820  54.638  1.00  0.00     0.042 A 
HETATM   30  C   UNL     1      26.051  46.380  53.359  1.00  0.00     0.014 A 
HETATM   31  C   UNL     1      27.909  46.993  55.397  1.00  0.00     0.030 A 
HETATM   32  N   UNL     1      28.943  44.807  54.697  1.00  0.00    -0.365 N 
HETATM   33  C   UNL     1      26.847  47.855  55.113  1.00  0.00     0.002 A 
HETATM   34  C   UNL     1      25.929  47.556  54.109  1.00  0.00     0.001 A 
HETATM   35  H   UNL     1      29.724  44.782  55.338  1.00  0.00     0.165 HD
HETATM   36  C   UNL     1      28.659  43.850  53.763  1.00  0.00     0.096 A 
ENDBRANCH  26  27
ENDBRANCH  25  26
ENDBRANCH  24  25
ENDBRANCH   3  24
TORSDOF 9
ENDMDL
MODEL 8
REMARK VINA RESULT:      -9.0      3.480      5.211
REMARK  9 active torsions:
REMARK  status: ('A' for Active; 'I' for Inactive)
REMARK    1  A    between atoms: C_2  and  O_3 
REMARK    2  A    between atoms: O_3  and  C_4 
REMARK    3  A    between atoms: C_4  and  C_5 
REMARK    4  A    between atoms: C_10  and  C_11 
REMARK       I    between atoms: C_11  and  N_12 
REMARK    5  A    between atoms: N_12  and  C_13 
REMARK    6  A    between atoms: C_15  and  C_16 
REMARK    7  A    between atoms: C_16  and  C_17 
REMARK    8  A    between atoms: C_17  and  C_18 
REMARK    9  A    between atoms: C_18  and  C_19 
ROOT
HETATM    1  C   UNL     1      23.951  46.900  50.007  1.00  0.00     0.725 A 
HETATM    2  N   UNL     1      25.113  46.907  50.609  1.00  0.00    -0.046 NA
HETATM    3  C   UNL     1      25.521  45.603  50.568  1.00  0.00     0.165 A 
HETATM    4  N   UNL     1      24.678  44.774  49.942  1.00  0.00    -0.144 NA
HETATM    5  N   UNL     1      23.690  45.619  49.599  1.00  0.00    -0.106 N 
HETATM    6  H   UNL     1      22.888  45.260  49.099  1.00  0.00     0.208 HD
ENDROOT
BRANCH   1   7
HETATM    7  N   UNL     1      23.091  47.943  49.768  1.00  0.00    -0.152 N 
HETATM    8  C   UNL     1      22.347  48.011  48.609  1.00  0.00     0.272 C 
HETATM    9  O   UNL     1      22.442  47.260  47.646  1.00  0.00    -0.267 OA
HETATM   10  H   UNL     1      23.020  48.697  50.430  1.00  0.00     0.187 HD
BRANCH   8  11
HETATM   11  C   UNL     1      21.388  49.135  48.580  1.00  0.00     0.063 A 
HETATM   12  C   UNL     1      21.667  50.497  48.491  1.00  0.00     0.022 A 
HETATM   13  N   UNL     1      20.474  51.169  48.582  1.00  0.00    -0.354 N 
HETATM   14  C   UNL     1      22.940  51.263  48.399  1.00  0.00     0.069 C 
HETATM   15  C   UNL     1      19.432  50.303  48.824  1.00  0.00     0.115 A 
HETATM   16  H   UNL     1      20.362  52.175  48.582  1.00  0.00     0.166 HD
HETATM   17  C   UNL     1      19.955  49.017  48.735  1.00  0.00    -0.011 A 
HETATM   18  C   UNL     1      19.200  47.731  48.841  1.00  0.00     0.052 C 
BRANCH  15  19
HETATM   19  C   UNL     1      18.113  50.817  49.126  1.00  0.00     0.310 C 
HETATM   20  O   UNL     1      17.736  51.102  50.256  1.00  0.00    -0.258 OA
BRANCH  19  21
HETATM   21  O   UNL     1      17.343  50.868  48.007  1.00  0.00    -0.317 OA
BRANCH  21  22
HETATM   22  C   UNL     1      15.953  50.563  48.184  1.00  0.00     0.175 C 
HETATM   23  C   UNL     1      15.721  49.067  48.120  1.00  0.00     0.034 C 
ENDBRANCH  21  22
ENDBRANCH  19  21
ENDBRANCH  15  19
ENDBRANCH   8  11
ENDBRANCH   1   7
BRANCH   3  24
HETATM   24  C   UNL     1      26.795  45.169  51.196  1.00  0.00     0.083 C 
BRANCH  24  25
HETATM   25  C   UNL     1      26.567  44.622  52.605  1.00  0.00     0.012 C 
BRANCH  25  26
HETATM   26  C   UNL     1      27.395  45.384  53.640  1.00  0.00     0.041 C 
BRANCH  26  27
HETATM   27  C   UNL     1      28.551  44.574  54.135  1.00  0.00    -0.030 A 
HETATM   28  C   UNL     1      29.285  44.772  55.348  1.00  0.00    -0.002 A 
HETATM   29  C   UNL     1      30.284  43.798  55.396  1.00  0.00     0.042 A 
HETATM   30  C   UNL     1      29.197  45.694  56.412  1.00  0.00     0.014 A 
HETATM   31  C   UNL     1      31.197  43.698  56.454  1.00  0.00     0.030 A 
HETATM   32  N   UNL     1      30.162  43.037  54.257  1.00  0.00    -0.365 N 
HETATM   33  C   UNL     1      31.085  44.623  57.496  1.00  0.00     0.002 A 
HETATM   34  C   UNL     1      30.100  45.608  57.478  1.00  0.00     0.001 A 
HETATM   35  H   UNL     1      30.760  42.259  54.020  1.00  0.00     0.165 HD
HETATM   36  C   UNL     1      29.122  43.493  53.493  1.00  0.00     0.096 A 
ENDBRANCH  26  27
ENDBRANCH  25  26
ENDBRANCH  24  25
ENDBRANCH   3  24
TORSDOF 9
ENDMDL
MODEL 9
REMARK VINA RESULT:      -8.8      3.656      5.551
REMARK  9 active torsions:
REMARK  status: ('A' for Active; 'I' for Inactive)
REMARK    1  A    between atoms: C_2  and  O_3 
REMARK    2  A    between atoms: O_3  and  C_4 
REMARK    3  A    between atoms: C_4  and  C_5 
REMARK    4  A    between atoms: C_10  and  C_11 
REMARK       I    between atoms: C_11  and  N_12 
REMARK    5  A    between atoms: N_12  and  C_13 
REMARK    6  A    between atoms: C_15  and  C_16 
REMARK    7  A    between atoms: C_16  and  C_17 
REMARK    8  A    between atoms: C_17  and  C_18 
REMARK    9  A    between atoms: C_18  and  C_19 
ROOT
HETATM    1  C   UNL     1      23.815  48.016  49.731  1.00  0.00     0.725 A 
HETATM    2  N   UNL     1      24.280  47.059  50.492  1.00  0.00    -0.046 NA
HETATM    3  C   UNL     1      25.639  47.188  50.403  1.00  0.00     0.165 A 
HETATM    4  N   UNL     1      26.053  48.204  49.637  1.00  0.00    -0.144 NA
HETATM    5  N   UNL     1      24.880  48.711  49.221  1.00  0.00    -0.106 N 
HETATM    6  H   UNL     1      24.882  49.514  48.606  1.00  0.00     0.208 HD
ENDROOT
BRANCH   1   7
HETATM    7  N   UNL     1      22.512  48.348  49.452  1.00  0.00    -0.152 N 
HETATM    8  C   UNL     1      22.138  48.815  48.209  1.00  0.00     0.272 C 
HETATM    9  O   UNL     1      22.894  49.096  47.287  1.00  0.00    -0.267 OA
HETATM   10  H   UNL     1      21.813  48.284  50.172  1.00  0.00     0.187 HD
BRANCH   8  11
HETATM   11  C   UNL     1      20.681  49.002  48.055  1.00  0.00     0.063 A 
HETATM   12  C   UNL     1      19.725  48.043  47.728  1.00  0.00     0.022 A 
HETATM   13  N   UNL     1      18.518  48.687  47.614  1.00  0.00    -0.354 N 
HETATM   14  C   UNL     1      19.813  46.586  47.439  1.00  0.00     0.069 C 
HETATM   15  C   UNL     1      18.664  50.047  47.758  1.00  0.00     0.115 A 
HETATM   16  H   UNL     1      17.640  48.254  47.352  1.00  0.00     0.166 HD
HETATM   17  C   UNL     1      19.987  50.269  48.127  1.00  0.00    -0.011 A 
HETATM   18  C   UNL     1      20.615  51.579  48.478  1.00  0.00     0.052 C 
BRANCH  15  19
HETATM   19  C   UNL     1      17.546  50.931  47.502  1.00  0.00     0.310 C 
HETATM   20  O   UNL     1      17.094  51.712  48.330  1.00  0.00    -0.258 OA
BRANCH  19  21
HETATM   21  O   UNL     1      17.033  50.722  46.261  1.00  0.00    -0.317 OA
BRANCH  21  22
HETATM   22  C   UNL     1      17.465  51.630  45.239  1.00  0.00     0.175 C 
HETATM   23  C   UNL     1      18.374  50.928  44.250  1.00  0.00     0.034 C 
ENDBRANCH  21  22
ENDBRANCH  19  21
ENDBRANCH  15  19
ENDBRANCH   8  11
ENDBRANCH   1   7
BRANCH   3  24
HETATM   24  C   UNL     1      26.553  46.247  51.096  1.00  0.00     0.083 C 
BRANCH  24  25
HETATM   25  C   UNL     1      25.923  45.689  52.371  1.00  0.00     0.012 C 
BRANCH  25  26
HETATM   26  C   UNL     1      26.830  44.653  53.036  1.00  0.00     0.041 C 
BRANCH  26  27
HETATM   27  C   UNL     1      27.658  45.255  54.127  1.00  0.00    -0.030 A 
HETATM   28  C   UNL     1      28.830  44.695  54.729  1.00  0.00    -0.002 A 
HETATM   29  C   UNL     1      29.263  45.588  55.710  1.00  0.00     0.042 A 
HETATM   30  C   UNL     1      29.562  43.506  54.536  1.00  0.00     0.014 A 
HETATM   31  C   UNL     1      30.393  45.353  56.505  1.00  0.00     0.030 A 
HETATM   32  N   UNL     1      28.390  46.651  55.704  1.00  0.00    -0.365 N 
HETATM   33  C   UNL     1      31.101  44.169  56.289  1.00  0.00     0.002 A 
HETATM   34  C   UNL     1      30.695  43.255  55.319  1.00  0.00     0.001 A 
HETATM   35  H   UNL     1      28.455  47.450  56.319  1.00  0.00     0.165 HD
HETATM   36  C   UNL     1      27.423  46.463  54.755  1.00  0.00     0.096 A 
ENDBRANCH  26  27
ENDBRANCH  25  26
ENDBRANCH  24  25
ENDBRANCH   3  24
TORSDOF 9
ENDMDL
MODEL 10
REMARK VINA RESULT:      -8.7      3.650      5.572
REMARK  9 active torsions:
REMARK  status: ('A' for Active; 'I' for Inactive)
REMARK    1  A    between atoms: C_2  and  O_3 
REMARK    2  A    between atoms: O_3  and  C_4 
REMARK    3  A    between atoms: C_4  and  C_5 
REMARK    4  A    between atoms: C_10  and  C_11 
REMARK       I    between atoms: C_11  and  N_12 
REMARK    5  A    between atoms: N_12  and  C_13 
REMARK    6  A    between atoms: C_15  and  C_16 
REMARK    7  A    between atoms: C_16  and  C_17 
REMARK    8  A    between atoms: C_17  and  C_18 
REMARK    9  A    between atoms: C_18  and  C_19 
ROOT
HETATM    1  C   UNL     1      24.164  47.184  49.683  1.00  0.00     0.725 A 
HETATM    2  N   UNL     1      24.646  45.968  49.747  1.00  0.00    -0.046 NA
HETATM    3  C   UNL     1      26.000  46.145  49.807  1.00  0.00     0.165 A 
HETATM    4  N   UNL     1      26.395  47.424  49.811  1.00  0.00    -0.144 NA
HETATM    5  N   UNL     1      25.215  48.061  49.729  1.00  0.00    -0.106 N 
HETATM    6  H   UNL     1      25.202  49.072  49.711  1.00  0.00     0.208 HD
ENDROOT
BRANCH   1   7
HETATM    7  N   UNL     1      22.857  47.596  49.603  1.00  0.00    -0.152 N 
HETATM    8  C   UNL     1      22.416  48.394  48.568  1.00  0.00     0.272 C 
HETATM    9  O   UNL     1      23.118  48.909  47.705  1.00  0.00    -0.267 OA
HETATM   10  H   UNL     1      22.205  47.345  50.327  1.00  0.00     0.187 HD
BRANCH   8  11
HETATM   11  C   UNL     1      20.959  48.635  48.578  1.00  0.00     0.063 A 
HETATM   12  C   UNL     1      20.268  49.686  49.177  1.00  0.00     0.022 A 
HETATM   13  N   UNL     1      18.928  49.453  48.999  1.00  0.00    -0.354 N 
HETATM   14  C   UNL     1      20.713  50.866  49.968  1.00  0.00     0.069 C 
HETATM   15  C   UNL     1      18.710  48.239  48.391  1.00  0.00     0.115 A 
HETATM   16  H   UNL     1      18.176  50.030  49.357  1.00  0.00     0.166 HD
HETATM   17  C   UNL     1      19.959  47.745  48.029  1.00  0.00    -0.011 A 
HETATM   18  C   UNL     1      20.244  46.491  47.267  1.00  0.00     0.052 C 
BRANCH  15  19
HETATM   19  C   UNL     1      17.365  47.718  48.264  1.00  0.00     0.310 C 
HETATM   20  O   UNL     1      16.738  47.220  49.191  1.00  0.00    -0.258 OA
BRANCH  19  21
HETATM   21  O   UNL     1      16.934  47.792  46.977  1.00  0.00    -0.317 OA
BRANCH  21  22
HETATM   22  C   UNL     1      16.576  49.097  46.505  1.00  0.00     0.175 C 
HETATM   23  C   UNL     1      15.292  49.569  47.158  1.00  0.00     0.034 C 
ENDBRANCH  21  22
ENDBRANCH  19  21
ENDBRANCH  15  19
ENDBRANCH   8  11
ENDBRANCH   1   7
BRANCH   3  24
HETATM   24  C   UNL     1      26.931  44.991  49.843  1.00  0.00     0.083 C 
BRANCH  24  25
HETATM   25  C   UNL     1      26.634  44.068  51.025  1.00  0.00     0.012 C 
BRANCH  25  26
HETATM   26  C   UNL     1      27.078  44.693  52.347  1.00  0.00     0.041 C 
BRANCH  26  27
HETATM   27  C   UNL     1      28.253  43.976  52.936  1.00  0.00    -0.030 A 
HETATM   28  C   UNL     1      28.946  44.306  54.144  1.00  0.00    -0.002 A 
HETATM   29  C   UNL     1      29.981  43.383  54.298  1.00  0.00     0.042 A 
HETATM   30  C   UNL     1      28.794  45.310  55.123  1.00  0.00     0.014 A 
HETATM   31  C   UNL     1      30.870  43.411  55.380  1.00  0.00     0.030 A 
HETATM   32  N   UNL     1      29.920  42.524  53.225  1.00  0.00    -0.365 N 
HETATM   33  C   UNL     1      30.694  44.414  56.337  1.00  0.00     0.002 A 
HETATM   34  C   UNL     1      29.671  45.352  56.213  1.00  0.00     0.001 A 
HETATM   35  H   UNL     1      30.554  41.754  53.070  1.00  0.00     0.165 HD
HETATM   36  C   UNL     1      28.883  42.869  52.402  1.00  0.00     0.096 A 
ENDBRANCH  26  27
ENDBRANCH  25  26
ENDBRANCH  24  25
ENDBRANCH   3  24
TORSDOF 9
ENDMDL
