MODEL 1
REMARK VINA RESULT:      -9.3      0.000      0.000
REMARK  5 active torsions:
REMARK  status: ('A' for Active; 'I' for Inactive)
REMARK    1  A    between atoms: C_4  and  N_5 
REMARK    2  A    between atoms: N_5  and  C_6 
REMARK    3  A    between atoms: C_6  and  C_7 
REMARK       I    between atoms: C_7  and  N_8 
REMARK    4  A    between atoms: N_8  and  N_9 
REMARK    5  A    between atoms: C_10  and  C_11 
ROOT
HETATM    1  C   UNL     1      26.265  46.633  53.917  1.00  0.00     0.250 C 
HETATM    2  N   UNL     1      26.399  46.587  52.531  1.00  0.00    -0.246 N 
HETATM    3  O   UNL     1      25.752  47.537  54.572  1.00  0.00    -0.270 OA
HETATM    4  H   UNL     1      26.582  45.672  52.123  1.00  0.00     0.192 HD
ENDROOT
BRANCH   2   5
HETATM    5  N   UNL     1      25.946  47.519  51.628  1.00  0.00    -0.184 NA
HETATM    6  C   UNL     1      26.363  47.473  50.403  1.00  0.00     0.152 C 
BRANCH   6   7
HETATM    7  C   UNL     1      25.913  48.478  49.459  1.00  0.00     0.011 A 
HETATM    8  C   UNL     1      24.555  48.799  49.128  1.00  0.00     0.004 A 
HETATM    9  C   UNL     1      24.586  49.825  48.183  1.00  0.00     0.043 A 
HETATM   10  C   UNL     1      23.299  48.303  49.538  1.00  0.00     0.014 A 
HETATM   11  C   UNL     1      23.427  50.382  47.631  1.00  0.00     0.030 A 
HETATM   12  N   UNL     1      25.909  50.119  47.948  1.00  0.00    -0.364 N 
HETATM   13  C   UNL     1      22.196  49.872  48.053  1.00  0.00     0.002 A 
HETATM   14  C   UNL     1      22.130  48.847  48.993  1.00  0.00     0.001 A 
HETATM   15  H   UNL     1      26.233  50.826  47.303  1.00  0.00     0.165 HD
HETATM   16  C   UNL     1      26.716  49.312  48.704  1.00  0.00     0.102 A 
ENDBRANCH   6   7
ENDBRANCH   2   5
BRANCH   1  17
HETATM   17  C   UNL     1      26.836  45.382  54.589  1.00  0.00     0.197 C 
BRANCH  17  18
HETATM   18  N   UNL     1      28.293  45.326  54.390  1.00  0.00    -0.284 NA
HETATM   19  H   UNL     1      28.545  44.551  53.774  1.00  0.00     0.128 HD
BRANCH  18  20
HETATM   20  C   UNL     1      29.088  45.284  55.552  1.00  0.00     0.009 A 
HETATM   21  C   UNL     1      30.133  44.367  55.737  1.00  0.00     0.030 A 
HETATM   22  C   UNL     1      30.863  44.319  56.937  1.00  0.00    -0.060 A 
HETATM   23  C   UNL     1      32.012  43.367  57.093  1.00  0.00     0.048 C 
HETATM   24  C   UNL     1      30.534  45.197  57.972  1.00  0.00     0.007 A 
HETATM   25  C   UNL     1      29.466  46.078  57.826  1.00  0.00     0.002 A 
HETATM   26  C   UNL     1      28.739  46.104  56.633  1.00  0.00     0.023 A 
ENDBRANCH  18  20
ENDBRANCH  17  18
ENDBRANCH   1  17
TORSDOF 5
ENDMDL
MODEL 2
REMARK VINA RESULT:      -9.3      0.592      1.406
REMARK  5 active torsions:
REMARK  status: ('A' for Active; 'I' for Inactive)
REMARK    1  A    between atoms: C_4  and  N_5 
REMARK    2  A    between atoms: N_5  and  C_6 
REMARK    3  A    between atoms: C_6  and  C_7 
REMARK       I    between atoms: C_7  and  N_8 
REMARK    4  A    between atoms: N_8  and  N_9 
REMARK    5  A    between atoms: C_10  and  C_11 
ROOT
HETATM    1  C   UNL     1      26.216  46.407  53.827  1.00  0.00     0.250 C 
HETATM    2  N   UNL     1      26.423  46.461  52.451  1.00  0.00    -0.246 N 
HETATM    3  O   UNL     1      25.694  47.275  54.523  1.00  0.00    -0.270 OA
HETATM    4  H   UNL     1      26.601  45.574  51.983  1.00  0.00     0.192 HD
ENDROOT
BRANCH   2   5
HETATM    5  N   UNL     1      26.044  47.472  51.600  1.00  0.00    -0.184 NA
HETATM    6  C   UNL     1      26.199  47.321  50.324  1.00  0.00     0.152 C 
BRANCH   6   7
HETATM    7  C   UNL     1      25.834  48.403  49.429  1.00  0.00     0.011 A 
HETATM    8  C   UNL     1      24.507  48.812  49.073  1.00  0.00     0.004 A 
HETATM    9  C   UNL     1      24.622  49.889  48.194  1.00  0.00     0.043 A 
HETATM   10  C   UNL     1      23.214  48.358  49.410  1.00  0.00     0.014 A 
HETATM   11  C   UNL     1      23.512  50.537  47.639  1.00  0.00     0.030 A 
HETATM   12  N   UNL     1      25.966  50.128  48.021  1.00  0.00    -0.364 N 
HETATM   13  C   UNL     1      22.244  50.067  47.988  1.00  0.00     0.002 A 
HETATM   14  C   UNL     1      22.093  48.992  48.861  1.00  0.00     0.001 A 
HETATM   15  H   UNL     1      26.348  50.854  47.432  1.00  0.00     0.165 HD
HETATM   16  C   UNL     1      26.704  49.237  48.752  1.00  0.00     0.102 A 
ENDBRANCH   6   7
ENDBRANCH   2   5
BRANCH   1  17
HETATM   17  C   UNL     1      26.716  45.091  54.430  1.00  0.00     0.197 C 
BRANCH  17  18
HETATM   18  N   UNL     1      28.076  44.804  53.950  1.00  0.00    -0.284 NA
HETATM   19  H   UNL     1      28.068  44.035  53.277  1.00  0.00     0.128 HD
BRANCH  18  20
HETATM   20  C   UNL     1      29.055  44.561  54.933  1.00  0.00     0.009 A 
HETATM   21  C   UNL     1      29.304  45.433  56.002  1.00  0.00     0.030 A 
HETATM   22  C   UNL     1      30.332  45.184  56.927  1.00  0.00    -0.060 A 
HETATM   23  C   UNL     1      30.547  46.101  58.095  1.00  0.00     0.048 C 
HETATM   24  C   UNL     1      31.129  44.047  56.773  1.00  0.00     0.007 A 
HETATM   25  C   UNL     1      30.930  43.198  55.688  1.00  0.00     0.002 A 
HETATM   26  C   UNL     1      29.915  43.467  54.767  1.00  0.00     0.023 A 
ENDBRANCH  18  20
ENDBRANCH  17  18
ENDBRANCH   1  17
TORSDOF 5
ENDMDL
MODEL 3
REMARK VINA RESULT:      -8.7      1.956      9.977
REMARK  5 active torsions:
REMARK  status: ('A' for Active; 'I' for Inactive)
REMARK    1  A    between atoms: C_4  and  N_5 
REMARK    2  A    between atoms: N_5  and  C_6 
REMARK    3  A    between atoms: C_6  and  C_7 
REMARK       I    between atoms: C_7  and  N_8 
REMARK    4  A    between atoms: N_8  and  N_9 
REMARK    5  A    between atoms: C_10  and  C_11 
ROOT
HETATM    1  C   UNL     1      25.552  47.592  50.341  1.00  0.00     0.250 C 
HETATM    2  N   UNL     1      25.464  47.186  51.671  1.00  0.00    -0.246 N 
HETATM    3  O   UNL     1      26.575  47.909  49.740  1.00  0.00    -0.270 OA
HETATM    4  H   UNL     1      24.613  46.695  51.941  1.00  0.00     0.192 HD
ENDROOT
BRANCH   2   5
HETATM    5  N   UNL     1      26.506  47.019  52.552  1.00  0.00    -0.184 NA
HETATM    6  C   UNL     1      26.387  46.173  53.524  1.00  0.00     0.152 C 
BRANCH   6   7
HETATM    7  C   UNL     1      27.472  46.024  54.476  1.00  0.00     0.011 A 
HETATM    8  C   UNL     1      28.465  44.990  54.491  1.00  0.00     0.004 A 
HETATM    9  C   UNL     1      29.312  45.237  55.572  1.00  0.00     0.043 A 
HETATM   10  C   UNL     1      28.717  43.856  53.688  1.00  0.00     0.014 A 
HETATM   11  C   UNL     1      30.398  44.413  55.889  1.00  0.00     0.030 A 
HETATM   12  N   UNL     1      28.854  46.377  56.191  1.00  0.00    -0.364 N 
HETATM   13  C   UNL     1      30.624  43.297  55.079  1.00  0.00     0.002 A 
HETATM   14  C   UNL     1      29.797  43.019  53.993  1.00  0.00     0.001 A 
HETATM   15  H   UNL     1      29.275  46.794  57.009  1.00  0.00     0.165 HD
HETATM   16  C   UNL     1      27.746  46.855  55.546  1.00  0.00     0.102 A 
ENDBRANCH   6   7
ENDBRANCH   2   5
BRANCH   1  17
HETATM   17  C   UNL     1      24.184  47.598  49.653  1.00  0.00     0.197 C 
BRANCH  17  18
HETATM   18  N   UNL     1      23.456  48.829  49.997  1.00  0.00    -0.284 NA
HETATM   19  H   UNL     1      23.161  48.815  50.974  1.00  0.00     0.128 HD
BRANCH  18  20
HETATM   20  C   UNL     1      22.360  49.164  49.177  1.00  0.00     0.009 A 
HETATM   21  C   UNL     1      21.678  50.386  49.267  1.00  0.00     0.030 A 
HETATM   22  C   UNL     1      20.551  50.656  48.472  1.00  0.00    -0.060 A 
HETATM   23  C   UNL     1      19.867  51.990  48.545  1.00  0.00     0.048 C 
HETATM   24  C   UNL     1      20.095  49.683  47.579  1.00  0.00     0.007 A 
HETATM   25  C   UNL     1      20.729  48.445  47.514  1.00  0.00     0.002 A 
HETATM   26  C   UNL     1      21.839  48.185  48.322  1.00  0.00     0.023 A 
ENDBRANCH  18  20
ENDBRANCH  17  18
ENDBRANCH   1  17
TORSDOF 5
ENDMDL
MODEL 4
REMARK VINA RESULT:      -8.7      1.957      2.586
REMARK  5 active torsions:
REMARK  status: ('A' for Active; 'I' for Inactive)
REMARK    1  A    between atoms: C_4  and  N_5 
REMARK    2  A    between atoms: N_5  and  C_6 
REMARK    3  A    between atoms: C_6  and  C_7 
REMARK       I    between atoms: C_7  and  N_8 
REMARK    4  A    between atoms: N_8  and  N_9 
REMARK    5  A    between atoms: C_10  and  C_11 
ROOT
HETATM    1  C   UNL     1      25.920  44.191  51.355  1.00  0.00     0.250 C 
HETATM    2  N   UNL     1      26.722  44.857  50.432  1.00  0.00    -0.246 N 
HETATM    3  O   UNL     1      24.775  44.495  51.681  1.00  0.00    -0.270 OA
HETATM    4  H   UNL     1      27.518  44.338  50.063  1.00  0.00     0.192 HD
ENDROOT
BRANCH   2   5
HETATM    5  N   UNL     1      26.376  45.953  49.677  1.00  0.00    -0.184 NA
HETATM    6  C   UNL     1      26.552  47.140  50.162  1.00  0.00     0.152 C 
BRANCH   6   7
HETATM    7  C   UNL     1      26.152  48.295  49.380  1.00  0.00     0.011 A 
HETATM    8  C   UNL     1      24.812  48.738  49.126  1.00  0.00     0.004 A 
HETATM    9  C   UNL     1      24.893  49.886  48.336  1.00  0.00     0.043 A 
HETATM   10  C   UNL     1      23.533  48.261  49.486  1.00  0.00     0.014 A 
HETATM   11  C   UNL     1      23.762  50.582  47.893  1.00  0.00     0.030 A 
HETATM   12  N   UNL     1      26.228  50.133  48.118  1.00  0.00    -0.364 N 
HETATM   13  C   UNL     1      22.509  50.088  48.264  1.00  0.00     0.002 A 
HETATM   14  C   UNL     1      22.392  48.944  49.049  1.00  0.00     0.001 A 
HETATM   15  H   UNL     1      26.586  50.906  47.575  1.00  0.00     0.165 HD
HETATM   16  C   UNL     1      26.994  49.181  48.735  1.00  0.00     0.102 A 
ENDBRANCH   6   7
ENDBRANCH   2   5
BRANCH   1  17
HETATM   17  C   UNL     1      26.625  42.971  51.953  1.00  0.00     0.197 C 
BRANCH  17  18
HETATM   18  N   UNL     1      26.578  43.035  53.422  1.00  0.00    -0.284 NA
HETATM   19  H   UNL     1      25.833  43.660  53.733  1.00  0.00     0.128 HD
BRANCH  18  20
HETATM   20  C   UNL     1      27.779  43.367  54.078  1.00  0.00     0.009 A 
HETATM   21  C   UNL     1      27.955  44.551  54.808  1.00  0.00     0.030 A 
HETATM   22  C   UNL     1      29.190  44.874  55.397  1.00  0.00    -0.060 A 
HETATM   23  C   UNL     1      29.342  46.119  56.219  1.00  0.00     0.048 C 
HETATM   24  C   UNL     1      30.268  43.998  55.245  1.00  0.00     0.007 A 
HETATM   25  C   UNL     1      30.127  42.843  54.481  1.00  0.00     0.002 A 
HETATM   26  C   UNL     1      28.897  42.544  53.888  1.00  0.00     0.023 A 
ENDBRANCH  18  20
ENDBRANCH  17  18
ENDBRANCH   1  17
TORSDOF 5
ENDMDL
MODEL 5
REMARK VINA RESULT:      -8.6      2.158      9.701
REMARK  5 active torsions:
REMARK  status: ('A' for Active; 'I' for Inactive)
REMARK    1  A    between atoms: C_4  and  N_5 
REMARK    2  A    between atoms: N_5  and  C_6 
REMARK    3  A    between atoms: C_6  and  C_7 
REMARK       I    between atoms: C_7  and  N_8 
REMARK    4  A    between atoms: N_8  and  N_9 
REMARK    5  A    between atoms: C_10  and  C_11 
ROOT
HETATM    1  C   UNL     1      25.593  46.137  49.980  1.00  0.00     0.250 C 
HETATM    2  N   UNL     1      25.595  45.278  51.076  1.00  0.00    -0.246 N 
HETATM    3  O   UNL     1      26.577  46.528  49.356  1.00  0.00    -0.270 OA
HETATM    4  H   UNL     1      24.708  44.829  51.303  1.00  0.00     0.192 HD
ENDROOT
BRANCH   2   5
HETATM    5  N   UNL     1      26.688  44.667  51.643  1.00  0.00    -0.184 NA
HETATM    6  C   UNL     1      26.553  44.036  52.765  1.00  0.00     0.152 C 
BRANCH   6   7
HETATM    7  C   UNL     1      27.714  43.423  53.382  1.00  0.00     0.011 A 
HETATM    8  C   UNL     1      28.607  44.031  54.325  1.00  0.00     0.004 A 
HETATM    9  C   UNL     1      29.576  43.083  54.656  1.00  0.00     0.043 A 
HETATM   10  C   UNL     1      28.688  45.308  54.920  1.00  0.00     0.014 A 
HETATM   11  C   UNL     1      30.617  43.345  55.554  1.00  0.00     0.030 A 
HETATM   12  N   UNL     1      29.285  41.942  53.945  1.00  0.00    -0.364 N 
HETATM   13  C   UNL     1      30.674  44.617  56.129  1.00  0.00     0.002 A 
HETATM   14  C   UNL     1      29.725  45.588  55.819  1.00  0.00     0.001 A 
HETATM   15  H   UNL     1      29.823  41.088  53.987  1.00  0.00     0.165 HD
HETATM   16  C   UNL     1      28.173  42.136  53.171  1.00  0.00     0.102 A 
ENDBRANCH   6   7
ENDBRANCH   2   5
BRANCH   1  17
HETATM   17  C   UNL     1      24.177  46.568  49.592  1.00  0.00     0.197 C 
BRANCH  17  18
HETATM   18  N   UNL     1      23.815  47.802  50.306  1.00  0.00    -0.284 NA
HETATM   19  H   UNL     1      23.031  47.637  50.940  1.00  0.00     0.128 HD
BRANCH  18  20
HETATM   20  C   UNL     1      23.550  48.936  49.513  1.00  0.00     0.009 A 
HETATM   21  C   UNL     1      22.298  49.565  49.465  1.00  0.00     0.030 A 
HETATM   22  C   UNL     1      22.058  50.658  48.613  1.00  0.00    -0.060 A 
HETATM   23  C   UNL     1      20.728  51.351  48.616  1.00  0.00     0.048 C 
HETATM   24  C   UNL     1      23.088  51.121  47.791  1.00  0.00     0.007 A 
HETATM   25  C   UNL     1      24.322  50.476  47.788  1.00  0.00     0.002 A 
HETATM   26  C   UNL     1      24.540  49.381  48.628  1.00  0.00     0.023 A 
ENDBRANCH  18  20
ENDBRANCH  17  18
ENDBRANCH   1  17
TORSDOF 5
ENDMDL
MODEL 6
REMARK VINA RESULT:      -8.6      2.120      3.157
REMARK  5 active torsions:
REMARK  status: ('A' for Active; 'I' for Inactive)
REMARK    1  A    between atoms: C_4  and  N_5 
REMARK    2  A    between atoms: N_5  and  C_6 
REMARK    3  A    between atoms: C_6  and  C_7 
REMARK       I    between atoms: C_7  and  N_8 
REMARK    4  A    between atoms: N_8  and  N_9 
REMARK    5  A    between atoms: C_10  and  C_11 
ROOT
HETATM    1  C   UNL     1      25.672  46.712  52.136  1.00  0.00     0.250 C 
HETATM    2  N   UNL     1      25.125  46.972  50.882  1.00  0.00    -0.246 N 
HETATM    3  O   UNL     1      25.758  47.502  53.073  1.00  0.00    -0.270 OA
HETATM    4  H   UNL     1      24.871  46.160  50.320  1.00  0.00     0.192 HD
ENDROOT
BRANCH   2   5
HETATM    5  N   UNL     1      24.539  48.143  50.464  1.00  0.00    -0.184 NA
HETATM    6  C   UNL     1      23.585  48.100  49.591  1.00  0.00     0.152 C 
BRANCH   6   7
HETATM    7  C   UNL     1      22.991  49.338  49.122  1.00  0.00     0.011 A 
HETATM    8  C   UNL     1      21.595  49.664  49.095  1.00  0.00     0.004 A 
HETATM    9  C   UNL     1      21.477  50.954  48.574  1.00  0.00     0.043 A 
HETATM   10  C   UNL     1      20.417  48.977  49.455  1.00  0.00     0.014 A 
HETATM   11  C   UNL     1      20.242  51.590  48.400  1.00  0.00     0.030 A 
HETATM   12  N   UNL     1      22.749  51.396  48.296  1.00  0.00    -0.364 N 
HETATM   13  C   UNL     1      19.091  50.887  48.764  1.00  0.00     0.002 A 
HETATM   14  C   UNL     1      19.173  49.597  49.284  1.00  0.00     0.001 A 
HETATM   15  H   UNL     1      22.969  52.302  47.906  1.00  0.00     0.165 HD
HETATM   16  C   UNL     1      23.667  50.432  48.615  1.00  0.00     0.102 A 
ENDBRANCH   6   7
ENDBRANCH   2   5
BRANCH   1  17
HETATM   17  C   UNL     1      26.174  45.271  52.255  1.00  0.00     0.197 C 
BRANCH  17  18
HETATM   18  N   UNL     1      26.735  45.045  53.597  1.00  0.00    -0.284 NA
HETATM   19  H   UNL     1      26.864  45.930  54.089  1.00  0.00     0.128 HD
BRANCH  18  20
HETATM   20  C   UNL     1      27.922  44.289  53.666  1.00  0.00     0.009 A 
HETATM   21  C   UNL     1      28.795  44.327  54.761  1.00  0.00     0.030 A 
HETATM   22  C   UNL     1      30.000  43.604  54.764  1.00  0.00    -0.060 A 
HETATM   23  C   UNL     1      30.895  43.615  55.968  1.00  0.00     0.048 C 
HETATM   24  C   UNL     1      30.339  42.837  53.647  1.00  0.00     0.007 A 
HETATM   25  C   UNL     1      29.509  42.828  52.529  1.00  0.00     0.002 A 
HETATM   26  C   UNL     1      28.322  43.565  52.535  1.00  0.00     0.023 A 
ENDBRANCH  18  20
ENDBRANCH  17  18
ENDBRANCH   1  17
TORSDOF 5
ENDMDL
MODEL 7
REMARK VINA RESULT:      -8.5      5.456      9.341
REMARK  5 active torsions:
REMARK  status: ('A' for Active; 'I' for Inactive)
REMARK    1  A    between atoms: C_4  and  N_5 
REMARK    2  A    between atoms: N_5  and  C_6 
REMARK    3  A    between atoms: C_6  and  C_7 
REMARK       I    between atoms: C_7  and  N_8 
REMARK    4  A    between atoms: N_8  and  N_9 
REMARK    5  A    between atoms: C_10  and  C_11 
ROOT
HETATM    1  C   UNL     1      26.887  43.644  50.074  1.00  0.00     0.250 C 
HETATM    2  N   UNL     1      26.858  43.360  51.437  1.00  0.00    -0.246 N 
HETATM    3  O   UNL     1      27.268  44.690  49.553  1.00  0.00    -0.270 OA
HETATM    4  H   UNL     1      26.788  42.376  51.694  1.00  0.00     0.192 HD
ENDROOT
BRANCH   2   5
HETATM    5  N   UNL     1      27.290  44.172  52.458  1.00  0.00    -0.184 NA
HETATM    6  C   UNL     1      28.196  43.739  53.275  1.00  0.00     0.152 C 
BRANCH   6   7
HETATM    7  C   UNL     1      28.625  44.582  54.375  1.00  0.00     0.011 A 
HETATM    8  C   UNL     1      29.637  44.279  55.345  1.00  0.00     0.004 A 
HETATM    9  C   UNL     1      29.725  45.369  56.212  1.00  0.00     0.043 A 
HETATM   10  C   UNL     1      30.481  43.172  55.572  1.00  0.00     0.014 A 
HETATM   11  C   UNL     1      30.617  45.409  57.291  1.00  0.00     0.030 A 
HETATM   12  N   UNL     1      28.805  46.299  55.788  1.00  0.00    -0.364 N 
HETATM   13  C   UNL     1      31.440  44.299  57.494  1.00  0.00     0.002 A 
HETATM   14  C   UNL     1      31.376  43.194  56.649  1.00  0.00     0.001 A 
HETATM   15  H   UNL     1      28.647  47.193  56.231  1.00  0.00     0.165 HD
HETATM   16  C   UNL     1      28.134  45.835  54.689  1.00  0.00     0.102 A 
ENDBRANCH   6   7
ENDBRANCH   2   5
BRANCH   1  17
HETATM   17  C   UNL     1      26.382  42.469  49.232  1.00  0.00     0.197 C 
BRANCH  17  18
HETATM   18  N   UNL     1      27.434  42.031  48.302  1.00  0.00    -0.284 NA
HETATM   19  H   UNL     1      27.125  42.130  47.333  1.00  0.00     0.128 HD
BRANCH  18  20
HETATM   20  C   UNL     1      27.954  40.737  48.502  1.00  0.00     0.009 A 
HETATM   21  C   UNL     1      28.044  39.778  47.482  1.00  0.00     0.030 A 
HETATM   22  C   UNL     1      28.514  38.478  47.738  1.00  0.00    -0.060 A 
HETATM   23  C   UNL     1      28.653  37.484  46.623  1.00  0.00     0.048 C 
HETATM   24  C   UNL     1      28.890  38.131  49.038  1.00  0.00     0.007 A 
HETATM   25  C   UNL     1      28.758  39.054  50.072  1.00  0.00     0.002 A 
HETATM   26  C   UNL     1      28.275  40.337  49.805  1.00  0.00     0.023 A 
ENDBRANCH  18  20
ENDBRANCH  17  18
ENDBRANCH   1  17
TORSDOF 5
ENDMDL
MODEL 8
REMARK VINA RESULT:      -8.4      2.795      9.892
REMARK  5 active torsions:
REMARK  status: ('A' for Active; 'I' for Inactive)
REMARK    1  A    between atoms: C_4  and  N_5 
REMARK    2  A    between atoms: N_5  and  C_6 
REMARK    3  A    between atoms: C_6  and  C_7 
REMARK       I    between atoms: C_7  and  N_8 
REMARK    4  A    between atoms: N_8  and  N_9 
REMARK    5  A    between atoms: C_10  and  C_11 
ROOT
HETATM    1  C   UNL     1      23.614  47.712  49.482  1.00  0.00     0.250 C 
HETATM    2  N   UNL     1      23.835  46.391  49.862  1.00  0.00    -0.246 N 
HETATM    3  O   UNL     1      24.326  48.678  49.747  1.00  0.00    -0.270 OA
HETATM    4  H   UNL     1      23.327  45.677  49.342  1.00  0.00     0.192 HD
ENDROOT
BRANCH   2   5
HETATM    5  N   UNL     1      24.911  45.905  50.566  1.00  0.00    -0.184 NA
HETATM    6  C   UNL     1      24.730  45.434  51.758  1.00  0.00     0.152 C 
BRANCH   6   7
HETATM    7  C   UNL     1      25.871  44.955  52.516  1.00  0.00     0.011 A 
HETATM    8  C   UNL     1      26.680  45.716  53.423  1.00  0.00     0.004 A 
HETATM    9  C   UNL     1      27.659  44.859  53.930  1.00  0.00     0.043 A 
HETATM   10  C   UNL     1      26.678  47.060  53.853  1.00  0.00     0.014 A 
HETATM   11  C   UNL     1      28.631  45.278  54.846  1.00  0.00     0.030 A 
HETATM   12  N   UNL     1      27.454  43.627  53.355  1.00  0.00    -0.364 N 
HETATM   13  C   UNL     1      28.606  46.614  55.254  1.00  0.00     0.002 A 
HETATM   14  C   UNL     1      27.645  47.495  54.767  1.00  0.00     0.001 A 
HETATM   15  H   UNL     1      28.018  42.808  53.538  1.00  0.00     0.165 HD
HETATM   16  C   UNL     1      26.387  43.673  52.500  1.00  0.00     0.102 A 
ENDBRANCH   6   7
ENDBRANCH   2   5
BRANCH   1  17
HETATM   17  C   UNL     1      22.340  47.863  48.648  1.00  0.00     0.197 C 
BRANCH  17  18
HETATM   18  N   UNL     1      21.206  48.201  49.522  1.00  0.00    -0.284 NA
HETATM   19  H   UNL     1      20.487  47.477  49.479  1.00  0.00     0.128 HD
BRANCH  18  20
HETATM   20  C   UNL     1      20.615  49.465  49.331  1.00  0.00     0.009 A 
HETATM   21  C   UNL     1      19.293  49.760  49.694  1.00  0.00     0.030 A 
HETATM   22  C   UNL     1      18.723  51.017  49.429  1.00  0.00    -0.060 A 
HETATM   23  C   UNL     1      17.325  51.330  49.874  1.00  0.00     0.048 C 
HETATM   24  C   UNL     1      19.487  51.991  48.782  1.00  0.00     0.007 A 
HETATM   25  C   UNL     1      20.784  51.700  48.368  1.00  0.00     0.002 A 
HETATM   26  C   UNL     1      21.332  50.440  48.624  1.00  0.00     0.023 A 
ENDBRANCH  18  20
ENDBRANCH  17  18
ENDBRANCH   1  17
TORSDOF 5
ENDMDL
MODEL 9
REMARK VINA RESULT:      -7.9      2.901      4.433
REMARK  5 active torsions:
REMARK  status: ('A' for Active; 'I' for Inactive)
REMARK    1  A    between atoms: C_4  and  N_5 
REMARK    2  A    between atoms: N_5  and  C_6 
REMARK    3  A    between atoms: C_6  and  C_7 
REMARK       I    between atoms: C_7  and  N_8 
REMARK    4  A    between atoms: N_8  and  N_9 
REMARK    5  A    between atoms: C_10  and  C_11 
ROOT
HETATM    1  C   UNL     1      24.571  46.633  50.403  1.00  0.00     0.250 C 
HETATM    2  N   UNL     1      24.029  47.829  49.940  1.00  0.00    -0.246 N 
HETATM    3  O   UNL     1      24.161  45.501  50.157  1.00  0.00    -0.270 OA
HETATM    4  H   UNL     1      24.630  48.651  49.993  1.00  0.00     0.192 HD
ENDROOT
BRANCH   2   5
HETATM    5  N   UNL     1      22.963  47.975  49.085  1.00  0.00    -0.184 NA
HETATM    6  C   UNL     1      22.218  49.030  49.171  1.00  0.00     0.152 C 
BRANCH   6   7
HETATM    7  C   UNL     1      21.071  49.166  48.293  1.00  0.00     0.011 A 
HETATM    8  C   UNL     1      20.210  50.306  48.176  1.00  0.00     0.004 A 
HETATM    9  C   UNL     1      19.245  50.005  47.214  1.00  0.00     0.043 A 
HETATM   10  C   UNL     1      20.155  51.566  48.808  1.00  0.00     0.014 A 
HETATM   11  C   UNL     1      18.232  50.900  46.850  1.00  0.00     0.030 A 
HETATM   12  N   UNL     1      19.507  48.732  46.762  1.00  0.00    -0.364 N 
HETATM   13  C   UNL     1      18.200  52.141  47.492  1.00  0.00     0.002 A 
HETATM   14  C   UNL     1      19.146  52.472  48.459  1.00  0.00     0.001 A 
HETATM   15  H   UNL     1      18.965  48.251  46.059  1.00  0.00     0.165 HD
HETATM   16  C   UNL     1      20.598  48.216  47.407  1.00  0.00     0.102 A 
ENDBRANCH   6   7
ENDBRANCH   2   5
BRANCH   1  17
HETATM   17  C   UNL     1      25.798  46.864  51.289  1.00  0.00     0.197 C 
BRANCH  17  18
HETATM   18  N   UNL     1      25.536  46.367  52.649  1.00  0.00    -0.284 NA
HETATM   19  H   UNL     1      24.837  46.946  53.117  1.00  0.00     0.128 HD
BRANCH  18  20
HETATM   20  C   UNL     1      26.655  46.205  53.488  1.00  0.00     0.009 A 
HETATM   21  C   UNL     1      27.383  45.010  53.577  1.00  0.00     0.030 A 
HETATM   22  C   UNL     1      28.457  44.871  54.473  1.00  0.00    -0.060 A 
HETATM   23  C   UNL     1      29.257  43.602  54.515  1.00  0.00     0.048 C 
HETATM   24  C   UNL     1      28.801  45.944  55.299  1.00  0.00     0.007 A 
HETATM   25  C   UNL     1      28.057  47.120  55.261  1.00  0.00     0.002 A 
HETATM   26  C   UNL     1      26.982  47.238  54.376  1.00  0.00     0.023 A 
ENDBRANCH  18  20
ENDBRANCH  17  18
ENDBRANCH   1  17
TORSDOF 5
ENDMDL
MODEL 10
REMARK VINA RESULT:      -7.8      5.987     10.184
REMARK  5 active torsions:
REMARK  status: ('A' for Active; 'I' for Inactive)
REMARK    1  A    between atoms: C_4  and  N_5 
REMARK    2  A    between atoms: N_5  and  C_6 
REMARK    3  A    between atoms: C_6  and  C_7 
REMARK       I    between atoms: C_7  and  N_8 
REMARK    4  A    between atoms: N_8  and  N_9 
REMARK    5  A    between atoms: C_10  and  C_11 
ROOT
HETATM    1  C   UNL     1      28.603  41.220  51.724  1.00  0.00     0.250 C 
HETATM    2  N   UNL     1      28.723  42.607  51.757  1.00  0.00    -0.246 N 
HETATM    3  O   UNL     1      28.886  40.441  52.631  1.00  0.00    -0.270 OA
HETATM    4  H   UNL     1      28.195  43.125  51.056  1.00  0.00     0.192 HD
ENDROOT
BRANCH   2   5
HETATM    5  N   UNL     1      29.135  43.374  52.821  1.00  0.00    -0.184 NA
HETATM    6  C   UNL     1      28.256  43.836  53.651  1.00  0.00     0.152 C 
BRANCH   6   7
HETATM    7  C   UNL     1      28.688  44.676  54.753  1.00  0.00     0.011 A 
HETATM    8  C   UNL     1      29.722  44.382  55.702  1.00  0.00     0.004 A 
HETATM    9  C   UNL     1      29.804  45.465  56.579  1.00  0.00     0.043 A 
HETATM   10  C   UNL     1      30.591  43.288  55.904  1.00  0.00     0.014 A 
HETATM   11  C   UNL     1      30.713  45.510  57.644  1.00  0.00     0.030 A 
HETATM   12  N   UNL     1      28.859  46.381  56.180  1.00  0.00    -0.364 N 
HETATM   13  C   UNL     1      31.560  44.414  57.821  1.00  0.00     0.002 A 
HETATM   14  C   UNL     1      31.503  43.316  56.966  1.00  0.00     0.001 A 
HETATM   15  H   UNL     1      28.692  47.267  56.636  1.00  0.00     0.165 HD
HETATM   16  C   UNL     1      28.179  45.916  55.088  1.00  0.00     0.102 A 
ENDBRANCH   6   7
ENDBRANCH   2   5
BRANCH   1  17
HETATM   17  C   UNL     1      28.048  40.725  50.387  1.00  0.00     0.197 C 
BRANCH  17  18
HETATM   18  N   UNL     1      29.085  39.978  49.658  1.00  0.00    -0.284 NA
HETATM   19  H   UNL     1      29.961  40.503  49.636  1.00  0.00     0.128 HD
BRANCH  18  20
HETATM   20  C   UNL     1      28.758  39.549  48.357  1.00  0.00     0.009 A 
HETATM   21  C   UNL     1      28.261  40.406  47.366  1.00  0.00     0.030 A 
HETATM   22  C   UNL     1      27.889  39.926  46.099  1.00  0.00    -0.060 A 
HETATM   23  C   UNL     1      27.411  40.869  45.035  1.00  0.00     0.048 C 
HETATM   24  C   UNL     1      28.010  38.561  45.824  1.00  0.00     0.007 A 
HETATM   25  C   UNL     1      28.453  37.687  46.812  1.00  0.00     0.002 A 
HETATM   26  C   UNL     1      28.803  38.177  48.073  1.00  0.00     0.023 A 
ENDBRANCH  18  20
ENDBRANCH  17  18
ENDBRANCH   1  17
TORSDOF 5
ENDMDL
