MODEL 1
REMARK VINA RESULT:      -7.7      0.000      0.000
REMARK  10 active torsions:
REMARK  status: ('A' for Active; 'I' for Inactive)
REMARK    1  A    between atoms: C_3  and  C_4 
REMARK    2  A    between atoms: C_4  and  C_5 
REMARK       I    between atoms: C_5  and  N_6 
REMARK    3  A    between atoms: N_6  and  C_7 
REMARK    4  A    between atoms: C_7  and  C_8 
REMARK    5  A    between atoms: C_8  and  O_9 
REMARK    6  A    between atoms: C_15  and  N_16 
REMARK    7  A    between atoms: N_16  and  C_17 
REMARK    8  A    between atoms: C_26  and  C_27 
REMARK    9  A    between atoms: C_27  and  O_28 
REMARK   10  A    between atoms: C_30  and  O_31 
ROOT
HETATM    1  C   UNL     1      24.833  44.125  54.395  1.00  0.00     0.016 C 
HETATM    2  C   UNL     1      25.718  44.923  53.382  1.00  0.00    -0.030 C 
HETATM    3  C   UNL     1      27.155  44.231  53.254  1.00  0.00     0.056 C 
HETATM    4  C   UNL     1      27.093  43.051  52.308  1.00  0.00     0.055 C 
HETATM    5  C   UNL     1      25.998  42.736  51.532  1.00  0.00     0.011 C 
HETATM    6  S   UNL     1      26.295  41.331  50.624  1.00  0.00    -0.060 SA
HETATM    7  C   UNL     1      27.953  41.395  51.109  1.00  0.00     0.150 C 
HETATM    8  N   UNL     1      28.215  42.283  52.048  1.00  0.00    -0.232 NA
HETATM    9  C   UNL     1      24.732  43.510  51.448  1.00  0.00     0.054 C 
HETATM   10  C   UNL     1      24.950  44.950  51.992  1.00  0.00     0.012 C 
HETATM   11  C   UNL     1      25.480  46.011  50.924  1.00  0.00     0.008 C 
HETATM   12  C   UNL     1      24.240  46.454  50.091  1.00  0.00     0.020 C 
HETATM   13  C   UNL     1      26.036  47.285  51.632  1.00  0.00     0.128 C 
HETATM   14  C   UNL     1      25.442  47.483  53.019  1.00  0.00     0.033 C 
HETATM   15  C   UNL     1      25.866  46.363  53.967  1.00  0.00     0.013 C 
ENDROOT
BRANCH   3  16
HETATM   16  C   UNL     1      27.729  43.828  54.627  1.00  0.00     0.114 C 
BRANCH  16  17
HETATM   17  C   UNL     1      29.047  44.473  55.007  1.00  0.00     0.218 C 
HETATM   18  N   UNL     1      30.082  43.613  55.260  1.00  0.00    -0.359 N 
HETATM   19  H   UNL     1      30.018  42.653  54.913  1.00  0.00     0.162 HD
HETATM   20  O   UNL     1      29.136  45.689  55.174  1.00  0.00    -0.274 OA
BRANCH  18  21
HETATM   21  C   UNL     1      31.327  44.071  55.845  1.00  0.00     0.148 C 
BRANCH  21  22
HETATM   22  C   UNL     1      31.681  43.388  57.172  1.00  0.00     0.186 C 
BRANCH  22  23
HETATM   23  O   UNL     1      31.817  44.301  58.265  1.00  0.00    -0.394 OA
HETATM   24  C   UNL     1      30.788  45.282  58.305  1.00  0.00     0.201 C 
ENDBRANCH  22  23
ENDBRANCH  21  22
ENDBRANCH  18  21
ENDBRANCH  16  17
ENDBRANCH   3  16
BRANCH  11  25
HETATM   25  C   UNL     1      26.549  45.498  49.921  1.00  0.00     0.176 C 
BRANCH  25  26
HETATM   26  O   UNL     1      27.129  46.551  49.157  1.00  0.00    -0.400 OA
HETATM   27  H   UNL     1      28.083  46.358  49.107  1.00  0.00     0.209 HD
ENDBRANCH  25  26
ENDBRANCH  11  25
BRANCH   7  28
HETATM   28  N   UNL     1      28.851  40.576  50.503  1.00  0.00    -0.238 NA
HETATM   29  H   UNL     1      29.279  39.920  51.150  1.00  0.00     0.136 HD
BRANCH  28  30
HETATM   30  C   UNL     1      28.538  39.876  49.303  1.00  0.00     0.014 A 
HETATM   31  C   UNL     1      28.471  40.487  48.044  1.00  0.00     0.024 A 
HETATM   32  C   UNL     1      28.141  39.749  46.903  1.00  0.00     0.002 A 
HETATM   33  C   UNL     1      27.913  38.380  46.995  1.00  0.00     0.000 A 
HETATM   34  C   UNL     1      28.028  37.744  48.227  1.00  0.00     0.002 A 
HETATM   35  C   UNL     1      28.351  38.485  49.369  1.00  0.00     0.024 A 
ENDBRANCH  28  30
ENDBRANCH   7  28
BRANCH  13  36
HETATM   36  O   UNL     1      27.458  47.223  51.755  1.00  0.00    -0.395 OA
HETATM   37  H   UNL     1      27.845  47.800  51.073  1.00  0.00     0.210 HD
ENDBRANCH  13  36
TORSDOF 10
ENDMDL
MODEL 2
REMARK VINA RESULT:      -7.4     13.331     15.481
REMARK  10 active torsions:
REMARK  status: ('A' for Active; 'I' for Inactive)
REMARK    1  A    between atoms: C_3  and  C_4 
REMARK    2  A    between atoms: C_4  and  C_5 
REMARK       I    between atoms: C_5  and  N_6 
REMARK    3  A    between atoms: N_6  and  C_7 
REMARK    4  A    between atoms: C_7  and  C_8 
REMARK    5  A    between atoms: C_8  and  O_9 
REMARK    6  A    between atoms: C_15  and  N_16 
REMARK    7  A    between atoms: N_16  and  C_17 
REMARK    8  A    between atoms: C_26  and  C_27 
REMARK    9  A    between atoms: C_27  and  O_28 
REMARK   10  A    between atoms: C_30  and  O_31 
ROOT
HETATM    1  C   UNL     1      30.774  48.096  40.927  1.00  0.00     0.016 C 
HETATM    2  C   UNL     1      30.052  49.475  41.082  1.00  0.00    -0.030 C 
HETATM    3  C   UNL     1      31.085  50.573  41.614  1.00  0.00     0.056 C 
HETATM    4  C   UNL     1      31.921  51.112  40.473  1.00  0.00     0.055 C 
HETATM    5  C   UNL     1      31.693  50.827  39.143  1.00  0.00     0.011 C 
HETATM    6  S   UNL     1      32.852  51.590  38.163  1.00  0.00    -0.060 SA
HETATM    7  C   UNL     1      33.407  52.471  39.543  1.00  0.00     0.150 C 
HETATM    8  N   UNL     1      32.899  52.067  40.691  1.00  0.00    -0.232 NA
HETATM    9  C   UNL     1      30.581  50.002  38.603  1.00  0.00     0.054 C 
HETATM   10  C   UNL     1      29.454  49.865  39.663  1.00  0.00     0.012 C 
HETATM   11  C   UNL     1      28.369  51.036  39.663  1.00  0.00     0.008 C 
HETATM   12  C   UNL     1      27.385  50.724  38.496  1.00  0.00     0.020 C 
HETATM   13  C   UNL     1      27.535  51.025  40.982  1.00  0.00     0.128 C 
HETATM   14  C   UNL     1      27.519  49.655  41.645  1.00  0.00     0.033 C 
HETATM   15  C   UNL     1      28.913  49.258  42.128  1.00  0.00     0.013 C 
ENDROOT
BRANCH   3  16
HETATM   16  C   UNL     1      31.968  50.033  42.758  1.00  0.00     0.114 C 
BRANCH  16  17
HETATM   17  C   UNL     1      32.627  51.079  43.634  1.00  0.00     0.218 C 
HETATM   18  N   UNL     1      33.922  51.390  43.322  1.00  0.00    -0.359 N 
HETATM   19  H   UNL     1      34.275  51.150  42.392  1.00  0.00     0.162 HD
HETATM   20  O   UNL     1      32.052  51.535  44.623  1.00  0.00    -0.274 OA
BRANCH  18  21
HETATM   21  C   UNL     1      34.744  52.200  44.200  1.00  0.00     0.148 C 
BRANCH  21  22
HETATM   22  C   UNL     1      36.211  52.300  43.766  1.00  0.00     0.186 C 
BRANCH  22  23
HETATM   23  O   UNL     1      36.483  53.429  42.929  1.00  0.00    -0.394 OA
HETATM   24  C   UNL     1      37.645  54.150  43.323  1.00  0.00     0.201 C 
ENDBRANCH  22  23
ENDBRANCH  21  22
ENDBRANCH  18  21
ENDBRANCH  16  17
ENDBRANCH   3  16
BRANCH  11  25
HETATM   25  C   UNL     1      28.912  52.473  39.436  1.00  0.00     0.176 C 
BRANCH  25  26
HETATM   26  O   UNL     1      28.600  52.974  38.140  1.00  0.00    -0.400 OA
HETATM   27  H   UNL     1      27.788  52.516  37.857  1.00  0.00     0.209 HD
ENDBRANCH  25  26
ENDBRANCH  11  25
BRANCH   7  28
HETATM   28  N   UNL     1      34.280  53.497  39.366  1.00  0.00    -0.238 NA
HETATM   29  H   UNL     1      34.013  54.329  39.882  1.00  0.00     0.136 HD
BRANCH  28  30
HETATM   30  C   UNL     1      35.685  53.319  39.505  1.00  0.00     0.014 A 
HETATM   31  C   UNL     1      36.605  54.376  39.503  1.00  0.00     0.024 A 
HETATM   32  C   UNL     1      37.977  54.136  39.626  1.00  0.00     0.002 A 
HETATM   33  C   UNL     1      38.450  52.839  39.795  1.00  0.00     0.000 A 
HETATM   34  C   UNL     1      37.549  51.780  39.854  1.00  0.00     0.002 A 
HETATM   35  C   UNL     1      36.178  52.021  39.723  1.00  0.00     0.024 A 
ENDBRANCH  28  30
ENDBRANCH   7  28
BRANCH  13  36
HETATM   36  O   UNL     1      28.046  51.973  41.919  1.00  0.00    -0.395 OA
HETATM   37  H   UNL     1      28.179  51.515  42.768  1.00  0.00     0.210 HD
ENDBRANCH  13  36
TORSDOF 10
ENDMDL
MODEL 3
REMARK VINA RESULT:      -7.3      5.659      9.344
REMARK  10 active torsions:
REMARK  status: ('A' for Active; 'I' for Inactive)
REMARK    1  A    between atoms: C_3  and  C_4 
REMARK    2  A    between atoms: C_4  and  C_5 
REMARK       I    between atoms: C_5  and  N_6 
REMARK    3  A    between atoms: N_6  and  C_7 
REMARK    4  A    between atoms: C_7  and  C_8 
REMARK    5  A    between atoms: C_8  and  O_9 
REMARK    6  A    between atoms: C_15  and  N_16 
REMARK    7  A    between atoms: N_16  and  C_17 
REMARK    8  A    between atoms: C_26  and  C_27 
REMARK    9  A    between atoms: C_27  and  O_28 
REMARK   10  A    between atoms: C_30  and  O_31 
ROOT
HETATM    1  C   UNL     1      19.758  48.407  45.670  1.00  0.00     0.016 C 
HETATM    2  C   UNL     1      19.539  48.236  47.209  1.00  0.00    -0.030 C 
HETATM    3  C   UNL     1      20.757  47.416  47.843  1.00  0.00     0.056 C 
HETATM    4  C   UNL     1      21.940  48.329  48.088  1.00  0.00     0.055 C 
HETATM    5  C   UNL     1      21.903  49.700  47.952  1.00  0.00     0.011 C 
HETATM    6  S   UNL     1      23.426  50.374  48.284  1.00  0.00    -0.060 SA
HETATM    7  C   UNL     1      23.959  48.831  48.856  1.00  0.00     0.150 C 
HETATM    8  N   UNL     1      23.121  47.841  48.620  1.00  0.00    -0.232 NA
HETATM    9  C   UNL     1      20.709  50.513  47.602  1.00  0.00     0.054 C 
HETATM   10  C   UNL     1      19.413  49.689  47.839  1.00  0.00     0.012 C 
HETATM   11  C   UNL     1      18.822  49.756  49.320  1.00  0.00     0.008 C 
HETATM   12  C   UNL     1      18.050  51.105  49.425  1.00  0.00     0.020 C 
HETATM   13  C   UNL     1      17.786  48.614  49.561  1.00  0.00     0.128 C 
HETATM   14  C   UNL     1      17.166  48.114  48.265  1.00  0.00     0.033 C 
HETATM   15  C   UNL     1      18.208  47.437  47.377  1.00  0.00     0.013 C 
ENDROOT
BRANCH   3  16
HETATM   16  C   UNL     1      21.148  46.199  46.981  1.00  0.00     0.114 C 
BRANCH  16  17
HETATM   17  C   UNL     1      21.323  44.891  47.726  1.00  0.00     0.218 C 
HETATM   18  N   UNL     1      22.603  44.583  48.100  1.00  0.00    -0.359 N 
HETATM   19  H   UNL     1      23.299  45.332  48.132  1.00  0.00     0.162 HD
HETATM   20  O   UNL     1      20.378  44.118  47.885  1.00  0.00    -0.274 OA
BRANCH  18  21
HETATM   21  C   UNL     1      22.951  43.274  48.616  1.00  0.00     0.148 C 
BRANCH  21  22
HETATM   22  C   UNL     1      22.732  43.119  50.126  1.00  0.00     0.186 C 
BRANCH  22  23
HETATM   23  O   UNL     1      23.949  42.996  50.870  1.00  0.00    -0.394 OA
HETATM   24  C   UNL     1      24.849  42.045  50.314  1.00  0.00     0.201 C 
ENDBRANCH  22  23
ENDBRANCH  21  22
ENDBRANCH  18  21
ENDBRANCH  16  17
ENDBRANCH   3  16
BRANCH  11  25
HETATM   25  C   UNL     1      19.861  49.730  50.474  1.00  0.00     0.176 C 
BRANCH  25  26
HETATM   26  O   UNL     1      19.253  49.561  51.751  1.00  0.00    -0.400 OA
HETATM   27  H   UNL     1      18.319  49.341  51.582  1.00  0.00     0.209 HD
ENDBRANCH  25  26
ENDBRANCH  11  25
BRANCH   7  28
HETATM   28  N   UNL     1      25.149  48.742  49.506  1.00  0.00    -0.238 NA
HETATM   29  H   UNL     1      25.305  49.520  50.140  1.00  0.00     0.136 HD
BRANCH  28  30
HETATM   30  C   UNL     1      25.559  47.546  50.161  1.00  0.00     0.014 A 
HETATM   31  C   UNL     1      26.403  46.593  49.576  1.00  0.00     0.024 A 
HETATM   32  C   UNL     1      26.757  45.427  50.264  1.00  0.00     0.002 A 
HETATM   33  C   UNL     1      26.306  45.214  51.562  1.00  0.00     0.000 A 
HETATM   34  C   UNL     1      25.510  46.175  52.180  1.00  0.00     0.002 A 
HETATM   35  C   UNL     1      25.151  47.336  51.489  1.00  0.00     0.024 A 
ENDBRANCH  28  30
ENDBRANCH   7  28
BRANCH  13  36
HETATM   36  O   UNL     1      18.392  47.506  50.228  1.00  0.00    -0.395 OA
HETATM   37  H   UNL     1      18.647  47.796  51.122  1.00  0.00     0.210 HD
ENDBRANCH  13  36
TORSDOF 10
ENDMDL
MODEL 4
REMARK VINA RESULT:      -7.3      6.777     10.565
REMARK  10 active torsions:
REMARK  status: ('A' for Active; 'I' for Inactive)
REMARK    1  A    between atoms: C_3  and  C_4 
REMARK    2  A    between atoms: C_4  and  C_5 
REMARK       I    between atoms: C_5  and  N_6 
REMARK    3  A    between atoms: N_6  and  C_7 
REMARK    4  A    between atoms: C_7  and  C_8 
REMARK    5  A    between atoms: C_8  and  O_9 
REMARK    6  A    between atoms: C_15  and  N_16 
REMARK    7  A    between atoms: N_16  and  C_17 
REMARK    8  A    between atoms: C_26  and  C_27 
REMARK    9  A    between atoms: C_27  and  O_28 
REMARK   10  A    between atoms: C_30  and  O_31 
ROOT
HETATM    1  C   UNL     1      18.916  48.343  44.924  1.00  0.00     0.016 C 
HETATM    2  C   UNL     1      18.360  48.144  46.372  1.00  0.00    -0.030 C 
HETATM    3  C   UNL     1      19.452  47.404  47.276  1.00  0.00     0.056 C 
HETATM    4  C   UNL     1      20.481  48.394  47.781  1.00  0.00     0.055 C 
HETATM    5  C   UNL     1      20.382  49.760  47.631  1.00  0.00     0.011 C 
HETATM    6  S   UNL     1      21.737  50.534  48.301  1.00  0.00    -0.060 SA
HETATM    7  C   UNL     1      22.228  49.027  48.991  1.00  0.00     0.150 C 
HETATM    8  N   UNL     1      21.538  47.983  48.575  1.00  0.00    -0.232 NA
HETATM    9  C   UNL     1      19.248  50.492  47.009  1.00  0.00     0.054 C 
HETATM   10  C   UNL     1      17.992  49.579  46.946  1.00  0.00     0.012 C 
HETATM   11  C   UNL     1      17.072  49.591  48.250  1.00  0.00     0.008 C 
HETATM   12  C   UNL     1      16.205  50.883  48.165  1.00  0.00     0.020 C 
HETATM   13  C   UNL     1      16.090  48.379  48.254  1.00  0.00     0.128 C 
HETATM   14  C   UNL     1      15.822  47.849  46.853  1.00  0.00     0.033 C 
HETATM   15  C   UNL     1      17.085  47.253  46.234  1.00  0.00     0.013 C 
ENDROOT
BRANCH   3  16
HETATM   16  C   UNL     1      20.115  46.225  46.536  1.00  0.00     0.114 C 
BRANCH  16  17
HETATM   17  C   UNL     1      20.510  45.042  47.398  1.00  0.00     0.218 C 
HETATM   18  N   UNL     1      21.821  44.999  47.787  1.00  0.00    -0.359 N 
HETATM   19  H   UNL     1      22.375  45.857  47.744  1.00  0.00     0.162 HD
HETATM   20  O   UNL     1      19.713  44.134  47.636  1.00  0.00    -0.274 OA
BRANCH  18  21
HETATM   21  C   UNL     1      22.389  43.824  48.420  1.00  0.00     0.148 C 
BRANCH  21  22
HETATM   22  C   UNL     1      23.888  43.636  48.157  1.00  0.00     0.186 C 
BRANCH  22  23
HETATM   23  O   UNL     1      24.712  44.570  48.862  1.00  0.00    -0.394 OA
HETATM   24  C   UNL     1      25.179  44.071  50.110  1.00  0.00     0.201 C 
ENDBRANCH  22  23
ENDBRANCH  21  22
ENDBRANCH  18  21
ENDBRANCH  16  17
ENDBRANCH   3  16
BRANCH  11  25
HETATM   25  C   UNL     1      17.816  49.626  49.613  1.00  0.00     0.176 C 
BRANCH  25  26
HETATM   26  O   UNL     1      17.785  50.915  50.218  1.00  0.00    -0.400 OA
HETATM   27  H   UNL     1      18.426  50.888  50.952  1.00  0.00     0.209 HD
ENDBRANCH  25  26
ENDBRANCH  11  25
BRANCH   7  28
HETATM   28  N   UNL     1      23.239  49.014  49.899  1.00  0.00    -0.238 NA
HETATM   29  H   UNL     1      23.076  48.354  50.654  1.00  0.00     0.136 HD
BRANCH  28  30
HETATM   30  C   UNL     1      24.603  48.907  49.503  1.00  0.00     0.014 A 
HETATM   31  C   UNL     1      25.241  49.831  48.665  1.00  0.00     0.024 A 
HETATM   32  C   UNL     1      26.580  49.662  48.296  1.00  0.00     0.002 A 
HETATM   33  C   UNL     1      27.315  48.590  48.793  1.00  0.00     0.000 A 
HETATM   34  C   UNL     1      26.714  47.692  49.670  1.00  0.00     0.002 A 
HETATM   35  C   UNL     1      25.373  47.858  50.031  1.00  0.00     0.024 A 
ENDBRANCH  28  30
ENDBRANCH   7  28
BRANCH  13  36
HETATM   36  O   UNL     1      16.601  47.309  49.050  1.00  0.00    -0.395 OA
HETATM   37  H   UNL     1      17.399  46.962  48.612  1.00  0.00     0.210 HD
ENDBRANCH  13  36
TORSDOF 10
ENDMDL
MODEL 5
REMARK VINA RESULT:      -7.2     12.115     14.559
REMARK  10 active torsions:
REMARK  status: ('A' for Active; 'I' for Inactive)
REMARK    1  A    between atoms: C_3  and  C_4 
REMARK    2  A    between atoms: C_4  and  C_5 
REMARK       I    between atoms: C_5  and  N_6 
REMARK    3  A    between atoms: N_6  and  C_7 
REMARK    4  A    between atoms: C_7  and  C_8 
REMARK    5  A    between atoms: C_8  and  O_9 
REMARK    6  A    between atoms: C_15  and  N_16 
REMARK    7  A    between atoms: N_16  and  C_17 
REMARK    8  A    between atoms: C_26  and  C_27 
REMARK    9  A    between atoms: C_27  and  O_28 
REMARK   10  A    between atoms: C_30  and  O_31 
ROOT
HETATM    1  C   UNL     1      28.613  45.616  36.969  1.00  0.00     0.016 C 
HETATM    2  C   UNL     1      28.104  45.672  38.447  1.00  0.00    -0.030 C 
HETATM    3  C   UNL     1      28.754  46.925  39.198  1.00  0.00     0.056 C 
HETATM    4  C   UNL     1      27.999  48.194  38.864  1.00  0.00     0.055 C 
HETATM    5  C   UNL     1      26.813  48.228  38.161  1.00  0.00     0.011 C 
HETATM    6  S   UNL     1      26.285  49.830  37.960  1.00  0.00    -0.060 SA
HETATM    7  C   UNL     1      27.515  50.349  39.059  1.00  0.00     0.150 C 
HETATM    8  N   UNL     1      28.386  49.416  39.387  1.00  0.00    -0.232 NA
HETATM    9  C   UNL     1      26.057  47.050  37.663  1.00  0.00     0.054 C 
HETATM   10  C   UNL     1      26.519  45.766  38.406  1.00  0.00     0.012 C 
HETATM   11  C   UNL     1      25.767  45.463  39.781  1.00  0.00     0.008 C 
HETATM   12  C   UNL     1      24.400  44.819  39.402  1.00  0.00     0.020 C 
HETATM   13  C   UNL     1      26.551  44.412  40.626  1.00  0.00     0.128 C 
HETATM   14  C   UNL     1      27.446  43.530  39.768  1.00  0.00     0.033 C 
HETATM   15  C   UNL     1      28.568  44.342  39.122  1.00  0.00     0.013 C 
ENDROOT
BRANCH   3  16
HETATM   16  C   UNL     1      30.260  47.065  38.896  1.00  0.00     0.114 C 
BRANCH  16  17
HETATM   17  C   UNL     1      31.128  47.508  40.057  1.00  0.00     0.218 C 
HETATM   18  N   UNL     1      31.004  48.819  40.429  1.00  0.00    -0.359 N 
HETATM   19  H   UNL     1      30.172  49.336  40.136  1.00  0.00     0.162 HD
HETATM   20  O   UNL     1      31.961  46.750  40.553  1.00  0.00    -0.274 OA
BRANCH  18  21
HETATM   21  C   UNL     1      31.923  49.435  41.366  1.00  0.00     0.148 C 
BRANCH  21  22
HETATM   22  C   UNL     1      31.490  49.320  42.833  1.00  0.00     0.186 C 
BRANCH  22  23
HETATM   23  O   UNL     1      32.026  50.351  43.669  1.00  0.00    -0.394 OA
HETATM   24  C   UNL     1      33.174  50.981  43.112  1.00  0.00     0.201 C 
ENDBRANCH  22  23
ENDBRANCH  21  22
ENDBRANCH  18  21
ENDBRANCH  16  17
ENDBRANCH   3  16
BRANCH  11  25
HETATM   25  C   UNL     1      25.463  46.692  40.680  1.00  0.00     0.176 C 
BRANCH  25  26
HETATM   26  O   UNL     1      24.767  46.337  41.871  1.00  0.00    -0.400 OA
HETATM   27  H   UNL     1      25.142  46.888  42.582  1.00  0.00     0.209 HD
ENDBRANCH  25  26
ENDBRANCH  11  25
BRANCH   7  28
HETATM   28  N   UNL     1      27.496  51.629  39.515  1.00  0.00    -0.238 NA
HETATM   29  H   UNL     1      26.652  51.844  40.038  1.00  0.00     0.136 HD
BRANCH  28  30
HETATM   30  C   UNL     1      28.604  52.196  40.207  1.00  0.00     0.014 A 
HETATM   31  C   UNL     1      28.749  52.158  41.600  1.00  0.00     0.024 A 
HETATM   32  C   UNL     1      29.853  52.749  42.225  1.00  0.00     0.002 A 
HETATM   33  C   UNL     1      30.850  53.351  41.464  1.00  0.00     0.000 A 
HETATM   34  C   UNL     1      30.751  53.351  40.076  1.00  0.00     0.002 A 
HETATM   35  C   UNL     1      29.643  52.767  39.454  1.00  0.00     0.024 A 
ENDBRANCH  28  30
ENDBRANCH   7  28
BRANCH  13  36
HETATM   36  O   UNL     1      27.361  45.051  41.614  1.00  0.00    -0.395 OA
HETATM   37  H   UNL     1      26.849  45.095  42.441  1.00  0.00     0.210 HD
ENDBRANCH  13  36
TORSDOF 10
ENDMDL
MODEL 6
REMARK VINA RESULT:      -7.1      6.178      9.146
REMARK  10 active torsions:
REMARK  status: ('A' for Active; 'I' for Inactive)
REMARK    1  A    between atoms: C_3  and  C_4 
REMARK    2  A    between atoms: C_4  and  C_5 
REMARK       I    between atoms: C_5  and  N_6 
REMARK    3  A    between atoms: N_6  and  C_7 
REMARK    4  A    between atoms: C_7  and  C_8 
REMARK    5  A    between atoms: C_8  and  O_9 
REMARK    6  A    between atoms: C_15  and  N_16 
REMARK    7  A    between atoms: N_16  and  C_17 
REMARK    8  A    between atoms: C_26  and  C_27 
REMARK    9  A    between atoms: C_27  and  O_28 
REMARK   10  A    between atoms: C_30  and  O_31 
ROOT
HETATM    1  C   UNL     1      19.751  50.231  50.592  1.00  0.00     0.016 C 
HETATM    2  C   UNL     1      19.606  50.225  49.035  1.00  0.00    -0.030 C 
HETATM    3  C   UNL     1      20.933  49.633  48.368  1.00  0.00     0.056 C 
HETATM    4  C   UNL     1      20.912  48.119  48.400  1.00  0.00     0.055 C 
HETATM    5  C   UNL     1      19.822  47.367  48.783  1.00  0.00     0.011 C 
HETATM    6  S   UNL     1      20.188  45.709  48.715  1.00  0.00    -0.060 SA
HETATM    7  C   UNL     1      21.672  46.093  47.915  1.00  0.00     0.150 C 
HETATM    8  N   UNL     1      21.964  47.378  47.890  1.00  0.00    -0.232 NA
HETATM    9  C   UNL     1      18.489  47.893  49.173  1.00  0.00     0.054 C 
HETATM   10  C   UNL     1      18.325  49.356  48.676  1.00  0.00     0.012 C 
HETATM   11  C   UNL     1      17.772  49.515  47.188  1.00  0.00     0.008 C 
HETATM   12  C   UNL     1      16.229  49.312  47.268  1.00  0.00     0.020 C 
HETATM   13  C   UNL     1      18.017  50.959  46.650  1.00  0.00     0.128 C 
HETATM   14  C   UNL     1      18.156  51.977  47.772  1.00  0.00     0.033 C 
HETATM   15  C   UNL     1      19.409  51.714  48.607  1.00  0.00     0.013 C 
ENDROOT
BRANCH   3  16
HETATM   16  C   UNL     1      22.212  50.196  49.020  1.00  0.00     0.114 C 
BRANCH  16  17
HETATM   17  C   UNL     1      23.469  50.127  48.176  1.00  0.00     0.218 C 
HETATM   18  N   UNL     1      24.617  49.790  48.841  1.00  0.00    -0.359 N 
HETATM   19  H   UNL     1      24.540  49.333  49.752  1.00  0.00     0.162 HD
HETATM   20  O   UNL     1      23.458  50.457  46.990  1.00  0.00    -0.274 OA
BRANCH  18  21
HETATM   21  C   UNL     1      25.920  49.902  48.215  1.00  0.00     0.148 C 
BRANCH  21  22
HETATM   22  C   UNL     1      27.023  49.107  48.924  1.00  0.00     0.186 C 
BRANCH  22  23
HETATM   23  O   UNL     1      26.702  47.725  49.107  1.00  0.00    -0.394 OA
HETATM   24  C   UNL     1      26.387  47.399  50.456  1.00  0.00     0.201 C 
ENDBRANCH  22  23
ENDBRANCH  21  22
ENDBRANCH  18  21
ENDBRANCH  16  17
ENDBRANCH   3  16
BRANCH  11  25
HETATM   25  C   UNL     1      18.315  48.502  46.143  1.00  0.00     0.176 C 
BRANCH  25  26
HETATM   26  O   UNL     1      17.720  48.670  44.860  1.00  0.00    -0.400 OA
HETATM   27  H   UNL     1      17.594  49.629  44.741  1.00  0.00     0.209 HD
ENDBRANCH  25  26
ENDBRANCH  11  25
BRANCH   7  28
HETATM   28  N   UNL     1      22.405  45.089  47.365  1.00  0.00    -0.238 NA
HETATM   29  H   UNL     1      23.019  45.416  46.625  1.00  0.00     0.136 HD
BRANCH  28  30
HETATM   30  C   UNL     1      23.130  44.163  48.167  1.00  0.00     0.014 A 
HETATM   31  C   UNL     1      22.828  42.796  48.238  1.00  0.00     0.024 A 
HETATM   32  C   UNL     1      23.567  41.938  49.059  1.00  0.00     0.002 A 
HETATM   33  C   UNL     1      24.645  42.423  49.791  1.00  0.00     0.000 A 
HETATM   34  C   UNL     1      24.995  43.766  49.692  1.00  0.00     0.002 A 
HETATM   35  C   UNL     1      24.251  44.625  48.877  1.00  0.00     0.024 A 
ENDBRANCH  28  30
ENDBRANCH   7  28
BRANCH  13  36
HETATM   36  O   UNL     1      19.195  51.012  45.845  1.00  0.00    -0.395 OA
HETATM   37  H   UNL     1      19.449  51.947  45.745  1.00  0.00     0.210 HD
ENDBRANCH  13  36
TORSDOF 10
ENDMDL
MODEL 7
REMARK VINA RESULT:      -6.8      5.458      8.961
REMARK  10 active torsions:
REMARK  status: ('A' for Active; 'I' for Inactive)
REMARK    1  A    between atoms: C_3  and  C_4 
REMARK    2  A    between atoms: C_4  and  C_5 
REMARK       I    between atoms: C_5  and  N_6 
REMARK    3  A    between atoms: N_6  and  C_7 
REMARK    4  A    between atoms: C_7  and  C_8 
REMARK    5  A    between atoms: C_8  and  O_9 
REMARK    6  A    between atoms: C_15  and  N_16 
REMARK    7  A    between atoms: N_16  and  C_17 
REMARK    8  A    between atoms: C_26  and  C_27 
REMARK    9  A    between atoms: C_27  and  O_28 
REMARK   10  A    between atoms: C_30  and  O_31 
ROOT
HETATM    1  C   UNL     1      20.831  46.358  44.933  1.00  0.00     0.016 C 
HETATM    2  C   UNL     1      20.157  46.096  46.320  1.00  0.00    -0.030 C 
HETATM    3  C   UNL     1      21.250  45.579  47.366  1.00  0.00     0.056 C 
HETATM    4  C   UNL     1      22.029  46.745  47.938  1.00  0.00     0.055 C 
HETATM    5  C   UNL     1      21.714  48.069  47.722  1.00  0.00     0.011 C 
HETATM    6  S   UNL     1      22.832  49.084  48.501  1.00  0.00    -0.060 SA
HETATM    7  C   UNL     1      23.493  47.701  49.303  1.00  0.00     0.150 C 
HETATM    8  N   UNL     1      23.044  46.544  48.858  1.00  0.00    -0.232 NA
HETATM    9  C   UNL     1      20.550  48.577  46.951  1.00  0.00     0.054 C 
HETATM   10  C   UNL     1      19.485  47.456  46.791  1.00  0.00     0.012 C 
HETATM   11  C   UNL     1      18.434  47.336  47.987  1.00  0.00     0.008 C 
HETATM   12  C   UNL     1      17.373  48.453  47.754  1.00  0.00     0.020 C 
HETATM   13  C   UNL     1      17.681  45.970  47.934  1.00  0.00     0.128 C 
HETATM   14  C   UNL     1      17.669  45.371  46.536  1.00  0.00     0.033 C 
HETATM   15  C   UNL     1      19.078  44.992  46.083  1.00  0.00     0.013 C 
ENDROOT
BRANCH   3  16
HETATM   16  C   UNL     1      22.185  44.518  46.752  1.00  0.00     0.114 C 
BRANCH  16  17
HETATM   17  C   UNL     1      22.287  43.209  47.510  1.00  0.00     0.218 C 
HETATM   18  N   UNL     1      23.213  43.173  48.517  1.00  0.00    -0.359 N 
HETATM   19  H   UNL     1      23.561  44.056  48.896  1.00  0.00     0.162 HD
HETATM   20  O   UNL     1      21.643  42.220  47.160  1.00  0.00    -0.274 OA
BRANCH  18  21
HETATM   21  C   UNL     1      23.575  41.932  49.174  1.00  0.00     0.148 C 
BRANCH  21  22
HETATM   22  C   UNL     1      25.086  41.729  49.335  1.00  0.00     0.186 C 
BRANCH  22  23
HETATM   23  O   UNL     1      25.519  41.728  50.699  1.00  0.00    -0.394 OA
HETATM   24  C   UNL     1      26.728  41.005  50.901  1.00  0.00     0.201 C 
ENDBRANCH  22  23
ENDBRANCH  21  22
ENDBRANCH  18  21
ENDBRANCH  16  17
ENDBRANCH   3  16
BRANCH  11  25
HETATM   25  C   UNL     1      19.001  47.531  49.419  1.00  0.00     0.176 C 
BRANCH  25  26
HETATM   26  O   UNL     1      17.993  47.884  50.361  1.00  0.00    -0.400 OA
HETATM   27  H   UNL     1      17.928  47.138  50.984  1.00  0.00     0.209 HD
ENDBRANCH  25  26
ENDBRANCH  11  25
BRANCH   7  28
HETATM   28  N   UNL     1      24.381  47.886  50.314  1.00  0.00    -0.238 NA
HETATM   29  H   UNL     1      23.956  48.310  51.133  1.00  0.00     0.136 HD
BRANCH  28  30
HETATM   30  C   UNL     1      25.248  46.845  50.751  1.00  0.00     0.014 A 
HETATM   31  C   UNL     1      25.396  46.471  52.094  1.00  0.00     0.024 A 
HETATM   32  C   UNL     1      26.278  45.450  52.463  1.00  0.00     0.002 A 
HETATM   33  C   UNL     1      26.996  44.758  51.494  1.00  0.00     0.000 A 
HETATM   34  C   UNL     1      26.823  45.078  50.150  1.00  0.00     0.002 A 
HETATM   35  C   UNL     1      25.946  46.104  49.783  1.00  0.00     0.024 A 
ENDBRANCH  28  30
ENDBRANCH   7  28
BRANCH  13  36
HETATM   36  O   UNL     1      18.275  45.024  48.825  1.00  0.00    -0.395 OA
HETATM   37  H   UNL     1      18.033  45.275  49.734  1.00  0.00     0.210 HD
ENDBRANCH  13  36
TORSDOF 10
ENDMDL
MODEL 8
REMARK VINA RESULT:      -6.8      8.665     11.846
REMARK  10 active torsions:
REMARK  status: ('A' for Active; 'I' for Inactive)
REMARK    1  A    between atoms: C_3  and  C_4 
REMARK    2  A    between atoms: C_4  and  C_5 
REMARK       I    between atoms: C_5  and  N_6 
REMARK    3  A    between atoms: N_6  and  C_7 
REMARK    4  A    between atoms: C_7  and  C_8 
REMARK    5  A    between atoms: C_8  and  O_9 
REMARK    6  A    between atoms: C_15  and  N_16 
REMARK    7  A    between atoms: N_16  and  C_17 
REMARK    8  A    between atoms: C_26  and  C_27 
REMARK    9  A    between atoms: C_27  and  O_28 
REMARK   10  A    between atoms: C_30  and  O_31 
ROOT
HETATM    1  C   UNL     1      18.107  47.991  49.658  1.00  0.00     0.016 C 
HETATM    2  C   UNL     1      18.579  49.313  48.968  1.00  0.00    -0.030 C 
HETATM    3  C   UNL     1      19.404  48.968  47.642  1.00  0.00     0.056 C 
HETATM    4  C   UNL     1      18.463  48.675  46.493  1.00  0.00     0.055 C 
HETATM    5  C   UNL     1      17.098  48.860  46.542  1.00  0.00     0.011 C 
HETATM    6  S   UNL     1      16.380  48.397  45.074  1.00  0.00    -0.060 SA
HETATM    7  C   UNL     1      17.955  48.247  44.377  1.00  0.00     0.150 C 
HETATM    8  N   UNL     1      18.947  48.336  45.241  1.00  0.00    -0.232 NA
HETATM    9  C   UNL     1      16.330  49.416  47.687  1.00  0.00     0.054 C 
HETATM   10  C   UNL     1      17.284  50.176  48.650  1.00  0.00     0.012 C 
HETATM   11  C   UNL     1      17.541  51.709  48.288  1.00  0.00     0.008 C 
HETATM   12  C   UNL     1      16.301  52.498  48.805  1.00  0.00     0.020 C 
HETATM   13  C   UNL     1      18.786  52.262  49.049  1.00  0.00     0.128 C 
HETATM   14  C   UNL     1      19.083  51.477  50.318  1.00  0.00     0.033 C 
HETATM   15  C   UNL     1      19.498  50.042  49.998  1.00  0.00     0.013 C 
ENDROOT
BRANCH   3  16
HETATM   16  C   UNL     1      20.404  47.816  47.864  1.00  0.00     0.114 C 
BRANCH  16  17
HETATM   17  C   UNL     1      21.846  48.226  48.090  1.00  0.00     0.218 C 
HETATM   18  N   UNL     1      22.464  47.665  49.174  1.00  0.00    -0.359 N 
HETATM   19  H   UNL     1      22.062  46.820  49.586  1.00  0.00     0.162 HD
HETATM   20  O   UNL     1      22.378  49.089  47.392  1.00  0.00    -0.274 OA
BRANCH  18  21
HETATM   21  C   UNL     1      23.756  48.130  49.639  1.00  0.00     0.148 C 
BRANCH  21  22
HETATM   22  C   UNL     1      24.576  47.063  50.374  1.00  0.00     0.186 C 
BRANCH  22  23
HETATM   23  O   UNL     1      25.535  47.607  51.286  1.00  0.00    -0.394 OA
HETATM   24  C   UNL     1      25.604  46.897  52.516  1.00  0.00     0.201 C 
ENDBRANCH  22  23
ENDBRANCH  21  22
ENDBRANCH  18  21
ENDBRANCH  16  17
ENDBRANCH   3  16
BRANCH  11  25
HETATM   25  C   UNL     1      17.700  52.040  46.779  1.00  0.00     0.176 C 
BRANCH  25  26
HETATM   26  O   UNL     1      16.637  52.847  46.283  1.00  0.00    -0.400 OA
HETATM   27  H   UNL     1      15.814  52.458  46.630  1.00  0.00     0.209 HD
ENDBRANCH  25  26
ENDBRANCH  11  25
BRANCH   7  28
HETATM   28  N   UNL     1      18.070  48.077  43.033  1.00  0.00    -0.238 NA
HETATM   29  H   UNL     1      17.169  47.971  42.576  1.00  0.00     0.136 HD
BRANCH  28  30
HETATM   30  C   UNL     1      18.877  48.935  42.234  1.00  0.00     0.014 A 
HETATM   31  C   UNL     1      19.841  48.472  41.330  1.00  0.00     0.024 A 
HETATM   32  C   UNL     1      20.617  49.366  40.584  1.00  0.00     0.002 A 
HETATM   33  C   UNL     1      20.412  50.737  40.700  1.00  0.00     0.000 A 
HETATM   34  C   UNL     1      19.422  51.215  41.553  1.00  0.00     0.002 A 
HETATM   35  C   UNL     1      18.653  50.320  42.303  1.00  0.00     0.024 A 
ENDBRANCH  28  30
ENDBRANCH   7  28
BRANCH  13  36
HETATM   36  O   UNL     1      19.948  52.233  48.220  1.00  0.00    -0.395 OA
HETATM   37  H   UNL     1      20.087  51.314  47.928  1.00  0.00     0.210 HD
ENDBRANCH  13  36
TORSDOF 10
ENDMDL
MODEL 9
REMARK VINA RESULT:      -6.6     12.695     14.344
REMARK  10 active torsions:
REMARK  status: ('A' for Active; 'I' for Inactive)
REMARK    1  A    between atoms: C_3  and  C_4 
REMARK    2  A    between atoms: C_4  and  C_5 
REMARK       I    between atoms: C_5  and  N_6 
REMARK    3  A    between atoms: N_6  and  C_7 
REMARK    4  A    between atoms: C_7  and  C_8 
REMARK    5  A    between atoms: C_8  and  O_9 
REMARK    6  A    between atoms: C_15  and  N_16 
REMARK    7  A    between atoms: N_16  and  C_17 
REMARK    8  A    between atoms: C_26  and  C_27 
REMARK    9  A    between atoms: C_27  and  O_28 
REMARK   10  A    between atoms: C_30  and  O_31 
ROOT
HETATM    1  C   UNL     1      31.392  49.670  43.101  1.00  0.00     0.016 C 
HETATM    2  C   UNL     1      31.081  50.487  41.804  1.00  0.00    -0.030 C 
HETATM    3  C   UNL     1      31.636  49.705  40.524  1.00  0.00     0.056 C 
HETATM    4  C   UNL     1      30.667  48.621  40.103  1.00  0.00     0.055 C 
HETATM    5  C   UNL     1      29.407  48.457  40.637  1.00  0.00     0.011 C 
HETATM    6  S   UNL     1      28.630  47.121  39.934  1.00  0.00    -0.060 SA
HETATM    7  C   UNL     1      29.906  47.019  38.772  1.00  0.00     0.150 C 
HETATM    8  N   UNL     1      30.939  47.798  39.024  1.00  0.00    -0.232 NA
HETATM    9  C   UNL     1      28.770  49.328  41.659  1.00  0.00     0.054 C 
HETATM   10  C   UNL     1      29.508  50.694  41.733  1.00  0.00     0.012 C 
HETATM   11  C   UNL     1      28.997  51.803  40.705  1.00  0.00     0.008 C 
HETATM   12  C   UNL     1      27.700  52.409  41.320  1.00  0.00     0.020 C 
HETATM   13  C   UNL     1      30.031  52.965  40.579  1.00  0.00     0.128 C 
HETATM   14  C   UNL     1      30.922  53.082  41.806  1.00  0.00     0.033 C 
HETATM   15  C   UNL     1      31.818  51.855  41.959  1.00  0.00     0.013 C 
ENDROOT
BRANCH   3  16
HETATM   16  C   UNL     1      33.052  49.141  40.758  1.00  0.00     0.114 C 
BRANCH  16  17
HETATM   17  C   UNL     1      34.179  50.154  40.739  1.00  0.00     0.218 C 
HETATM   18  N   UNL     1      34.347  50.839  39.566  1.00  0.00    -0.359 N 
HETATM   19  H   UNL     1      33.574  50.863  38.897  1.00  0.00     0.162 HD
HETATM   20  O   UNL     1      34.950  50.266  41.693  1.00  0.00    -0.274 OA
BRANCH  18  21
HETATM   21  C   UNL     1      35.511  51.669  39.329  1.00  0.00     0.148 C 
BRANCH  21  22
HETATM   22  C   UNL     1      35.257  53.170  39.519  1.00  0.00     0.186 C 
BRANCH  22  23
HETATM   23  O   UNL     1      36.056  53.758  40.550  1.00  0.00    -0.394 OA
HETATM   24  C   UNL     1      37.136  52.929  40.962  1.00  0.00     0.201 C 
ENDBRANCH  22  23
ENDBRANCH  21  22
ENDBRANCH  18  21
ENDBRANCH  16  17
ENDBRANCH   3  16
BRANCH  11  25
HETATM   25  C   UNL     1      28.641  51.303  39.279  1.00  0.00     0.176 C 
BRANCH  25  26
HETATM   26  O   UNL     1      28.248  52.363  38.412  1.00  0.00    -0.400 OA
HETATM   27  H   UNL     1      27.285  52.277  38.295  1.00  0.00     0.209 HD
ENDBRANCH  25  26
ENDBRANCH  11  25
BRANCH   7  28
HETATM   28  N   UNL     1      29.762  46.192  37.703  1.00  0.00    -0.238 NA
HETATM   29  H   UNL     1      30.654  45.913  37.305  1.00  0.00     0.136 HD
BRANCH  28  30
HETATM   30  C   UNL     1      28.917  45.047  37.748  1.00  0.00     0.014 A 
HETATM   31  C   UNL     1      27.635  45.007  37.187  1.00  0.00     0.024 A 
HETATM   32  C   UNL     1      26.844  43.857  37.279  1.00  0.00     0.002 A 
HETATM   33  C   UNL     1      27.338  42.714  37.898  1.00  0.00     0.000 A 
HETATM   34  C   UNL     1      28.631  42.715  38.414  1.00  0.00     0.002 A 
HETATM   35  C   UNL     1      29.417  43.868  38.328  1.00  0.00     0.024 A 
ENDBRANCH  28  30
ENDBRANCH   7  28
BRANCH  13  36
HETATM   36  O   UNL     1      30.863  52.787  39.432  1.00  0.00    -0.395 OA
HETATM   37  H   UNL     1      30.436  53.230  38.678  1.00  0.00     0.210 HD
ENDBRANCH  13  36
TORSDOF 10
ENDMDL
MODEL 10
REMARK VINA RESULT:      -6.5     12.376     15.107
REMARK  10 active torsions:
REMARK  status: ('A' for Active; 'I' for Inactive)
REMARK    1  A    between atoms: C_3  and  C_4 
REMARK    2  A    between atoms: C_4  and  C_5 
REMARK       I    between atoms: C_5  and  N_6 
REMARK    3  A    between atoms: N_6  and  C_7 
REMARK    4  A    between atoms: C_7  and  C_8 
REMARK    5  A    between atoms: C_8  and  O_9 
REMARK    6  A    between atoms: C_15  and  N_16 
REMARK    7  A    between atoms: N_16  and  C_17 
REMARK    8  A    between atoms: C_26  and  C_27 
REMARK    9  A    between atoms: C_27  and  O_28 
REMARK   10  A    between atoms: C_30  and  O_31 
ROOT
HETATM    1  C   UNL     1      27.582  46.576  37.511  1.00  0.00     0.016 C 
HETATM    2  C   UNL     1      26.898  46.541  38.918  1.00  0.00    -0.030 C 
HETATM    3  C   UNL     1      26.572  48.031  39.400  1.00  0.00     0.056 C 
HETATM    4  C   UNL     1      25.291  48.526  38.763  1.00  0.00     0.055 C 
HETATM    5  C   UNL     1      24.439  47.737  38.021  1.00  0.00     0.011 C 
HETATM    6  S   UNL     1      23.125  48.650  37.450  1.00  0.00    -0.060 SA
HETATM    7  C   UNL     1      23.629  49.962  38.457  1.00  0.00     0.150 C 
HETATM    8  N   UNL     1      24.810  49.799  39.019  1.00  0.00    -0.232 NA
HETATM    9  C   UNL     1      24.595  46.281  37.764  1.00  0.00     0.054 C 
HETATM   10  C   UNL     1      25.583  45.660  38.790  1.00  0.00     0.012 C 
HETATM   11  C   UNL     1      24.929  45.182  40.166  1.00  0.00     0.008 C 
HETATM   12  C   UNL     1      24.269  43.800  39.882  1.00  0.00     0.020 C 
HETATM   13  C   UNL     1      26.023  44.954  41.255  1.00  0.00     0.128 C 
HETATM   14  C   UNL     1      27.389  44.665  40.650  1.00  0.00     0.033 C 
HETATM   15  C   UNL     1      27.925  45.876  39.888  1.00  0.00     0.013 C 
ENDROOT
BRANCH   3  16
HETATM   16  C   UNL     1      27.746  48.996  39.137  1.00  0.00     0.114 C 
BRANCH  16  17
HETATM   17  C   UNL     1      28.089  49.943  40.270  1.00  0.00     0.218 C 
HETATM   18  N   UNL     1      27.379  51.113  40.305  1.00  0.00    -0.359 N 
HETATM   19  H   UNL     1      26.498  51.169  39.789  1.00  0.00     0.162 HD
HETATM   20  O   UNL     1      29.020  49.705  41.039  1.00  0.00    -0.274 OA
BRANCH  18  21
HETATM   21  C   UNL     1      27.748  52.201  41.189  1.00  0.00     0.148 C 
BRANCH  21  22
HETATM   22  C   UNL     1      28.911  53.058  40.673  1.00  0.00     0.186 C 
BRANCH  22  23
HETATM   23  O   UNL     1      30.085  52.977  41.487  1.00  0.00    -0.394 OA
HETATM   24  C   UNL     1      31.273  52.763  40.734  1.00  0.00     0.201 C 
ENDBRANCH  22  23
ENDBRANCH  21  22
ENDBRANCH  18  21
ENDBRANCH  16  17
ENDBRANCH   3  16
BRANCH  11  25
HETATM   25  C   UNL     1      23.829  46.105  40.759  1.00  0.00     0.176 C 
BRANCH  25  26
HETATM   26  O   UNL     1      23.280  45.590  41.967  1.00  0.00    -0.400 OA
HETATM   27  H   UNL     1      23.573  46.189  42.678  1.00  0.00     0.209 HD
ENDBRANCH  25  26
ENDBRANCH  11  25
BRANCH   7  28
HETATM   28  N   UNL     1      22.801  51.027  38.618  1.00  0.00    -0.238 NA
HETATM   29  H   UNL     1      22.624  51.518  37.747  1.00  0.00     0.136 HD
BRANCH  28  30
HETATM   30  C   UNL     1      21.571  50.921  39.326  1.00  0.00     0.014 A 
HETATM   31  C   UNL     1      21.460  51.067  40.715  1.00  0.00     0.024 A 
HETATM   32  C   UNL     1      20.224  50.934  41.357  1.00  0.00     0.002 A 
HETATM   33  C   UNL     1      19.072  50.693  40.617  1.00  0.00     0.000 A 
HETATM   34  C   UNL     1      19.152  50.598  39.231  1.00  0.00     0.002 A 
HETATM   35  C   UNL     1      20.389  50.724  38.591  1.00  0.00     0.024 A 
ENDBRANCH  28  30
ENDBRANCH   7  28
BRANCH  13  36
HETATM   36  O   UNL     1      26.140  46.092  42.109  1.00  0.00    -0.395 OA
HETATM   37  H   UNL     1      26.870  46.644  41.776  1.00  0.00     0.210 HD
ENDBRANCH  13  36
TORSDOF 10
ENDMDL
