MODEL 1
REMARK VINA RESULT:     -10.8      0.000      0.000
REMARK  8 active torsions:
REMARK  status: ('A' for Active; 'I' for Inactive)
REMARK    1  A    between atoms: C_6  and  S_7 
REMARK    2  A    between atoms: S_7  and  C_8 
REMARK    3  A    between atoms: C_8  and  C_9 
REMARK       I    between atoms: C_9  and  N_10 
REMARK    4  A    between atoms: N_10  and  C_11 
REMARK    5  A    between atoms: C_24  and  C_25 
REMARK    6  A    between atoms: C_25  and  C_26 
REMARK       I    between atoms: C_26  and  N_27 
REMARK    7  A    between atoms: N_27  and  C_28 
REMARK    8  A    between atoms: C_28  and  C_29 
ROOT
HETATM    1  C   UNL     1      27.579  49.356  49.199  1.00  0.00     0.001 A 
HETATM    2  C   UNL     1      27.276  48.107  49.738  1.00  0.00     0.018 A 
HETATM    3  C   UNL     1      25.989  47.588  49.573  1.00  0.00     0.039 A 
HETATM    4  C   UNL     1      25.003  48.291  48.878  1.00  0.00     0.073 A 
HETATM    5  N   UNL     1      23.713  47.777  48.688  1.00  0.00    -0.223 NA
HETATM    6  C   UNL     1      23.430  46.617  49.185  1.00  0.00     0.178 A 
HETATM    7  N   UNL     1      24.342  45.845  49.894  1.00  0.00    -0.241 N 
HETATM    8  C   UNL     1      25.610  46.280  50.105  1.00  0.00     0.147 A 
HETATM    9  N   UNL     1      26.405  45.509  50.777  1.00  0.00    -0.256 NA
HETATM   10  C   UNL     1      24.217  44.621  50.517  1.00  0.00     0.257 A 
HETATM   11  O   UNL     1      23.222  43.936  50.688  1.00  0.00    -0.270 OA
HETATM   12  C   UNL     1      25.599  44.287  51.052  1.00  0.00     0.211 A 
HETATM   13  C   UNL     1      25.320  49.541  48.345  1.00  0.00     0.032 A 
HETATM   14  C   UNL     1      26.603  50.072  48.503  1.00  0.00     0.002 A 
ENDROOT
BRANCH  12  15
HETATM   15  C   UNL     1      25.555  44.004  52.545  1.00  0.00     0.140 C 
BRANCH  15  16
HETATM   16  C   UNL     1      25.978  45.212  53.350  1.00  0.00     0.220 C 
HETATM   17  N   UNL     1      27.305  45.173  53.720  1.00  0.00    -0.357 N 
HETATM   18  H   UNL     1      27.934  44.596  53.178  1.00  0.00     0.162 HD
HETATM   19  O   UNL     1      25.233  46.148  53.620  1.00  0.00    -0.274 OA
BRANCH  17  20
HETATM   20  C   UNL     1      27.876  46.243  54.508  1.00  0.00     0.161 C 
BRANCH  20  21
HETATM   21  C   UNL     1      28.807  45.773  55.602  1.00  0.00    -0.038 A 
HETATM   22  C   UNL     1      29.697  44.723  55.309  1.00  0.00     0.048 A 
HETATM   23  C   UNL     1      30.585  44.317  56.284  1.00  0.00     0.105 A 
HETATM   24  C   UNL     1      30.617  44.907  57.524  1.00  0.00     0.105 A 
HETATM   25  O   UNL     1      31.514  43.333  56.152  1.00  0.00    -0.323 OA
HETATM   26  O   UNL     1      31.565  44.364  58.333  1.00  0.00    -0.323 OA
HETATM   27  C   UNL     1      29.770  45.940  57.854  1.00  0.00     0.040 A 
HETATM   28  C   UNL     1      32.148  43.386  57.448  1.00  0.00     0.352 A 
HETATM   29  C   UNL     1      28.869  46.384  56.878  1.00  0.00     0.012 A 
ENDBRANCH  20  21
ENDBRANCH  17  20
ENDBRANCH  15  16
ENDBRANCH  12  15
BRANCH   6  30
HETATM   30  S   UNL     1      21.830  45.983  48.884  1.00  0.00    -0.082 SA
BRANCH  30  31
HETATM   31  C   UNL     1      21.422  46.864  47.346  1.00  0.00     0.185 C 
BRANCH  31  32
HETATM   32  C   UNL     1      20.351  47.948  47.465  1.00  0.00     0.231 C 
HETATM   33  N   UNL     1      20.641  48.971  48.346  1.00  0.00    -0.327 N 
HETATM   34  H   UNL     1      21.478  48.831  48.901  1.00  0.00     0.169 HD
HETATM   35  O   UNL     1      19.348  47.880  46.754  1.00  0.00    -0.272 OA
BRANCH  33  36
HETATM   36  C   UNL     1      19.836  50.069  48.699  1.00  0.00     0.034 A 
HETATM   37  C   UNL     1      20.039  51.370  48.232  1.00  0.00     0.032 A 
HETATM   38  C   UNL     1      19.176  52.402  48.619  1.00  0.00     0.044 A 
HETATM   39  C   UNL     1      18.114  52.129  49.471  1.00  0.00     0.116 A 
HETATM   40  F   UNL     1      17.286  53.117  49.834  1.00  0.00    -0.206 F 
HETATM   41  C   UNL     1      17.898  50.845  49.949  1.00  0.00     0.044 A 
HETATM   42  C   UNL     1      18.761  49.816  49.566  1.00  0.00     0.032 A 
ENDBRANCH  33  36
ENDBRANCH  31  32
ENDBRANCH  30  31
ENDBRANCH   6  30
TORSDOF 8
ENDMDL
MODEL 2
REMARK VINA RESULT:     -10.6      3.901     11.196
REMARK  8 active torsions:
REMARK  status: ('A' for Active; 'I' for Inactive)
REMARK    1  A    between atoms: C_6  and  S_7 
REMARK    2  A    between atoms: S_7  and  C_8 
REMARK    3  A    between atoms: C_8  and  C_9 
REMARK       I    between atoms: C_9  and  N_10 
REMARK    4  A    between atoms: N_10  and  C_11 
REMARK    5  A    between atoms: C_24  and  C_25 
REMARK    6  A    between atoms: C_25  and  C_26 
REMARK       I    between atoms: C_26  and  N_27 
REMARK    7  A    between atoms: N_27  and  C_28 
REMARK    8  A    between atoms: C_28  and  C_29 
ROOT
HETATM    1  C   UNL     1      19.269  46.209  46.857  1.00  0.00     0.001 A 
HETATM    2  C   UNL     1      20.181  47.255  46.990  1.00  0.00     0.018 A 
HETATM    3  C   UNL     1      21.331  47.063  47.761  1.00  0.00     0.039 A 
HETATM    4  C   UNL     1      21.587  45.847  48.398  1.00  0.00     0.073 A 
HETATM    5  N   UNL     1      22.744  45.634  49.160  1.00  0.00    -0.223 NA
HETATM    6  C   UNL     1      23.593  46.601  49.282  1.00  0.00     0.178 A 
HETATM    7  N   UNL     1      23.423  47.846  48.690  1.00  0.00    -0.241 N 
HETATM    8  C   UNL     1      22.330  48.117  47.931  1.00  0.00     0.147 A 
HETATM    9  N   UNL     1      22.238  49.299  47.412  1.00  0.00    -0.256 NA
HETATM   10  C   UNL     1      24.188  48.993  48.733  1.00  0.00     0.257 A 
HETATM   11  O   UNL     1      25.183  49.238  49.397  1.00  0.00    -0.270 OA
HETATM   12  C   UNL     1      23.497  49.985  47.813  1.00  0.00     0.211 A 
HETATM   13  C   UNL     1      20.665  44.809  48.258  1.00  0.00     0.032 A 
HETATM   14  C   UNL     1      19.511  44.988  47.490  1.00  0.00     0.002 A 
ENDROOT
BRANCH  12  15
HETATM   15  C   UNL     1      23.188  51.283  48.542  1.00  0.00     0.140 C 
BRANCH  15  16
HETATM   16  C   UNL     1      22.154  51.077  49.626  1.00  0.00     0.220 C 
HETATM   17  N   UNL     1      20.862  51.245  49.175  1.00  0.00    -0.357 N 
HETATM   18  H   UNL     1      20.685  51.138  48.186  1.00  0.00     0.162 HD
HETATM   19  O   UNL     1      22.427  50.759  50.778  1.00  0.00    -0.274 OA
BRANCH  17  20
HETATM   20  C   UNL     1      19.747  51.098  50.083  1.00  0.00     0.161 C 
BRANCH  20  21
HETATM   21  C   UNL     1      18.682  50.139  49.601  1.00  0.00    -0.038 A 
HETATM   22  C   UNL     1      17.739  50.610  48.668  1.00  0.00     0.048 A 
HETATM   23  C   UNL     1      16.793  49.731  48.185  1.00  0.00     0.105 A 
HETATM   24  C   UNL     1      16.746  48.420  48.593  1.00  0.00     0.105 A 
HETATM   25  O   UNL     1      15.828  50.025  47.273  1.00  0.00    -0.323 OA
HETATM   26  O   UNL     1      15.743  47.725  47.995  1.00  0.00    -0.323 OA
HETATM   27  C   UNL     1      17.650  47.913  49.499  1.00  0.00     0.040 A 
HETATM   28  C   UNL     1      15.182  48.741  47.139  1.00  0.00     0.352 A 
HETATM   29  C   UNL     1      18.634  48.779  49.994  1.00  0.00     0.012 A 
ENDBRANCH  20  21
ENDBRANCH  17  20
ENDBRANCH  15  16
ENDBRANCH  12  15
BRANCH   6  30
HETATM   30  S   UNL     1      25.048  46.283  50.194  1.00  0.00    -0.082 SA
BRANCH  30  31
HETATM   31  C   UNL     1      24.525  44.812  51.128  1.00  0.00     0.185 C 
BRANCH  31  32
HETATM   32  C   UNL     1      25.456  44.376  52.258  1.00  0.00     0.231 C 
HETATM   33  N   UNL     1      26.804  44.422  51.964  1.00  0.00    -0.327 N 
HETATM   34  H   UNL     1      27.022  44.630  50.996  1.00  0.00     0.169 HD
HETATM   35  O   UNL     1      24.972  44.068  53.347  1.00  0.00    -0.272 OA
BRANCH  33  36
HETATM   36  C   UNL     1      27.885  44.037  52.777  1.00  0.00     0.034 A 
HETATM   37  C   UNL     1      28.805  43.041  52.439  1.00  0.00     0.032 A 
HETATM   38  C   UNL     1      29.864  42.735  53.300  1.00  0.00     0.044 A 
HETATM   39  C   UNL     1      30.000  43.425  54.497  1.00  0.00     0.116 A 
HETATM   40  F   UNL     1      31.018  43.134  55.317  1.00  0.00    -0.206 F 
HETATM   41  C   UNL     1      29.095  44.414  54.855  1.00  0.00     0.044 A 
HETATM   42  C   UNL     1      28.036  44.717  53.996  1.00  0.00     0.032 A 
ENDBRANCH  33  36
ENDBRANCH  31  32
ENDBRANCH  30  31
ENDBRANCH   6  30
TORSDOF 8
ENDMDL
MODEL 3
REMARK VINA RESULT:     -10.4      2.576      4.085
REMARK  8 active torsions:
REMARK  status: ('A' for Active; 'I' for Inactive)
REMARK    1  A    between atoms: C_6  and  S_7 
REMARK    2  A    between atoms: S_7  and  C_8 
REMARK    3  A    between atoms: C_8  and  C_9 
REMARK       I    between atoms: C_9  and  N_10 
REMARK    4  A    between atoms: N_10  and  C_11 
REMARK    5  A    between atoms: C_24  and  C_25 
REMARK    6  A    between atoms: C_25  and  C_26 
REMARK       I    between atoms: C_26  and  N_27 
REMARK    7  A    between atoms: N_27  and  C_28 
REMARK    8  A    between atoms: C_28  and  C_29 
ROOT
HETATM    1  C   UNL     1      22.009  42.679  47.443  1.00  0.00     0.001 A 
HETATM    2  C   UNL     1      23.068  42.457  48.321  1.00  0.00     0.018 A 
HETATM    3  C   UNL     1      23.647  43.544  48.980  1.00  0.00     0.039 A 
HETATM    4  C   UNL     1      23.186  44.847  48.779  1.00  0.00     0.073 A 
HETATM    5  N   UNL     1      23.745  45.947  49.446  1.00  0.00    -0.223 NA
HETATM    6  C   UNL     1      24.726  45.743  50.264  1.00  0.00     0.178 A 
HETATM    7  N   UNL     1      25.254  44.484  50.525  1.00  0.00    -0.241 N 
HETATM    8  C   UNL     1      24.754  43.377  49.921  1.00  0.00     0.147 A 
HETATM    9  N   UNL     1      25.297  42.238  50.211  1.00  0.00    -0.256 NA
HETATM   10  C   UNL     1      26.302  44.079  51.325  1.00  0.00     0.257 A 
HETATM   11  O   UNL     1      27.109  44.752  51.946  1.00  0.00    -0.270 OA
HETATM   12  C   UNL     1      26.326  42.563  51.236  1.00  0.00     0.211 A 
HETATM   13  C   UNL     1      22.127  45.056  47.896  1.00  0.00     0.032 A 
HETATM   14  C   UNL     1      21.539  43.977  47.230  1.00  0.00     0.002 A 
ENDROOT
BRANCH  12  15
HETATM   15  C   UNL     1      27.693  42.062  50.797  1.00  0.00     0.140 C 
BRANCH  15  16
HETATM   16  C   UNL     1      28.547  41.671  51.982  1.00  0.00     0.220 C 
HETATM   17  N   UNL     1      29.410  42.673  52.375  1.00  0.00    -0.357 N 
HETATM   18  H   UNL     1      29.184  43.624  52.119  1.00  0.00     0.162 HD
HETATM   19  O   UNL     1      28.462  40.593  52.559  1.00  0.00    -0.274 OA
BRANCH  17  20
HETATM   20  C   UNL     1      30.311  42.465  53.486  1.00  0.00     0.161 C 
BRANCH  20  21
HETATM   21  C   UNL     1      30.135  43.454  54.616  1.00  0.00    -0.038 A 
HETATM   22  C   UNL     1      30.942  43.304  55.759  1.00  0.00     0.048 A 
HETATM   23  C   UNL     1      30.824  44.228  56.777  1.00  0.00     0.105 A 
HETATM   24  C   UNL     1      29.943  45.278  56.702  1.00  0.00     0.105 A 
HETATM   25  O   UNL     1      31.539  44.231  57.934  1.00  0.00    -0.323 OA
HETATM   26  O   UNL     1      29.986  46.072  57.805  1.00  0.00    -0.323 OA
HETATM   27  C   UNL     1      29.138  45.469  55.602  1.00  0.00     0.040 A 
HETATM   28  C   UNL     1      31.020  45.418  58.569  1.00  0.00     0.352 A 
HETATM   29  C   UNL     1      29.249  44.555  54.546  1.00  0.00     0.012 A 
ENDBRANCH  20  21
ENDBRANCH  17  20
ENDBRANCH  15  16
ENDBRANCH  12  15
BRANCH   6  30
HETATM   30  S   UNL     1      25.362  47.128  51.116  1.00  0.00    -0.082 SA
BRANCH  30  31
HETATM   31  C   UNL     1      26.009  48.094  49.718  1.00  0.00     0.185 C 
BRANCH  31  32
HETATM   32  C   UNL     1      24.997  48.986  49.001  1.00  0.00     0.231 C 
HETATM   33  N   UNL     1      23.689  48.852  49.422  1.00  0.00    -0.327 N 
HETATM   34  H   UNL     1      23.528  48.097  50.079  1.00  0.00     0.169 HD
HETATM   35  O   UNL     1      25.396  49.784  48.153  1.00  0.00    -0.272 OA
BRANCH  33  36
HETATM   36  C   UNL     1      22.543  49.496  48.921  1.00  0.00     0.034 A 
HETATM   37  C   UNL     1      22.201  50.821  49.207  1.00  0.00     0.032 A 
HETATM   38  C   UNL     1      21.051  51.390  48.649  1.00  0.00     0.044 A 
HETATM   39  C   UNL     1      20.248  50.634  47.806  1.00  0.00     0.116 A 
HETATM   40  F   UNL     1      19.152  51.183  47.268  1.00  0.00    -0.206 F 
HETATM   41  C   UNL     1      20.567  49.317  47.513  1.00  0.00     0.044 A 
HETATM   42  C   UNL     1      21.713  48.747  48.073  1.00  0.00     0.032 A 
ENDBRANCH  33  36
ENDBRANCH  31  32
ENDBRANCH  30  31
ENDBRANCH   6  30
TORSDOF 8
ENDMDL
MODEL 4
REMARK VINA RESULT:     -10.4      4.751      8.714
REMARK  8 active torsions:
REMARK  status: ('A' for Active; 'I' for Inactive)
REMARK    1  A    between atoms: C_6  and  S_7 
REMARK    2  A    between atoms: S_7  and  C_8 
REMARK    3  A    between atoms: C_8  and  C_9 
REMARK       I    between atoms: C_9  and  N_10 
REMARK    4  A    between atoms: N_10  and  C_11 
REMARK    5  A    between atoms: C_24  and  C_25 
REMARK    6  A    between atoms: C_25  and  C_26 
REMARK       I    between atoms: C_26  and  N_27 
REMARK    7  A    between atoms: N_27  and  C_28 
REMARK    8  A    between atoms: C_28  and  C_29 
ROOT
HETATM    1  C   UNL     1      20.399  50.091  48.125  1.00  0.00     0.001 A 
HETATM    2  C   UNL     1      20.818  48.761  48.141  1.00  0.00     0.018 A 
HETATM    3  C   UNL     1      22.084  48.452  48.644  1.00  0.00     0.039 A 
HETATM    4  C   UNL     1      22.936  49.443  49.134  1.00  0.00     0.073 A 
HETATM    5  N   UNL     1      24.202  49.146  49.658  1.00  0.00    -0.223 NA
HETATM    6  C   UNL     1      24.592  47.913  49.677  1.00  0.00     0.178 A 
HETATM    7  N   UNL     1      23.816  46.860  49.209  1.00  0.00    -0.241 N 
HETATM    8  C   UNL     1      22.578  47.076  48.697  1.00  0.00     0.147 A 
HETATM    9  N   UNL     1      21.914  46.047  48.278  1.00  0.00    -0.256 NA
HETATM   10  C   UNL     1      24.069  45.507  49.116  1.00  0.00     0.257 A 
HETATM   11  O   UNL     1      25.101  44.894  49.339  1.00  0.00    -0.270 OA
HETATM   12  C   UNL     1      22.790  44.883  48.585  1.00  0.00     0.211 A 
HETATM   13  C   UNL     1      22.506  50.770  49.111  1.00  0.00     0.032 A 
HETATM   14  C   UNL     1      21.242  51.094  48.609  1.00  0.00     0.002 A 
ENDROOT
BRANCH  12  15
HETATM   15  C   UNL     1      23.057  44.071  47.328  1.00  0.00     0.140 C 
BRANCH  15  16
HETATM   16  C   UNL     1      23.093  42.588  47.625  1.00  0.00     0.220 C 
HETATM   17  N   UNL     1      24.366  42.121  47.872  1.00  0.00    -0.357 N 
HETATM   18  H   UNL     1      25.066  42.784  48.175  1.00  0.00     0.162 HD
HETATM   19  O   UNL     1      22.095  41.877  47.675  1.00  0.00    -0.274 OA
BRANCH  17  20
HETATM   20  C   UNL     1      24.587  40.721  48.160  1.00  0.00     0.161 C 
BRANCH  20  21
HETATM   21  C   UNL     1      26.034  40.367  48.420  1.00  0.00    -0.038 A 
HETATM   22  C   UNL     1      26.313  39.127  49.024  1.00  0.00     0.048 A 
HETATM   23  C   UNL     1      27.631  38.770  49.222  1.00  0.00     0.105 A 
HETATM   24  C   UNL     1      28.667  39.592  48.851  1.00  0.00     0.105 A 
HETATM   25  O   UNL     1      28.065  37.607  49.776  1.00  0.00    -0.323 OA
HETATM   26  O   UNL     1      29.883  39.054  49.130  1.00  0.00    -0.323 OA
HETATM   27  C   UNL     1      28.442  40.811  48.252  1.00  0.00     0.040 A 
HETATM   28  C   UNL     1      29.494  37.784  49.691  1.00  0.00     0.352 A 
HETATM   29  C   UNL     1      27.114  41.191  48.022  1.00  0.00     0.012 A 
ENDBRANCH  20  21
ENDBRANCH  17  20
ENDBRANCH  15  16
ENDBRANCH  12  15
BRANCH   6  30
HETATM   30  S   UNL     1      26.151  47.574  50.386  1.00  0.00    -0.082 SA
BRANCH  30  31
HETATM   31  C   UNL     1      25.646  47.139  52.077  1.00  0.00     0.185 C 
BRANCH  31  32
HETATM   32  C   UNL     1      26.000  45.724  52.534  1.00  0.00     0.231 C 
HETATM   33  N   UNL     1      26.967  45.086  51.784  1.00  0.00    -0.327 N 
HETATM   34  H   UNL     1      27.253  45.581  50.946  1.00  0.00     0.169 HD
HETATM   35  O   UNL     1      25.460  45.268  53.542  1.00  0.00    -0.272 OA
BRANCH  33  36
HETATM   36  C   UNL     1      27.458  43.776  51.931  1.00  0.00     0.034 A 
HETATM   37  C   UNL     1      26.741  42.628  51.582  1.00  0.00     0.032 A 
HETATM   38  C   UNL     1      27.314  41.361  51.744  1.00  0.00     0.044 A 
HETATM   39  C   UNL     1      28.600  41.246  52.254  1.00  0.00     0.116 A 
HETATM   40  F   UNL     1      29.148  40.034  52.403  1.00  0.00    -0.206 F 
HETATM   41  C   UNL     1      29.326  42.373  52.611  1.00  0.00     0.044 A 
HETATM   42  C   UNL     1      28.753  43.638  52.453  1.00  0.00     0.032 A 
ENDBRANCH  33  36
ENDBRANCH  31  32
ENDBRANCH  30  31
ENDBRANCH   6  30
TORSDOF 8
ENDMDL
MODEL 5
REMARK VINA RESULT:     -10.3      2.402      3.350
REMARK  8 active torsions:
REMARK  status: ('A' for Active; 'I' for Inactive)
REMARK    1  A    between atoms: C_6  and  S_7 
REMARK    2  A    between atoms: S_7  and  C_8 
REMARK    3  A    between atoms: C_8  and  C_9 
REMARK       I    between atoms: C_9  and  N_10 
REMARK    4  A    between atoms: N_10  and  C_11 
REMARK    5  A    between atoms: C_24  and  C_25 
REMARK    6  A    between atoms: C_25  and  C_26 
REMARK       I    between atoms: C_26  and  N_27 
REMARK    7  A    between atoms: N_27  and  C_28 
REMARK    8  A    between atoms: C_28  and  C_29 
ROOT
HETATM    1  C   UNL     1      26.834  47.451  50.274  1.00  0.00     0.001 A 
HETATM    2  C   UNL     1      26.745  46.074  50.072  1.00  0.00     0.018 A 
HETATM    3  C   UNL     1      25.556  45.534  49.577  1.00  0.00     0.039 A 
HETATM    4  C   UNL     1      24.457  46.342  49.277  1.00  0.00     0.073 A 
HETATM    5  N   UNL     1      23.264  45.817  48.762  1.00  0.00    -0.223 NA
HETATM    6  C   UNL     1      23.179  44.540  48.572  1.00  0.00     0.178 A 
HETATM    7  N   UNL     1      24.217  43.657  48.844  1.00  0.00    -0.241 N 
HETATM    8  C   UNL     1      25.402  44.100  49.334  1.00  0.00     0.147 A 
HETATM    9  N   UNL     1      26.322  43.219  49.566  1.00  0.00    -0.256 NA
HETATM   10  C   UNL     1      24.302  42.284  48.740  1.00  0.00     0.257 A 
HETATM   11  O   UNL     1      23.433  41.472  48.466  1.00  0.00    -0.270 OA
HETATM   12  C   UNL     1      25.729  41.929  49.119  1.00  0.00     0.211 A 
HETATM   13  C   UNL     1      24.559  47.717  49.485  1.00  0.00     0.032 A 
HETATM   14  C   UNL     1      25.743  48.271  49.981  1.00  0.00     0.002 A 
ENDROOT
BRANCH  12  15
HETATM   15  C   UNL     1      25.758  40.910  50.247  1.00  0.00     0.140 C 
BRANCH  15  16
HETATM   16  C   UNL     1      27.123  40.840  50.895  1.00  0.00     0.220 C 
HETATM   17  N   UNL     1      27.125  41.305  52.193  1.00  0.00    -0.357 N 
HETATM   18  H   UNL     1      26.250  41.312  52.698  1.00  0.00     0.162 HD
HETATM   19  O   UNL     1      28.118  40.386  50.342  1.00  0.00    -0.274 OA
BRANCH  17  20
HETATM   20  C   UNL     1      28.351  41.323  52.959  1.00  0.00     0.161 C 
BRANCH  20  21
HETATM   21  C   UNL     1      28.624  42.638  53.654  1.00  0.00    -0.038 A 
HETATM   22  C   UNL     1      27.718  43.696  53.449  1.00  0.00     0.048 A 
HETATM   23  C   UNL     1      27.929  44.885  54.116  1.00  0.00     0.105 A 
HETATM   24  C   UNL     1      28.996  45.060  54.963  1.00  0.00     0.105 A 
HETATM   25  O   UNL     1      27.141  45.990  54.037  1.00  0.00    -0.323 OA
HETATM   26  O   UNL     1      29.019  46.300  55.521  1.00  0.00    -0.323 OA
HETATM   27  C   UNL     1      29.904  44.053  55.199  1.00  0.00     0.040 A 
HETATM   28  C   UNL     1      27.825  46.874  54.951  1.00  0.00     0.352 A 
HETATM   29  C   UNL     1      29.705  42.828  54.549  1.00  0.00     0.012 A 
ENDBRANCH  20  21
ENDBRANCH  17  20
ENDBRANCH  15  16
ENDBRANCH  12  15
BRANCH   6  30
HETATM   30  S   UNL     1      21.697  43.928  47.880  1.00  0.00    -0.082 SA
BRANCH  30  31
HETATM   31  C   UNL     1      20.480  44.880  48.838  1.00  0.00     0.185 C 
BRANCH  31  32
HETATM   32  C   UNL     1      20.169  46.281  48.313  1.00  0.00     0.231 C 
HETATM   33  N   UNL     1      20.416  47.312  49.198  1.00  0.00    -0.327 N 
HETATM   34  H   UNL     1      20.667  47.018  50.135  1.00  0.00     0.169 HD
HETATM   35  O   UNL     1      19.779  46.412  47.153  1.00  0.00    -0.272 OA
BRANCH  33  36
HETATM   36  C   UNL     1      20.183  48.687  49.017  1.00  0.00     0.034 A 
HETATM   37  C   UNL     1      18.982  49.327  49.337  1.00  0.00     0.032 A 
HETATM   38  C   UNL     1      18.842  50.705  49.142  1.00  0.00     0.044 A 
HETATM   39  C   UNL     1      19.903  51.440  48.629  1.00  0.00     0.116 A 
HETATM   40  F   UNL     1      19.768  52.760  48.449  1.00  0.00    -0.206 F 
HETATM   41  C   UNL     1      21.101  50.823  48.300  1.00  0.00     0.044 A 
HETATM   42  C   UNL     1      21.240  49.447  48.491  1.00  0.00     0.032 A 
ENDBRANCH  33  36
ENDBRANCH  31  32
ENDBRANCH  30  31
ENDBRANCH   6  30
TORSDOF 8
ENDMDL
MODEL 6
REMARK VINA RESULT:     -10.3      3.959     11.718
REMARK  8 active torsions:
REMARK  status: ('A' for Active; 'I' for Inactive)
REMARK    1  A    between atoms: C_6  and  S_7 
REMARK    2  A    between atoms: S_7  and  C_8 
REMARK    3  A    between atoms: C_8  and  C_9 
REMARK       I    between atoms: C_9  and  N_10 
REMARK    4  A    between atoms: N_10  and  C_11 
REMARK    5  A    between atoms: C_24  and  C_25 
REMARK    6  A    between atoms: C_25  and  C_26 
REMARK       I    between atoms: C_26  and  N_27 
REMARK    7  A    between atoms: N_27  and  C_28 
REMARK    8  A    between atoms: C_28  and  C_29 
ROOT
HETATM    1  C   UNL     1      24.719  41.236  48.894  1.00  0.00     0.001 A 
HETATM    2  C   UNL     1      24.325  42.554  48.667  1.00  0.00     0.018 A 
HETATM    3  C   UNL     1      24.754  43.554  49.543  1.00  0.00     0.039 A 
HETATM    4  C   UNL     1      25.571  43.262  50.638  1.00  0.00     0.073 A 
HETATM    5  N   UNL     1      26.024  44.257  51.516  1.00  0.00    -0.223 NA
HETATM    6  C   UNL     1      25.662  45.481  51.306  1.00  0.00     0.178 A 
HETATM    7  N   UNL     1      24.850  45.867  50.247  1.00  0.00    -0.241 N 
HETATM    8  C   UNL     1      24.384  44.956  49.355  1.00  0.00     0.147 A 
HETATM    9  N   UNL     1      23.630  45.388  48.395  1.00  0.00    -0.256 NA
HETATM   10  C   UNL     1      24.339  47.096  49.886  1.00  0.00     0.257 A 
HETATM   11  O   UNL     1      24.396  48.163  50.475  1.00  0.00    -0.270 OA
HETATM   12  C   UNL     1      23.584  46.863  48.588  1.00  0.00     0.211 A 
HETATM   13  C   UNL     1      25.956  41.940  50.855  1.00  0.00     0.032 A 
HETATM   14  C   UNL     1      25.533  40.929  49.986  1.00  0.00     0.002 A 
ENDROOT
BRANCH  12  15
HETATM   15  C   UNL     1      22.146  47.342  48.698  1.00  0.00     0.140 C 
BRANCH  15  16
HETATM   16  C   UNL     1      22.041  48.835  48.485  1.00  0.00     0.220 C 
HETATM   17  N   UNL     1      21.451  49.488  49.546  1.00  0.00    -0.357 N 
HETATM   18  H   UNL     1      21.465  49.037  50.450  1.00  0.00     0.162 HD
HETATM   19  O   UNL     1      22.465  49.415  47.491  1.00  0.00    -0.274 OA
BRANCH  17  20
HETATM   20  C   UNL     1      21.258  50.921  49.506  1.00  0.00     0.161 C 
BRANCH  20  21
HETATM   21  C   UNL     1      19.864  51.343  49.102  1.00  0.00    -0.038 A 
HETATM   22  C   UNL     1      19.480  51.165  47.760  1.00  0.00     0.048 A 
HETATM   23  C   UNL     1      18.195  51.502  47.390  1.00  0.00     0.105 A 
HETATM   24  C   UNL     1      17.291  52.007  48.291  1.00  0.00     0.105 A 
HETATM   25  O   UNL     1      17.668  51.375  46.142  1.00  0.00    -0.323 OA
HETATM   26  O   UNL     1      16.083  52.270  47.725  1.00  0.00    -0.323 OA
HETATM   27  C   UNL     1      17.619  52.194  49.615  1.00  0.00     0.040 A 
HETATM   28  C   UNL     1      16.321  51.840  46.369  1.00  0.00     0.352 A 
HETATM   29  C   UNL     1      18.912  51.844  50.023  1.00  0.00     0.012 A 
ENDBRANCH  20  21
ENDBRANCH  17  20
ENDBRANCH  15  16
ENDBRANCH  12  15
BRANCH   6  30
HETATM   30  S   UNL     1      26.289  46.700  52.388  1.00  0.00    -0.082 SA
BRANCH  30  31
HETATM   31  C   UNL     1      25.753  46.016  53.986  1.00  0.00     0.185 C 
BRANCH  31  32
HETATM   32  C   UNL     1      26.756  45.101  54.687  1.00  0.00     0.231 C 
HETATM   33  N   UNL     1      27.989  45.665  54.947  1.00  0.00    -0.327 N 
HETATM   34  H   UNL     1      28.131  46.583  54.542  1.00  0.00     0.169 HD
HETATM   35  O   UNL     1      26.404  43.968  55.017  1.00  0.00    -0.272 OA
BRANCH  33  36
HETATM   36  C   UNL     1      29.117  45.058  55.528  1.00  0.00     0.034 A 
HETATM   37  C   UNL     1      29.732  45.509  56.700  1.00  0.00     0.032 A 
HETATM   38  C   UNL     1      30.841  44.833  57.221  1.00  0.00     0.044 A 
HETATM   39  C   UNL     1      31.331  43.709  56.570  1.00  0.00     0.116 A 
HETATM   40  F   UNL     1      32.388  43.060  57.075  1.00  0.00    -0.206 F 
HETATM   41  C   UNL     1      30.738  43.248  55.404  1.00  0.00     0.044 A 
HETATM   42  C   UNL     1      29.633  43.924  54.882  1.00  0.00     0.032 A 
ENDBRANCH  33  36
ENDBRANCH  31  32
ENDBRANCH  30  31
ENDBRANCH   6  30
TORSDOF 8
ENDMDL
MODEL 7
REMARK VINA RESULT:     -10.2      2.692      4.038
REMARK  8 active torsions:
REMARK  status: ('A' for Active; 'I' for Inactive)
REMARK    1  A    between atoms: C_6  and  S_7 
REMARK    2  A    between atoms: S_7  and  C_8 
REMARK    3  A    between atoms: C_8  and  C_9 
REMARK       I    between atoms: C_9  and  N_10 
REMARK    4  A    between atoms: N_10  and  C_11 
REMARK    5  A    between atoms: C_24  and  C_25 
REMARK    6  A    between atoms: C_25  and  C_26 
REMARK       I    between atoms: C_26  and  N_27 
REMARK    7  A    between atoms: N_27  and  C_28 
REMARK    8  A    between atoms: C_28  and  C_29 
ROOT
HETATM    1  C   UNL     1      24.032  50.305  48.913  1.00  0.00     0.001 A 
HETATM    2  C   UNL     1      23.912  48.917  48.951  1.00  0.00     0.018 A 
HETATM    3  C   UNL     1      22.747  48.320  48.464  1.00  0.00     0.039 A 
HETATM    4  C   UNL     1      21.703  49.082  47.937  1.00  0.00     0.073 A 
HETATM    5  N   UNL     1      20.535  48.497  47.429  1.00  0.00    -0.223 NA
HETATM    6  C   UNL     1      20.423  47.209  47.460  1.00  0.00     0.178 A 
HETATM    7  N   UNL     1      21.406  46.368  47.968  1.00  0.00    -0.241 N 
HETATM    8  C   UNL     1      22.564  46.869  48.467  1.00  0.00     0.147 A 
HETATM    9  N   UNL     1      23.434  46.026  48.925  1.00  0.00    -0.256 NA
HETATM   10  C   UNL     1      21.452  44.998  48.115  1.00  0.00     0.257 A 
HETATM   11  O   UNL     1      20.580  44.166  47.919  1.00  0.00    -0.270 OA
HETATM   12  C   UNL     1      22.834  44.688  48.666  1.00  0.00     0.211 A 
HETATM   13  C   UNL     1      21.834  50.470  47.907  1.00  0.00     0.032 A 
HETATM   14  C   UNL     1      22.994  51.081  48.392  1.00  0.00     0.002 A 
ENDROOT
BRANCH  12  15
HETATM   15  C   UNL     1      22.742  43.887  49.955  1.00  0.00     0.140 C 
BRANCH  15  16
HETATM   16  C   UNL     1      24.106  43.424  50.417  1.00  0.00     0.220 C 
HETATM   17  N   UNL     1      24.811  44.408  51.077  1.00  0.00    -0.357 N 
HETATM   18  H   UNL     1      24.292  45.169  51.493  1.00  0.00     0.162 HD
HETATM   19  O   UNL     1      24.531  42.286  50.256  1.00  0.00    -0.274 OA
BRANCH  17  20
HETATM   20  C   UNL     1      26.142  44.142  51.576  1.00  0.00     0.161 C 
BRANCH  20  21
HETATM   21  C   UNL     1      26.548  45.014  52.743  1.00  0.00    -0.038 A 
HETATM   22  C   UNL     1      25.845  46.216  52.948  1.00  0.00     0.048 A 
HETATM   23  C   UNL     1      26.174  46.996  54.037  1.00  0.00     0.105 A 
HETATM   24  C   UNL     1      27.165  46.632  54.915  1.00  0.00     0.105 A 
HETATM   25  O   UNL     1      25.581  48.171  54.380  1.00  0.00    -0.323 OA
HETATM   26  O   UNL     1      27.328  47.535  55.918  1.00  0.00    -0.323 OA
HETATM   27  C   UNL     1      27.876  45.463  54.758  1.00  0.00     0.040 A 
HETATM   28  C   UNL     1      26.302  48.493  55.588  1.00  0.00     0.352 A 
HETATM   29  C   UNL     1      27.551  44.643  53.670  1.00  0.00     0.012 A 
ENDBRANCH  20  21
ENDBRANCH  17  20
ENDBRANCH  15  16
ENDBRANCH  12  15
BRANCH   6  30
HETATM   30  S   UNL     1      18.978  46.511  46.770  1.00  0.00    -0.082 SA
BRANCH  30  31
HETATM   31  C   UNL     1      17.930  46.413  48.252  1.00  0.00     0.185 C 
BRANCH  31  32
HETATM   32  C   UNL     1      17.099  47.657  48.562  1.00  0.00     0.231 C 
HETATM   33  N   UNL     1      17.760  48.861  48.419  1.00  0.00    -0.327 N 
HETATM   34  H   UNL     1      18.754  48.782  48.235  1.00  0.00     0.169 HD
HETATM   35  O   UNL     1      15.912  47.525  48.862  1.00  0.00    -0.272 OA
BRANCH  33  36
HETATM   36  C   UNL     1      17.276  50.156  48.678  1.00  0.00     0.034 A 
HETATM   37  C   UNL     1      16.148  50.707  48.063  1.00  0.00     0.032 A 
HETATM   38  C   UNL     1      15.723  51.999  48.395  1.00  0.00     0.044 A 
HETATM   39  C   UNL     1      16.426  52.734  49.340  1.00  0.00     0.116 A 
HETATM   40  F   UNL     1      16.014  53.967  49.660  1.00  0.00    -0.206 F 
HETATM   41  C   UNL     1      17.551  52.207  49.958  1.00  0.00     0.044 A 
HETATM   42  C   UNL     1      17.977  50.919  49.624  1.00  0.00     0.032 A 
ENDBRANCH  33  36
ENDBRANCH  31  32
ENDBRANCH  30  31
ENDBRANCH   6  30
TORSDOF 8
ENDMDL
MODEL 8
REMARK VINA RESULT:     -10.1      4.721     10.582
REMARK  8 active torsions:
REMARK  status: ('A' for Active; 'I' for Inactive)
REMARK    1  A    between atoms: C_6  and  S_7 
REMARK    2  A    between atoms: S_7  and  C_8 
REMARK    3  A    between atoms: C_8  and  C_9 
REMARK       I    between atoms: C_9  and  N_10 
REMARK    4  A    between atoms: N_10  and  C_11 
REMARK    5  A    between atoms: C_24  and  C_25 
REMARK    6  A    between atoms: C_25  and  C_26 
REMARK       I    between atoms: C_26  and  N_27 
REMARK    7  A    between atoms: N_27  and  C_28 
REMARK    8  A    between atoms: C_28  and  C_29 
ROOT
HETATM    1  C   UNL     1      27.514  45.211  54.581  1.00  0.00     0.001 A 
HETATM    2  C   UNL     1      27.025  46.055  53.585  1.00  0.00     0.018 A 
HETATM    3  C   UNL     1      26.065  45.571  52.693  1.00  0.00     0.039 A 
HETATM    4  C   UNL     1      25.583  44.263  52.780  1.00  0.00     0.073 A 
HETATM    5  N   UNL     1      24.608  43.768  51.903  1.00  0.00    -0.223 NA
HETATM    6  C   UNL     1      24.150  44.549  50.980  1.00  0.00     0.178 A 
HETATM    7  N   UNL     1      24.571  45.863  50.813  1.00  0.00    -0.241 N 
HETATM    8  C   UNL     1      25.506  46.407  51.632  1.00  0.00     0.147 A 
HETATM    9  N   UNL     1      25.851  47.636  51.415  1.00  0.00    -0.256 NA
HETATM   10  C   UNL     1      24.230  46.822  49.882  1.00  0.00     0.257 A 
HETATM   11  O   UNL     1      23.527  46.724  48.889  1.00  0.00    -0.270 OA
HETATM   12  C   UNL     1      24.985  48.077  50.287  1.00  0.00     0.211 A 
HETATM   13  C   UNL     1      26.082  43.429  53.780  1.00  0.00     0.032 A 
HETATM   14  C   UNL     1      27.044  43.900  54.679  1.00  0.00     0.002 A 
ENDROOT
BRANCH  12  15
HETATM   15  C   UNL     1      25.832  48.601  49.139  1.00  0.00     0.140 C 
BRANCH  15  16
HETATM   16  C   UNL     1      25.086  49.639  48.330  1.00  0.00     0.220 C 
HETATM   17  N   UNL     1      23.815  49.877  48.805  1.00  0.00    -0.357 N 
HETATM   18  H   UNL     1      23.617  49.651  49.770  1.00  0.00     0.162 HD
HETATM   19  O   UNL     1      25.568  50.233  47.372  1.00  0.00    -0.274 OA
BRANCH  17  20
HETATM   20  C   UNL     1      22.955  50.832  48.142  1.00  0.00     0.161 C 
BRANCH  20  21
HETATM   21  C   UNL     1      21.578  50.952  48.756  1.00  0.00    -0.038 A 
HETATM   22  C   UNL     1      20.472  51.030  47.890  1.00  0.00     0.048 A 
HETATM   23  C   UNL     1      19.207  51.091  48.438  1.00  0.00     0.105 A 
HETATM   24  C   UNL     1      19.005  51.082  49.796  1.00  0.00     0.105 A 
HETATM   25  O   UNL     1      18.041  51.154  47.740  1.00  0.00    -0.323 OA
HETATM   26  O   UNL     1      17.688  51.145  50.127  1.00  0.00    -0.323 OA
HETATM   27  C   UNL     1      20.056  51.001  50.682  1.00  0.00     0.040 A 
HETATM   28  C   UNL     1      17.082  51.163  48.818  1.00  0.00     0.352 A 
HETATM   29  C   UNL     1      21.351  50.920  50.153  1.00  0.00     0.012 A 
ENDBRANCH  20  21
ENDBRANCH  17  20
ENDBRANCH  15  16
ENDBRANCH  12  15
BRANCH   6  30
HETATM   30  S   UNL     1      22.897  43.917  49.940  1.00  0.00    -0.082 SA
BRANCH  30  31
HETATM   31  C   UNL     1      23.891  43.450  48.490  1.00  0.00     0.185 C 
BRANCH  31  32
HETATM   32  C   UNL     1      24.715  42.171  48.632  1.00  0.00     0.231 C 
HETATM   33  N   UNL     1      26.008  42.348  49.081  1.00  0.00    -0.327 N 
HETATM   34  H   UNL     1      26.304  43.315  49.157  1.00  0.00     0.169 HD
HETATM   35  O   UNL     1      24.182  41.087  48.396  1.00  0.00    -0.272 OA
BRANCH  33  36
HETATM   36  C   UNL     1      27.007  41.374  49.260  1.00  0.00     0.034 A 
HETATM   37  C   UNL     1      27.434  40.910  50.507  1.00  0.00     0.032 A 
HETATM   38  C   UNL     1      28.422  39.923  50.594  1.00  0.00     0.044 A 
HETATM   39  C   UNL     1      28.980  39.403  49.434  1.00  0.00     0.116 A 
HETATM   40  F   UNL     1      29.921  38.454  49.519  1.00  0.00    -0.206 F 
HETATM   41  C   UNL     1      28.574  39.854  48.186  1.00  0.00     0.044 A 
HETATM   42  C   UNL     1      27.590  40.842  48.100  1.00  0.00     0.032 A 
ENDBRANCH  33  36
ENDBRANCH  31  32
ENDBRANCH  30  31
ENDBRANCH   6  30
TORSDOF 8
ENDMDL
MODEL 9
REMARK VINA RESULT:     -10.1      3.921     11.202
REMARK  8 active torsions:
REMARK  status: ('A' for Active; 'I' for Inactive)
REMARK    1  A    between atoms: C_6  and  S_7 
REMARK    2  A    between atoms: S_7  and  C_8 
REMARK    3  A    between atoms: C_8  and  C_9 
REMARK       I    between atoms: C_9  and  N_10 
REMARK    4  A    between atoms: N_10  and  C_11 
REMARK    5  A    between atoms: C_24  and  C_25 
REMARK    6  A    between atoms: C_25  and  C_26 
REMARK       I    between atoms: C_26  and  N_27 
REMARK    7  A    between atoms: N_27  and  C_28 
REMARK    8  A    between atoms: C_28  and  C_29 
ROOT
HETATM    1  C   UNL     1      21.739  50.876  48.680  1.00  0.00     0.001 A 
HETATM    2  C   UNL     1      21.123  49.627  48.625  1.00  0.00     0.018 A 
HETATM    3  C   UNL     1      21.908  48.476  48.728  1.00  0.00     0.039 A 
HETATM    4  C   UNL     1      23.293  48.549  48.888  1.00  0.00     0.073 A 
HETATM    5  N   UNL     1      24.091  47.403  49.010  1.00  0.00    -0.223 NA
HETATM    6  C   UNL     1      23.522  46.243  48.962  1.00  0.00     0.178 A 
HETATM    7  N   UNL     1      22.153  46.070  48.802  1.00  0.00    -0.241 N 
HETATM    8  C   UNL     1      21.322  47.136  48.687  1.00  0.00     0.147 A 
HETATM    9  N   UNL     1      20.058  46.899  48.538  1.00  0.00    -0.256 NA
HETATM   10  C   UNL     1      21.380  44.932  48.695  1.00  0.00     0.257 A 
HETATM   11  O   UNL     1      21.725  43.764  48.618  1.00  0.00    -0.270 OA
HETATM   12  C   UNL     1      19.942  45.416  48.612  1.00  0.00     0.211 A 
HETATM   13  C   UNL     1      23.897  49.805  48.940  1.00  0.00     0.032 A 
HETATM   14  C   UNL     1      23.124  50.966  48.837  1.00  0.00     0.002 A 
ENDROOT
BRANCH  12  15
HETATM   15  C   UNL     1      19.253  44.873  47.371  1.00  0.00     0.140 C 
BRANCH  15  16
HETATM   16  C   UNL     1      18.578  45.975  46.585  1.00  0.00     0.220 C 
HETATM   17  N   UNL     1      17.497  46.519  47.246  1.00  0.00    -0.357 N 
HETATM   18  H   UNL     1      17.455  46.422  48.250  1.00  0.00     0.162 HD
HETATM   19  O   UNL     1      18.966  46.370  45.492  1.00  0.00    -0.274 OA
BRANCH  17  20
HETATM   20  C   UNL     1      16.725  47.577  46.633  1.00  0.00     0.161 C 
BRANCH  20  21
HETATM   21  C   UNL     1      17.162  48.969  47.032  1.00  0.00    -0.038 A 
HETATM   22  C   UNL     1      17.112  49.313  48.395  1.00  0.00     0.048 A 
HETATM   23  C   UNL     1      17.553  50.563  48.777  1.00  0.00     0.105 A 
HETATM   24  C   UNL     1      18.031  51.472  47.865  1.00  0.00     0.105 A 
HETATM   25  O   UNL     1      17.584  51.040  50.051  1.00  0.00    -0.323 OA
HETATM   26  O   UNL     1      18.417  52.639  48.447  1.00  0.00    -0.323 OA
HETATM   27  C   UNL     1      18.104  51.178  46.522  1.00  0.00     0.040 A 
HETATM   28  C   UNL     1      18.156  52.347  49.835  1.00  0.00     0.352 A 
HETATM   29  C   UNL     1      17.678  49.909  46.108  1.00  0.00     0.012 A 
ENDBRANCH  20  21
ENDBRANCH  17  20
ENDBRANCH  15  16
ENDBRANCH  12  15
BRANCH   6  30
HETATM   30  S   UNL     1      24.540  44.839  49.172  1.00  0.00    -0.082 SA
BRANCH  30  31
HETATM   31  C   UNL     1      24.838  44.925  50.964  1.00  0.00     0.185 C 
BRANCH  31  32
HETATM   32  C   UNL     1      26.264  44.617  51.416  1.00  0.00     0.231 C 
HETATM   33  N   UNL     1      26.409  44.326  52.758  1.00  0.00    -0.327 N 
HETATM   34  H   UNL     1      25.573  44.461  53.316  1.00  0.00     0.169 HD
HETATM   35  O   UNL     1      27.166  44.594  50.579  1.00  0.00    -0.272 OA
BRANCH  33  36
HETATM   36  C   UNL     1      27.593  44.054  53.466  1.00  0.00     0.034 A 
HETATM   37  C   UNL     1      28.366  42.903  53.289  1.00  0.00     0.032 A 
HETATM   38  C   UNL     1      29.543  42.721  54.022  1.00  0.00     0.044 A 
HETATM   39  C   UNL     1      29.945  43.691  54.931  1.00  0.00     0.116 A 
HETATM   40  F   UNL     1      31.075  43.518  55.627  1.00  0.00    -0.206 F 
HETATM   41  C   UNL     1      29.190  44.839  55.126  1.00  0.00     0.044 A 
HETATM   42  C   UNL     1      28.013  45.019  54.396  1.00  0.00     0.032 A 
ENDBRANCH  33  36
ENDBRANCH  31  32
ENDBRANCH  30  31
ENDBRANCH   6  30
TORSDOF 8
ENDMDL
MODEL 10
REMARK VINA RESULT:     -10.0      3.699     11.037
REMARK  8 active torsions:
REMARK  status: ('A' for Active; 'I' for Inactive)
REMARK    1  A    between atoms: C_6  and  S_7 
REMARK    2  A    between atoms: S_7  and  C_8 
REMARK    3  A    between atoms: C_8  and  C_9 
REMARK       I    between atoms: C_9  and  N_10 
REMARK    4  A    between atoms: N_10  and  C_11 
REMARK    5  A    between atoms: C_24  and  C_25 
REMARK    6  A    between atoms: C_25  and  C_26 
REMARK       I    between atoms: C_26  and  N_27 
REMARK    7  A    between atoms: N_27  and  C_28 
REMARK    8  A    between atoms: C_28  and  C_29 
ROOT
HETATM    1  C   UNL     1      25.629  50.066  48.400  1.00  0.00     0.001 A 
HETATM    2  C   UNL     1      24.706  49.039  48.590  1.00  0.00     0.018 A 
HETATM    3  C   UNL     1      25.126  47.847  49.185  1.00  0.00     0.039 A 
HETATM    4  C   UNL     1      26.448  47.662  49.594  1.00  0.00     0.073 A 
HETATM    5  N   UNL     1      26.880  46.479  50.208  1.00  0.00    -0.223 NA
HETATM    6  C   UNL     1      26.025  45.526  50.388  1.00  0.00     0.178 A 
HETATM    7  N   UNL     1      24.691  45.615  50.011  1.00  0.00    -0.241 N 
HETATM    8  C   UNL     1      24.204  46.736  49.421  1.00  0.00     0.147 A 
HETATM    9  N   UNL     1      22.952  46.746  49.094  1.00  0.00    -0.256 NA
HETATM   10  C   UNL     1      23.655  44.707  50.088  1.00  0.00     0.257 A 
HETATM   11  O   UNL     1      23.674  43.536  50.429  1.00  0.00    -0.270 OA
HETATM   12  C   UNL     1      22.426  45.439  49.576  1.00  0.00     0.211 A 
HETATM   13  C   UNL     1      27.362  48.697  49.396  1.00  0.00     0.032 A 
HETATM   14  C   UNL     1      26.955  49.896  48.802  1.00  0.00     0.002 A 
ENDROOT
BRANCH  12  15
HETATM   15  C   UNL     1      21.771  44.676  48.436  1.00  0.00     0.140 C 
BRANCH  15  16
HETATM   16  C   UNL     1      20.374  45.186  48.160  1.00  0.00     0.220 C 
HETATM   17  N   UNL     1      20.364  46.436  47.579  1.00  0.00    -0.357 N 
HETATM   18  H   UNL     1      21.193  46.739  47.087  1.00  0.00     0.162 HD
HETATM   19  O   UNL     1      19.355  44.546  48.394  1.00  0.00    -0.274 OA
BRANCH  17  20
HETATM   20  C   UNL     1      19.111  47.082  47.258  1.00  0.00     0.161 C 
BRANCH  20  21
HETATM   21  C   UNL     1      18.811  48.298  48.105  1.00  0.00    -0.038 A 
HETATM   22  C   UNL     1      17.641  49.029  47.823  1.00  0.00     0.048 A 
HETATM   23  C   UNL     1      17.332  50.113  48.618  1.00  0.00     0.105 A 
HETATM   24  C   UNL     1      18.133  50.493  49.667  1.00  0.00     0.105 A 
HETATM   25  O   UNL     1      16.236  50.908  48.487  1.00  0.00    -0.323 OA
HETATM   26  O   UNL     1      17.648  51.580  50.324  1.00  0.00    -0.323 OA
HETATM   27  C   UNL     1      19.283  49.806  49.984  1.00  0.00     0.040 A 
HETATM   28  C   UNL     1      16.431  51.820  49.588  1.00  0.00     0.352 A 
HETATM   29  C   UNL     1      19.613  48.691  49.203  1.00  0.00     0.012 A 
ENDBRANCH  20  21
ENDBRANCH  17  20
ENDBRANCH  15  16
ENDBRANCH  12  15
BRANCH   6  30
HETATM   30  S   UNL     1      26.586  44.087  51.204  1.00  0.00    -0.082 SA
BRANCH  30  31
HETATM   31  C   UNL     1      25.987  44.420  52.888  1.00  0.00     0.185 C 
BRANCH  31  32
HETATM   32  C   UNL     1      26.907  43.971  54.022  1.00  0.00     0.231 C 
HETATM   33  N   UNL     1      28.074  44.697  54.159  1.00  0.00    -0.327 N 
HETATM   34  H   UNL     1      28.244  45.372  53.422  1.00  0.00     0.169 HD
HETATM   35  O   UNL     1      26.546  43.053  54.759  1.00  0.00    -0.272 OA
BRANCH  33  36
HETATM   36  C   UNL     1      29.126  44.488  55.069  1.00  0.00     0.034 A 
HETATM   37  C   UNL     1      29.985  43.386  55.035  1.00  0.00     0.032 A 
HETATM   38  C   UNL     1      31.019  43.267  55.969  1.00  0.00     0.044 A 
HETATM   39  C   UNL     1      31.192  44.249  56.934  1.00  0.00     0.116 A 
HETATM   40  F   UNL     1      32.187  44.136  57.824  1.00  0.00    -0.206 F 
HETATM   41  C   UNL     1      30.348  45.349  56.989  1.00  0.00     0.044 A 
HETATM   42  C   UNL     1      29.313  45.466  56.058  1.00  0.00     0.032 A 
ENDBRANCH  33  36
ENDBRANCH  31  32
ENDBRANCH  30  31
ENDBRANCH   6  30
TORSDOF 8
ENDMDL
