MODEL 1
REMARK VINA RESULT:      -9.1      0.000      0.000
REMARK  5 active torsions:
REMARK  status: ('A' for Active; 'I' for Inactive)
REMARK    1  A    between atoms: C_3  and  N_4 
REMARK       I    between atoms: N_4  and  C_5 
REMARK    2  A    between atoms: C_5  and  C_6 
REMARK    3  A    between atoms: C_14  and  C_15 
REMARK    4  A    between atoms: C_21  and  O_22 
REMARK    5  A    between atoms: C_24  and  O_25 
ROOT
HETATM    1  N   UNL     1      28.593  42.714  52.190  1.00  0.00    -0.322 N 
HETATM    2  C   UNL     1      28.215  42.610  53.519  1.00  0.00     0.257 C 
HETATM    3  O   UNL     1      27.591  41.701  54.049  1.00  0.00    -0.267 OA
HETATM    4  H   UNL     1      28.944  43.619  51.901  1.00  0.00     0.169 HD
ENDROOT
BRANCH   2   5
HETATM    5  C   UNL     1      28.610  43.765  54.366  1.00  0.00     0.046 A 
HETATM    6  C   UNL     1      27.904  44.992  54.368  1.00  0.00     0.008 A 
HETATM    7  C   UNL     1      28.455  46.015  55.162  1.00  0.00     0.068 A 
HETATM    8  C   UNL     1      26.693  45.252  53.670  1.00  0.00     0.015 A 
HETATM    9  C   UNL     1      27.842  47.260  55.174  1.00  0.00     0.032 A 
HETATM   10  N   UNL     1      29.545  45.840  55.928  1.00  0.00    -0.252 NA
HETATM   11  C   UNL     1      26.679  47.522  54.446  1.00  0.00     0.002 A 
HETATM   12  C   UNL     1      26.094  46.509  53.702  1.00  0.00     0.001 A 
HETATM   13  C   UNL     1      30.149  44.629  55.969  1.00  0.00     0.039 A 
HETATM   14  C   UNL     1      29.719  43.571  55.189  1.00  0.00     0.045 A 
BRANCH  13  15
HETATM   15  C   UNL     1      31.303  44.455  56.937  1.00  0.00     0.029 C 
HETATM   16  C   UNL     1      30.982  45.079  58.296  1.00  0.00     0.016 C 
HETATM   17  C   UNL     1      31.650  42.973  57.088  1.00  0.00     0.016 C 
ENDBRANCH  13  15
ENDBRANCH   2   5
BRANCH   1  18
HETATM   18  C   UNL     1      28.138  41.875  51.146  1.00  0.00     0.043 A 
HETATM   19  C   UNL     1      27.269  42.263  50.117  1.00  0.00    -0.032 A 
HETATM   20  C   UNL     1      26.568  43.593  50.060  1.00  0.00     0.050 C 
HETATM   21  C   UNL     1      26.979  41.341  49.089  1.00  0.00     0.048 A 
HETATM   22  C   UNL     1      27.500  40.043  49.099  1.00  0.00     0.102 A 
HETATM   23  C   UNL     1      28.320  39.645  50.165  1.00  0.00     0.103 A 
HETATM   24  C   UNL     1      28.605  40.551  51.192  1.00  0.00     0.069 A 
BRANCH  22  25
HETATM   25  O   UNL     1      27.267  39.101  48.130  1.00  0.00    -0.353 OA
HETATM   26  C   UNL     1      27.868  39.298  46.858  1.00  0.00     0.210 C 
ENDBRANCH  22  25
BRANCH  23  27
HETATM   27  O   UNL     1      28.789  38.354  50.130  1.00  0.00    -0.353 OA
HETATM   28  C   UNL     1      29.894  38.046  50.968  1.00  0.00     0.210 C 
ENDBRANCH  23  27
ENDBRANCH   1  18
TORSDOF 5
ENDMDL
MODEL 2
REMARK VINA RESULT:      -9.1      1.261      3.471
REMARK  5 active torsions:
REMARK  status: ('A' for Active; 'I' for Inactive)
REMARK    1  A    between atoms: C_3  and  N_4 
REMARK       I    between atoms: N_4  and  C_5 
REMARK    2  A    between atoms: C_5  and  C_6 
REMARK    3  A    between atoms: C_14  and  C_15 
REMARK    4  A    between atoms: C_21  and  O_22 
REMARK    5  A    between atoms: C_24  and  O_25 
ROOT
HETATM    1  N   UNL     1      28.042  42.079  51.788  1.00  0.00    -0.322 N 
HETATM    2  C   UNL     1      27.845  42.102  53.159  1.00  0.00     0.257 C 
HETATM    3  O   UNL     1      27.588  41.156  53.892  1.00  0.00    -0.267 OA
HETATM    4  H   UNL     1      28.066  42.984  51.332  1.00  0.00     0.169 HD
ENDROOT
BRANCH   2   5
HETATM    5  C   UNL     1      27.941  43.449  53.776  1.00  0.00     0.046 A 
HETATM    6  C   UNL     1      29.001  43.826  54.637  1.00  0.00     0.008 A 
HETATM    7  C   UNL     1      28.902  45.110  55.206  1.00  0.00     0.068 A 
HETATM    8  C   UNL     1      30.144  43.037  54.936  1.00  0.00     0.015 A 
HETATM    9  C   UNL     1      29.880  45.526  56.097  1.00  0.00     0.032 A 
HETATM   10  N   UNL     1      27.907  45.963  54.915  1.00  0.00    -0.252 NA
HETATM   11  C   UNL     1      30.976  44.725  56.423  1.00  0.00     0.002 A 
HETATM   12  C   UNL     1      31.116  43.480  55.830  1.00  0.00     0.001 A 
HETATM   13  C   UNL     1      26.952  45.605  54.023  1.00  0.00     0.039 A 
HETATM   14  C   UNL     1      26.928  44.349  53.445  1.00  0.00     0.045 A 
BRANCH  13  15
HETATM   15  C   UNL     1      25.920  46.649  53.645  1.00  0.00     0.029 C 
HETATM   16  C   UNL     1      26.069  47.908  54.501  1.00  0.00     0.016 C 
HETATM   17  C   UNL     1      26.029  46.988  52.157  1.00  0.00     0.016 C 
ENDBRANCH  13  15
ENDBRANCH   2   5
BRANCH   1  18
HETATM   18  C   UNL     1      27.771  40.977  50.944  1.00  0.00     0.043 A 
HETATM   19  C   UNL     1      26.613  40.815  50.171  1.00  0.00    -0.032 A 
HETATM   20  C   UNL     1      25.414  41.720  50.248  1.00  0.00     0.050 C 
HETATM   21  C   UNL     1      26.527  39.707  49.302  1.00  0.00     0.048 A 
HETATM   22  C   UNL     1      27.544  38.751  49.228  1.00  0.00     0.102 A 
HETATM   23  C   UNL     1      28.673  38.890  50.049  1.00  0.00     0.103 A 
HETATM   24  C   UNL     1      28.761  39.981  50.920  1.00  0.00     0.069 A 
BRANCH  22  25
HETATM   25  O   UNL     1      27.529  37.657  48.401  1.00  0.00    -0.353 OA
HETATM   26  C   UNL     1      26.562  36.649  48.656  1.00  0.00     0.210 C 
ENDBRANCH  22  25
BRANCH  23  27
HETATM   27  O   UNL     1      29.632  37.911  49.947  1.00  0.00    -0.353 OA
HETATM   28  C   UNL     1      29.838  37.089  51.086  1.00  0.00     0.210 C 
ENDBRANCH  23  27
ENDBRANCH   1  18
TORSDOF 5
ENDMDL
MODEL 3
REMARK VINA RESULT:      -8.6      3.211      4.577
REMARK  5 active torsions:
REMARK  status: ('A' for Active; 'I' for Inactive)
REMARK    1  A    between atoms: C_3  and  N_4 
REMARK       I    between atoms: N_4  and  C_5 
REMARK    2  A    between atoms: C_5  and  C_6 
REMARK    3  A    between atoms: C_14  and  C_15 
REMARK    4  A    between atoms: C_21  and  O_22 
REMARK    5  A    between atoms: C_24  and  O_25 
ROOT
HETATM    1  N   UNL     1      25.313  43.757  51.759  1.00  0.00    -0.322 N 
HETATM    2  C   UNL     1      26.293  44.732  51.664  1.00  0.00     0.257 C 
HETATM    3  O   UNL     1      26.568  45.422  50.691  1.00  0.00    -0.267 OA
HETATM    4  H   UNL     1      25.355  43.170  52.583  1.00  0.00     0.169 HD
ENDROOT
BRANCH   2   5
HETATM    5  C   UNL     1      27.100  44.920  52.896  1.00  0.00     0.046 A 
HETATM    6  C   UNL     1      26.920  46.018  53.773  1.00  0.00     0.008 A 
HETATM    7  C   UNL     1      27.821  46.096  54.851  1.00  0.00     0.068 A 
HETATM    8  C   UNL     1      25.902  47.005  53.665  1.00  0.00     0.015 A 
HETATM    9  C   UNL     1      27.733  47.173  55.723  1.00  0.00     0.032 A 
HETATM   10  N   UNL     1      28.759  45.165  55.089  1.00  0.00    -0.252 NA
HETATM   11  C   UNL     1      26.760  48.165  55.581  1.00  0.00     0.002 A 
HETATM   12  C   UNL     1      25.832  48.073  54.556  1.00  0.00     0.001 A 
HETATM   13  C   UNL     1      28.852  44.083  54.280  1.00  0.00     0.039 A 
HETATM   14  C   UNL     1      28.049  43.934  53.165  1.00  0.00     0.045 A 
BRANCH  13  15
HETATM   15  C   UNL     1      29.850  43.008  54.662  1.00  0.00     0.029 C 
HETATM   16  C   UNL     1      30.618  42.506  53.438  1.00  0.00     0.016 C 
HETATM   17  C   UNL     1      30.812  43.532  55.730  1.00  0.00     0.016 C 
ENDBRANCH  13  15
ENDBRANCH   2   5
BRANCH   1  18
HETATM   18  C   UNL     1      24.582  43.229  50.670  1.00  0.00     0.043 A 
HETATM   19  C   UNL     1      24.907  42.060  49.969  1.00  0.00    -0.032 A 
HETATM   20  C   UNL     1      26.175  41.278  50.172  1.00  0.00     0.050 C 
HETATM   21  C   UNL     1      24.026  41.604  48.964  1.00  0.00     0.048 A 
HETATM   22  C   UNL     1      22.868  42.311  48.626  1.00  0.00     0.102 A 
HETATM   23  C   UNL     1      22.583  43.512  49.293  1.00  0.00     0.103 A 
HETATM   24  C   UNL     1      23.456  43.975  50.283  1.00  0.00     0.069 A 
BRANCH  22  25
HETATM   25  O   UNL     1      21.967  41.922  47.669  1.00  0.00    -0.353 OA
HETATM   26  C   UNL     1      22.429  41.817  46.330  1.00  0.00     0.210 C 
ENDBRANCH  22  25
BRANCH  23  27
HETATM   27  O   UNL     1      21.442  44.173  48.907  1.00  0.00    -0.353 OA
HETATM   28  C   UNL     1      21.596  45.505  48.438  1.00  0.00     0.210 C 
ENDBRANCH  23  27
ENDBRANCH   1  18
TORSDOF 5
ENDMDL
MODEL 4
REMARK VINA RESULT:      -8.5      3.885      5.637
REMARK  5 active torsions:
REMARK  status: ('A' for Active; 'I' for Inactive)
REMARK    1  A    between atoms: C_3  and  N_4 
REMARK       I    between atoms: N_4  and  C_5 
REMARK    2  A    between atoms: C_5  and  C_6 
REMARK    3  A    between atoms: C_14  and  C_15 
REMARK    4  A    between atoms: C_21  and  O_22 
REMARK    5  A    between atoms: C_24  and  O_25 
ROOT
HETATM    1  N   UNL     1      25.739  45.153  50.923  1.00  0.00    -0.322 N 
HETATM    2  C   UNL     1      25.538  44.558  52.158  1.00  0.00     0.257 C 
HETATM    3  O   UNL     1      24.576  43.894  52.518  1.00  0.00    -0.267 OA
HETATM    4  H   UNL     1      26.509  45.810  50.871  1.00  0.00     0.169 HD
ENDROOT
BRANCH   2   5
HETATM    5  C   UNL     1      26.626  44.792  53.142  1.00  0.00     0.046 A 
HETATM    6  C   UNL     1      26.722  45.975  53.914  1.00  0.00     0.008 A 
HETATM    7  C   UNL     1      27.857  46.079  54.739  1.00  0.00     0.068 A 
HETATM    8  C   UNL     1      25.765  47.027  53.939  1.00  0.00     0.015 A 
HETATM    9  C   UNL     1      28.041  47.234  55.486  1.00  0.00     0.032 A 
HETATM   10  N   UNL     1      28.771  45.101  54.851  1.00  0.00    -0.252 NA
HETATM   11  C   UNL     1      27.120  48.283  55.468  1.00  0.00     0.002 A 
HETATM   12  C   UNL     1      25.970  48.173  54.703  1.00  0.00     0.001 A 
HETATM   13  C   UNL     1      28.607  43.946  54.163  1.00  0.00     0.039 A 
HETATM   14  C   UNL     1      27.554  43.761  53.287  1.00  0.00     0.045 A 
BRANCH  13  15
HETATM   15  C   UNL     1      29.605  42.833  54.417  1.00  0.00     0.029 C 
HETATM   16  C   UNL     1      30.315  42.423  53.125  1.00  0.00     0.016 C 
HETATM   17  C   UNL     1      30.618  43.261  55.481  1.00  0.00     0.016 C 
ENDBRANCH  13  15
ENDBRANCH   2   5
BRANCH   1  18
HETATM   18  C   UNL     1      24.761  45.279  49.910  1.00  0.00     0.043 A 
HETATM   19  C   UNL     1      24.361  44.256  49.041  1.00  0.00    -0.032 A 
HETATM   20  C   UNL     1      25.030  42.911  48.954  1.00  0.00     0.050 C 
HETATM   21  C   UNL     1      23.301  44.504  48.142  1.00  0.00     0.048 A 
HETATM   22  C   UNL     1      22.676  45.752  48.071  1.00  0.00     0.102 A 
HETATM   23  C   UNL     1      23.123  46.788  48.904  1.00  0.00     0.103 A 
HETATM   24  C   UNL     1      24.179  46.553  49.791  1.00  0.00     0.069 A 
BRANCH  22  25
HETATM   25  O   UNL     1      21.637  46.059  47.230  1.00  0.00    -0.353 OA
HETATM   26  C   UNL     1      21.703  45.576  45.896  1.00  0.00     0.210 C 
ENDBRANCH  22  25
BRANCH  23  27
HETATM   27  O   UNL     1      22.484  47.998  48.778  1.00  0.00    -0.353 OA
HETATM   28  C   UNL     1      23.280  49.111  48.399  1.00  0.00     0.210 C 
ENDBRANCH  23  27
ENDBRANCH   1  18
TORSDOF 5
ENDMDL
MODEL 5
REMARK VINA RESULT:      -8.5      4.375      6.762
REMARK  5 active torsions:
REMARK  status: ('A' for Active; 'I' for Inactive)
REMARK    1  A    between atoms: C_3  and  N_4 
REMARK       I    between atoms: N_4  and  C_5 
REMARK    2  A    between atoms: C_5  and  C_6 
REMARK    3  A    between atoms: C_14  and  C_15 
REMARK    4  A    between atoms: C_21  and  O_22 
REMARK    5  A    between atoms: C_24  and  O_25 
ROOT
HETATM    1  N   UNL     1      25.575  45.523  50.796  1.00  0.00    -0.322 N 
HETATM    2  C   UNL     1      25.350  44.816  51.967  1.00  0.00     0.257 C 
HETATM    3  O   UNL     1      24.283  44.392  52.389  1.00  0.00    -0.267 OA
HETATM    4  H   UNL     1      26.492  45.943  50.706  1.00  0.00     0.169 HD
ENDROOT
BRANCH   2   5
HETATM    5  C   UNL     1      26.563  44.583  52.792  1.00  0.00     0.046 A 
HETATM    6  C   UNL     1      27.314  43.384  52.731  1.00  0.00     0.008 A 
HETATM    7  C   UNL     1      28.387  43.287  53.638  1.00  0.00     0.068 A 
HETATM    8  C   UNL     1      27.091  42.313  51.824  1.00  0.00     0.015 A 
HETATM    9  C   UNL     1      29.136  42.119  53.667  1.00  0.00     0.032 A 
HETATM   10  N   UNL     1      28.732  44.281  54.472  1.00  0.00    -0.252 NA
HETATM   11  C   UNL     1      28.880  41.051  52.805  1.00  0.00     0.002 A 
HETATM   12  C   UNL     1      27.862  41.153  51.870  1.00  0.00     0.001 A 
HETATM   13  C   UNL     1      28.045  45.448  54.447  1.00  0.00     0.039 A 
HETATM   14  C   UNL     1      26.944  45.630  53.631  1.00  0.00     0.045 A 
BRANCH  13  15
HETATM   15  C   UNL     1      28.550  46.576  55.325  1.00  0.00     0.029 C 
HETATM   16  C   UNL     1      27.583  47.761  55.313  1.00  0.00     0.016 C 
HETATM   17  C   UNL     1      28.778  46.075  56.753  1.00  0.00     0.016 C 
ENDBRANCH  13  15
ENDBRANCH   2   5
BRANCH   1  18
HETATM   18  C   UNL     1      24.567  46.072  49.970  1.00  0.00     0.043 A 
HETATM   19  C   UNL     1      23.790  45.350  49.055  1.00  0.00    -0.032 A 
HETATM   20  C   UNL     1      24.022  43.905  48.704  1.00  0.00     0.050 C 
HETATM   21  C   UNL     1      22.754  46.018  48.367  1.00  0.00     0.048 A 
HETATM   22  C   UNL     1      22.517  47.385  48.546  1.00  0.00     0.102 A 
HETATM   23  C   UNL     1      23.340  48.111  49.419  1.00  0.00     0.103 A 
HETATM   24  C   UNL     1      24.374  47.458  50.097  1.00  0.00     0.069 A 
BRANCH  22  25
HETATM   25  O   UNL     1      21.525  48.094  47.918  1.00  0.00    -0.353 OA
HETATM   26  C   UNL     1      20.181  47.809  48.278  1.00  0.00     0.210 C 
ENDBRANCH  22  25
BRANCH  23  27
HETATM   27  O   UNL     1      23.072  49.454  49.541  1.00  0.00    -0.353 OA
HETATM   28  C   UNL     1      23.880  50.343  48.783  1.00  0.00     0.210 C 
ENDBRANCH  23  27
ENDBRANCH   1  18
TORSDOF 5
ENDMDL
MODEL 6
REMARK VINA RESULT:      -8.4      1.259      2.509
REMARK  5 active torsions:
REMARK  status: ('A' for Active; 'I' for Inactive)
REMARK    1  A    between atoms: C_3  and  N_4 
REMARK       I    between atoms: N_4  and  C_5 
REMARK    2  A    between atoms: C_5  and  C_6 
REMARK    3  A    between atoms: C_14  and  C_15 
REMARK    4  A    between atoms: C_21  and  O_22 
REMARK    5  A    between atoms: C_24  and  O_25 
ROOT
HETATM    1  N   UNL     1      28.094  43.127  52.106  1.00  0.00    -0.322 N 
HETATM    2  C   UNL     1      27.848  42.969  53.461  1.00  0.00     0.257 C 
HETATM    3  O   UNL     1      27.291  42.030  54.013  1.00  0.00    -0.267 OA
HETATM    4  H   UNL     1      28.404  44.048  51.820  1.00  0.00     0.169 HD
ENDROOT
BRANCH   2   5
HETATM    5  C   UNL     1      28.308  44.098  54.309  1.00  0.00     0.046 A 
HETATM    6  C   UNL     1      27.643  45.348  54.350  1.00  0.00     0.008 A 
HETATM    7  C   UNL     1      28.253  46.341  55.139  1.00  0.00     0.068 A 
HETATM    8  C   UNL     1      26.420  45.657  53.694  1.00  0.00     0.015 A 
HETATM    9  C   UNL     1      27.683  47.605  55.186  1.00  0.00     0.032 A 
HETATM   10  N   UNL     1      29.360  46.119  55.866  1.00  0.00    -0.252 NA
HETATM   11  C   UNL     1      26.507  47.914  54.500  1.00  0.00     0.002 A 
HETATM   12  C   UNL     1      25.865  46.932  53.762  1.00  0.00     0.001 A 
HETATM   13  C   UNL     1      29.925  44.888  55.872  1.00  0.00     0.039 A 
HETATM   14  C   UNL     1      29.436  43.856  55.094  1.00  0.00     0.045 A 
BRANCH  13  15
HETATM   15  C   UNL     1      31.103  44.663  56.800  1.00  0.00     0.029 C 
HETATM   16  C   UNL     1      30.798  45.167  58.212  1.00  0.00     0.016 C 
HETATM   17  C   UNL     1      31.485  43.182  56.823  1.00  0.00     0.016 C 
ENDBRANCH  13  15
ENDBRANCH   2   5
BRANCH   1  18
HETATM   18  C   UNL     1      27.551  42.320  51.080  1.00  0.00     0.043 A 
HETATM   19  C   UNL     1      27.894  40.983  50.836  1.00  0.00    -0.032 A 
HETATM   20  C   UNL     1      29.011  40.257  51.534  1.00  0.00     0.050 C 
HETATM   21  C   UNL     1      27.197  40.275  49.834  1.00  0.00     0.048 A 
HETATM   22  C   UNL     1      26.207  40.886  49.057  1.00  0.00     0.102 A 
HETATM   23  C   UNL     1      25.913  42.241  49.269  1.00  0.00     0.103 A 
HETATM   24  C   UNL     1      26.607  42.952  50.253  1.00  0.00     0.069 A 
BRANCH  22  25
HETATM   25  O   UNL     1      25.486  40.256  48.075  1.00  0.00    -0.353 OA
HETATM   26  C   UNL     1      25.961  39.002  47.609  1.00  0.00     0.210 C 
ENDBRANCH  22  25
BRANCH  23  27
HETATM   27  O   UNL     1      24.945  42.792  48.464  1.00  0.00    -0.353 OA
HETATM   28  C   UNL     1      24.415  44.048  48.862  1.00  0.00     0.210 C 
ENDBRANCH  23  27
ENDBRANCH   1  18
TORSDOF 5
ENDMDL
MODEL 7
REMARK VINA RESULT:      -8.2      7.981     10.394
REMARK  5 active torsions:
REMARK  status: ('A' for Active; 'I' for Inactive)
REMARK    1  A    between atoms: C_3  and  N_4 
REMARK       I    between atoms: N_4  and  C_5 
REMARK    2  A    between atoms: C_5  and  C_6 
REMARK    3  A    between atoms: C_14  and  C_15 
REMARK    4  A    between atoms: C_21  and  O_22 
REMARK    5  A    between atoms: C_24  and  O_25 
ROOT
HETATM    1  N   UNL     1      21.658  48.708  49.470  1.00  0.00    -0.322 N 
HETATM    2  C   UNL     1      22.539  48.084  48.601  1.00  0.00     0.257 C 
HETATM    3  O   UNL     1      22.378  47.859  47.409  1.00  0.00    -0.267 OA
HETATM    4  H   UNL     1      21.890  48.642  50.454  1.00  0.00     0.169 HD
ENDROOT
BRANCH   2   5
HETATM    5  C   UNL     1      23.806  47.628  49.227  1.00  0.00     0.046 A 
HETATM    6  C   UNL     1      25.024  48.340  49.102  1.00  0.00     0.008 A 
HETATM    7  C   UNL     1      26.152  47.731  49.683  1.00  0.00     0.068 A 
HETATM    8  C   UNL     1      25.182  49.606  48.476  1.00  0.00     0.015 A 
HETATM    9  C   UNL     1      27.388  48.349  49.557  1.00  0.00     0.032 A 
HETATM   10  N   UNL     1      26.089  46.580  50.372  1.00  0.00    -0.252 NA
HETATM   11  C   UNL     1      27.543  49.571  48.898  1.00  0.00     0.002 A 
HETATM   12  C   UNL     1      26.433  50.209  48.367  1.00  0.00     0.001 A 
HETATM   13  C   UNL     1      24.894  45.966  50.546  1.00  0.00     0.039 A 
HETATM   14  C   UNL     1      23.733  46.453  49.975  1.00  0.00     0.045 A 
BRANCH  13  15
HETATM   15  C   UNL     1      24.862  44.734  51.429  1.00  0.00     0.029 C 
HETATM   16  C   UNL     1      24.218  43.552  50.704  1.00  0.00     0.016 C 
HETATM   17  C   UNL     1      26.275  44.380  51.897  1.00  0.00     0.016 C 
ENDBRANCH  13  15
ENDBRANCH   2   5
BRANCH   1  18
HETATM   18  C   UNL     1      20.308  49.014  49.180  1.00  0.00     0.043 A 
HETATM   19  C   UNL     1      19.831  50.272  48.787  1.00  0.00    -0.032 A 
HETATM   20  C   UNL     1      20.665  51.524  48.767  1.00  0.00     0.050 C 
HETATM   21  C   UNL     1      18.470  50.403  48.438  1.00  0.00     0.048 A 
HETATM   22  C   UNL     1      17.585  49.324  48.517  1.00  0.00     0.102 A 
HETATM   23  C   UNL     1      18.059  48.084  48.969  1.00  0.00     0.103 A 
HETATM   24  C   UNL     1      19.405  47.948  49.326  1.00  0.00     0.069 A 
BRANCH  22  25
HETATM   25  O   UNL     1      16.255  49.379  48.185  1.00  0.00    -0.353 OA
HETATM   26  C   UNL     1      15.921  49.461  46.808  1.00  0.00     0.210 C 
ENDBRANCH  22  25
BRANCH  23  27
HETATM   27  O   UNL     1      17.140  47.064  49.043  1.00  0.00    -0.353 OA
HETATM   28  C   UNL     1      17.318  45.971  48.154  1.00  0.00     0.210 C 
ENDBRANCH  23  27
ENDBRANCH   1  18
TORSDOF 5
ENDMDL
MODEL 8
REMARK VINA RESULT:      -8.2      1.857      4.317
REMARK  5 active torsions:
REMARK  status: ('A' for Active; 'I' for Inactive)
REMARK    1  A    between atoms: C_3  and  N_4 
REMARK       I    between atoms: N_4  and  C_5 
REMARK    2  A    between atoms: C_5  and  C_6 
REMARK    3  A    between atoms: C_14  and  C_15 
REMARK    4  A    between atoms: C_21  and  O_22 
REMARK    5  A    between atoms: C_24  and  O_25 
ROOT
HETATM    1  N   UNL     1      27.401  43.485  52.009  1.00  0.00    -0.322 N 
HETATM    2  C   UNL     1      27.481  43.210  53.365  1.00  0.00     0.257 C 
HETATM    3  O   UNL     1      27.180  42.169  53.933  1.00  0.00    -0.267 OA
HETATM    4  H   UNL     1      27.524  44.456  51.749  1.00  0.00     0.169 HD
ENDROOT
BRANCH   2   5
HETATM    5  C   UNL     1      27.970  44.338  54.197  1.00  0.00     0.046 A 
HETATM    6  C   UNL     1      29.124  44.246  55.013  1.00  0.00     0.008 A 
HETATM    7  C   UNL     1      29.406  45.375  55.805  1.00  0.00     0.068 A 
HETATM    8  C   UNL     1      30.014  43.139  55.067  1.00  0.00     0.015 A 
HETATM    9  C   UNL     1      30.494  45.337  56.665  1.00  0.00     0.032 A 
HETATM   10  N   UNL     1      28.676  46.502  55.758  1.00  0.00    -0.252 NA
HETATM   11  C   UNL     1      31.336  44.226  56.748  1.00  0.00     0.002 A 
HETATM   12  C   UNL     1      31.103  43.128  55.935  1.00  0.00     0.001 A 
HETATM   13  C   UNL     1      27.628  46.589  54.906  1.00  0.00     0.039 A 
HETATM   14  C   UNL     1      27.235  45.521  54.120  1.00  0.00     0.045 A 
BRANCH  13  15
HETATM   15  C   UNL     1      26.912  47.922  54.810  1.00  0.00     0.029 C 
HETATM   16  C   UNL     1      25.684  47.825  53.903  1.00  0.00     0.016 C 
HETATM   17  C   UNL     1      26.522  48.416  56.204  1.00  0.00     0.016 C 
ENDBRANCH  13  15
ENDBRANCH   2   5
BRANCH   1  18
HETATM   18  C   UNL     1      26.752  42.674  51.050  1.00  0.00     0.043 A 
HETATM   19  C   UNL     1      27.180  41.402  50.643  1.00  0.00    -0.032 A 
HETATM   20  C   UNL     1      28.486  40.779  51.055  1.00  0.00     0.050 C 
HETATM   21  C   UNL     1      26.375  40.670  49.745  1.00  0.00     0.048 A 
HETATM   22  C   UNL     1      25.190  41.198  49.223  1.00  0.00     0.102 A 
HETATM   23  C   UNL     1      24.801  42.495  49.590  1.00  0.00     0.103 A 
HETATM   24  C   UNL     1      25.599  43.231  50.472  1.00  0.00     0.069 A 
BRANCH  22  25
HETATM   25  O   UNL     1      24.357  40.539  48.355  1.00  0.00    -0.353 OA
HETATM   26  C   UNL     1      24.943  39.922  47.218  1.00  0.00     0.210 C 
ENDBRANCH  22  25
BRANCH  23  27
HETATM   27  O   UNL     1      23.638  42.969  49.032  1.00  0.00    -0.353 OA
HETATM   28  C   UNL     1      22.715  43.602  49.906  1.00  0.00     0.210 C 
ENDBRANCH  23  27
ENDBRANCH   1  18
TORSDOF 5
ENDMDL
MODEL 9
REMARK VINA RESULT:      -7.8      4.449      8.313
REMARK  5 active torsions:
REMARK  status: ('A' for Active; 'I' for Inactive)
REMARK    1  A    between atoms: C_3  and  N_4 
REMARK       I    between atoms: N_4  and  C_5 
REMARK    2  A    between atoms: C_5  and  C_6 
REMARK    3  A    between atoms: C_14  and  C_15 
REMARK    4  A    between atoms: C_21  and  O_22 
REMARK    5  A    between atoms: C_24  and  O_25 
ROOT
HETATM    1  N   UNL     1      25.494  45.733  51.703  1.00  0.00    -0.322 N 
HETATM    2  C   UNL     1      25.690  46.220  50.420  1.00  0.00     0.257 C 
HETATM    3  O   UNL     1      26.745  46.296  49.805  1.00  0.00    -0.267 OA
HETATM    4  H   UNL     1      24.584  45.917  52.109  1.00  0.00     0.169 HD
ENDROOT
BRANCH   2   5
HETATM    5  C   UNL     1      24.461  46.723  49.754  1.00  0.00     0.046 A 
HETATM    6  C   UNL     1      23.531  45.869  49.115  1.00  0.00     0.008 A 
HETATM    7  C   UNL     1      22.462  46.508  48.458  1.00  0.00     0.068 A 
HETATM    8  C   UNL     1      23.576  44.448  49.113  1.00  0.00     0.015 A 
HETATM    9  C   UNL     1      21.539  45.735  47.769  1.00  0.00     0.032 A 
HETATM   10  N   UNL     1      22.283  47.839  48.478  1.00  0.00    -0.252 NA
HETATM   11  C   UNL     1      21.619  44.341  47.731  1.00  0.00     0.002 A 
HETATM   12  C   UNL     1      22.634  43.694  48.418  1.00  0.00     0.001 A 
HETATM   13  C   UNL     1      23.144  48.622  49.170  1.00  0.00     0.039 A 
HETATM   14  C   UNL     1      24.255  48.101  49.808  1.00  0.00     0.045 A 
BRANCH  13  15
HETATM   15  C   UNL     1      22.829  50.103  49.256  1.00  0.00     0.029 C 
HETATM   16  C   UNL     1      23.432  50.865  48.075  1.00  0.00     0.016 C 
HETATM   17  C   UNL     1      21.316  50.319  49.326  1.00  0.00     0.016 C 
ENDBRANCH  13  15
ENDBRANCH   2   5
BRANCH   1  18
HETATM   18  C   UNL     1      26.521  45.423  52.623  1.00  0.00     0.043 A 
HETATM   19  C   UNL     1      26.837  46.172  53.764  1.00  0.00    -0.032 A 
HETATM   20  C   UNL     1      26.228  47.508  54.094  1.00  0.00     0.050 C 
HETATM   21  C   UNL     1      27.829  45.686  54.643  1.00  0.00     0.048 A 
HETATM   22  C   UNL     1      28.528  44.504  54.379  1.00  0.00     0.102 A 
HETATM   23  C   UNL     1      28.246  43.793  53.203  1.00  0.00     0.103 A 
HETATM   24  C   UNL     1      27.271  44.274  52.323  1.00  0.00     0.069 A 
BRANCH  22  25
HETATM   25  O   UNL     1      29.495  43.970  55.191  1.00  0.00    -0.353 OA
HETATM   26  C   UNL     1      30.272  44.868  55.971  1.00  0.00     0.210 C 
ENDBRANCH  22  25
BRANCH  23  27
HETATM   27  O   UNL     1      28.976  42.649  52.987  1.00  0.00    -0.353 OA
HETATM   28  C   UNL     1      28.283  41.413  53.089  1.00  0.00     0.210 C 
ENDBRANCH  23  27
ENDBRANCH   1  18
TORSDOF 5
ENDMDL
MODEL 10
REMARK VINA RESULT:      -7.8      4.902      9.261
REMARK  5 active torsions:
REMARK  status: ('A' for Active; 'I' for Inactive)
REMARK    1  A    between atoms: C_3  and  N_4 
REMARK       I    between atoms: N_4  and  C_5 
REMARK    2  A    between atoms: C_5  and  C_6 
REMARK    3  A    between atoms: C_14  and  C_15 
REMARK    4  A    between atoms: C_21  and  O_22 
REMARK    5  A    between atoms: C_24  and  O_25 
ROOT
HETATM    1  N   UNL     1      25.069  46.158  51.762  1.00  0.00    -0.322 N 
HETATM    2  C   UNL     1      25.356  46.546  50.462  1.00  0.00     0.257 C 
HETATM    3  O   UNL     1      26.459  46.663  49.946  1.00  0.00    -0.267 OA
HETATM    4  H   UNL     1      24.110  46.293  52.059  1.00  0.00     0.169 HD
ENDROOT
BRANCH   2   5
HETATM    5  C   UNL     1      24.166  46.870  49.636  1.00  0.00     0.046 A 
HETATM    6  C   UNL     1      23.377  45.880  49.002  1.00  0.00     0.008 A 
HETATM    7  C   UNL     1      22.334  46.356  48.186  1.00  0.00     0.068 A 
HETATM    8  C   UNL     1      23.538  44.475  49.149  1.00  0.00     0.015 A 
HETATM    9  C   UNL     1      21.551  45.441  47.495  1.00  0.00     0.032 A 
HETATM   10  N   UNL     1      22.046  47.661  48.054  1.00  0.00    -0.252 NA
HETATM   11  C   UNL     1      21.747  44.063  47.607  1.00  0.00     0.002 A 
HETATM   12  C   UNL     1      22.735  43.577  48.449  1.00  0.00     0.001 A 
HETATM   13  C   UNL     1      22.766  48.580  48.740  1.00  0.00     0.039 A 
HETATM   14  C   UNL     1      23.844  48.223  49.530  1.00  0.00     0.045 A 
BRANCH  13  15
HETATM   15  C   UNL     1      22.325  50.027  48.645  1.00  0.00     0.029 C 
HETATM   16  C   UNL     1      23.448  50.913  48.103  1.00  0.00     0.016 C 
HETATM   17  C   UNL     1      21.073  50.144  47.774  1.00  0.00     0.016 C 
ENDBRANCH  13  15
ENDBRANCH   2   5
BRANCH   1  18
HETATM   18  C   UNL     1      26.018  46.028  52.802  1.00  0.00     0.043 A 
HETATM   19  C   UNL     1      26.777  44.880  53.065  1.00  0.00    -0.032 A 
HETATM   20  C   UNL     1      26.578  43.559  52.374  1.00  0.00     0.050 C 
HETATM   21  C   UNL     1      27.757  44.932  54.080  1.00  0.00     0.048 A 
HETATM   22  C   UNL     1      27.955  46.081  54.851  1.00  0.00     0.102 A 
HETATM   23  C   UNL     1      27.149  47.206  54.619  1.00  0.00     0.103 A 
HETATM   24  C   UNL     1      26.170  47.159  53.622  1.00  0.00     0.069 A 
BRANCH  22  25
HETATM   25  O   UNL     1      28.893  46.203  55.845  1.00  0.00    -0.353 OA
HETATM   26  C   UNL     1      29.887  45.194  55.941  1.00  0.00     0.210 C 
ENDBRANCH  22  25
BRANCH  23  27
HETATM   27  O   UNL     1      27.377  48.300  55.419  1.00  0.00    -0.353 OA
HETATM   28  C   UNL     1      26.251  48.861  56.079  1.00  0.00     0.210 C 
ENDBRANCH  23  27
ENDBRANCH   1  18
TORSDOF 5
ENDMDL
