MODEL 1
REMARK VINA RESULT:      -7.5      0.000      0.000
REMARK  5 active torsions:
REMARK  status: ('A' for Active; 'I' for Inactive)
REMARK    1  A    between atoms: C_7  and  C_8 
REMARK    2  A    between atoms: C_8  and  N_9 
REMARK    3  A    between atoms: C_12  and  C_13 
REMARK    4  A    between atoms: C_13  and  C_14 
REMARK    5  A    between atoms: C_14  and  O_15 
ROOT
HETATM    1  C   UNL     1      28.003  46.612  55.950  1.00  0.00     0.020 A 
HETATM    2  C   UNL     1      27.258  46.475  54.800  1.00  0.00     0.117 A 
HETATM    3  N   UNL     1      27.475  45.510  53.874  1.00  0.00    -0.260 NA
HETATM    4  C   UNL     1      28.502  44.653  54.074  1.00  0.00     0.076 A 
HETATM    5  C   UNL     1      29.320  44.695  55.228  1.00  0.00     0.011 A 
HETATM    6  C   UNL     1      29.036  45.710  56.166  1.00  0.00     0.016 A 
HETATM    7  C   UNL     1      28.738  43.675  53.103  1.00  0.00    -0.003 A 
HETATM    8  C   UNL     1      29.771  42.737  53.258  1.00  0.00     0.012 A 
HETATM    9  C   UNL     1      30.570  42.764  54.392  1.00  0.00     0.020 A 
HETATM   10  C   UNL     1      30.353  43.733  55.371  1.00  0.00     0.023 A 
HETATM   11 BR   UNL     1      31.502  43.684  56.887  1.00  0.00    -0.050 Br
ENDROOT
BRANCH   7  12
HETATM   12  C   UNL     1      27.898  43.649  51.849  1.00  0.00     0.275 C 
BRANCH  12  13
HETATM   13  N   UNL     1      26.604  42.890  51.990  1.00  0.00    -0.067 N 
HETATM   14  H   UNL     1      26.516  42.788  53.021  1.00  0.00     0.280 HD
HETATM   15  C   UNL     1      26.597  41.501  51.401  1.00  0.00     0.240 C 
HETATM   16  C   UNL     1      25.640  41.583  50.215  1.00  0.00     0.015 C 
HETATM   17  C   UNL     1      24.590  42.561  50.742  1.00  0.00     0.034 C 
HETATM   18  C   UNL     1      25.395  43.624  51.473  1.00  0.00     0.235 C 
BRANCH  16  19
HETATM   19  C   UNL     1      26.294  42.095  48.921  1.00  0.00     0.032 C 
BRANCH  19  20
HETATM   20  C   UNL     1      27.392  41.182  48.385  1.00  0.00     0.164 C 
BRANCH  20  21
HETATM   21  O   UNL     1      27.848  41.708  47.149  1.00  0.00    -0.401 OA
HETATM   22  H   UNL     1      28.721  41.320  46.958  1.00  0.00     0.209 HD
ENDBRANCH  20  21
ENDBRANCH  19  20
ENDBRANCH  16  19
ENDBRANCH  12  13
ENDBRANCH   7  12
TORSDOF 5
ENDMDL
MODEL 2
REMARK VINA RESULT:      -7.3      2.402      2.989
REMARK  5 active torsions:
REMARK  status: ('A' for Active; 'I' for Inactive)
REMARK    1  A    between atoms: C_7  and  C_8 
REMARK    2  A    between atoms: C_8  and  N_9 
REMARK    3  A    between atoms: C_12  and  C_13 
REMARK    4  A    between atoms: C_13  and  C_14 
REMARK    5  A    between atoms: C_14  and  O_15 
ROOT
HETATM    1  C   UNL     1      28.065  47.477  55.186  1.00  0.00     0.020 A 
HETATM    2  C   UNL     1      26.890  47.351  54.480  1.00  0.00     0.117 A 
HETATM    3  N   UNL     1      26.470  46.190  53.922  1.00  0.00    -0.260 NA
HETATM    4  C   UNL     1      27.264  45.102  54.037  1.00  0.00     0.076 A 
HETATM    5  C   UNL     1      28.484  45.117  54.754  1.00  0.00     0.011 A 
HETATM    6  C   UNL     1      28.863  46.349  55.329  1.00  0.00     0.016 A 
HETATM    7  C   UNL     1      26.838  43.913  53.437  1.00  0.00    -0.003 A 
HETATM    8  C   UNL     1      27.600  42.739  53.537  1.00  0.00     0.012 A 
HETATM    9  C   UNL     1      28.792  42.742  54.249  1.00  0.00     0.020 A 
HETATM   10  C   UNL     1      29.236  43.918  54.852  1.00  0.00     0.023 A 
HETATM   11 BR   UNL     1      30.880  43.817  55.805  1.00  0.00    -0.050 Br
ENDROOT
BRANCH   7  12
HETATM   12  C   UNL     1      25.560  43.898  52.633  1.00  0.00     0.275 C 
BRANCH  12  13
HETATM   13  N   UNL     1      25.766  43.709  51.152  1.00  0.00    -0.067 N 
HETATM   14  H   UNL     1      25.915  42.684  51.076  1.00  0.00     0.280 HD
HETATM   15  C   UNL     1      26.986  44.383  50.574  1.00  0.00     0.240 C 
HETATM   16  C   UNL     1      26.435  45.487  49.676  1.00  0.00     0.015 C 
HETATM   17  C   UNL     1      25.176  44.823  49.119  1.00  0.00     0.034 C 
HETATM   18  C   UNL     1      24.578  44.088  50.308  1.00  0.00     0.235 C 
BRANCH  16  19
HETATM   19  C   UNL     1      26.107  46.791  50.421  1.00  0.00     0.032 C 
BRANCH  19  20
HETATM   20  C   UNL     1      26.642  48.043  49.733  1.00  0.00     0.164 C 
BRANCH  20  21
HETATM   21  O   UNL     1      27.689  47.660  48.856  1.00  0.00    -0.401 OA
HETATM   22  H   UNL     1      28.175  48.464  48.595  1.00  0.00     0.209 HD
ENDBRANCH  20  21
ENDBRANCH  19  20
ENDBRANCH  16  19
ENDBRANCH  12  13
ENDBRANCH   7  12
TORSDOF 5
ENDMDL
MODEL 3
REMARK VINA RESULT:      -6.8      1.619      1.985
REMARK  5 active torsions:
REMARK  status: ('A' for Active; 'I' for Inactive)
REMARK    1  A    between atoms: C_7  and  C_8 
REMARK    2  A    between atoms: C_8  and  N_9 
REMARK    3  A    between atoms: C_12  and  C_13 
REMARK    4  A    between atoms: C_13  and  C_14 
REMARK    5  A    between atoms: C_14  and  O_15 
ROOT
HETATM    1  C   UNL     1      26.211  47.370  54.343  1.00  0.00     0.020 A 
HETATM    2  C   UNL     1      25.992  46.686  53.168  1.00  0.00     0.117 A 
HETATM    3  N   UNL     1      26.702  45.597  52.789  1.00  0.00    -0.260 NA
HETATM    4  C   UNL     1      27.706  45.177  53.593  1.00  0.00     0.076 A 
HETATM    5  C   UNL     1      28.006  45.798  54.828  1.00  0.00     0.011 A 
HETATM    6  C   UNL     1      27.222  46.917  55.180  1.00  0.00     0.016 A 
HETATM    7  C   UNL     1      28.453  44.069  53.184  1.00  0.00    -0.003 A 
HETATM    8  C   UNL     1      29.493  43.564  53.980  1.00  0.00     0.012 A 
HETATM    9  C   UNL     1      29.787  44.160  55.199  1.00  0.00     0.020 A 
HETATM   10  C   UNL     1      29.055  45.268  55.623  1.00  0.00     0.023 A 
HETATM   11 BR   UNL     1      29.535  46.010  57.309  1.00  0.00    -0.050 Br
ENDROOT
BRANCH   7  12
HETATM   12  C   UNL     1      28.168  43.427  51.847  1.00  0.00     0.275 C 
BRANCH  12  13
HETATM   13  N   UNL     1      27.071  42.394  51.882  1.00  0.00    -0.067 N 
HETATM   14  H   UNL     1      26.643  42.554  52.815  1.00  0.00     0.280 HD
HETATM   15  C   UNL     1      27.529  40.957  51.842  1.00  0.00     0.240 C 
HETATM   16  C   UNL     1      27.059  40.434  50.487  1.00  0.00     0.015 C 
HETATM   17  C   UNL     1      25.730  41.171  50.324  1.00  0.00     0.034 C 
HETATM   18  C   UNL     1      26.012  42.578  50.828  1.00  0.00     0.235 C 
BRANCH  16  19
HETATM   19  C   UNL     1      28.025  40.742  49.331  1.00  0.00     0.032 C 
BRANCH  19  20
HETATM   20  C   UNL     1      28.755  39.513  48.796  1.00  0.00     0.164 C 
BRANCH  20  21
HETATM   21  O   UNL     1      29.559  38.982  49.836  1.00  0.00    -0.401 OA
HETATM   22  H   UNL     1      29.488  38.010  49.809  1.00  0.00     0.209 HD
ENDBRANCH  20  21
ENDBRANCH  19  20
ENDBRANCH  16  19
ENDBRANCH  12  13
ENDBRANCH   7  12
TORSDOF 5
ENDMDL
MODEL 4
REMARK VINA RESULT:      -6.8      2.062      2.515
REMARK  5 active torsions:
REMARK  status: ('A' for Active; 'I' for Inactive)
REMARK    1  A    between atoms: C_7  and  C_8 
REMARK    2  A    between atoms: C_8  and  N_9 
REMARK    3  A    between atoms: C_12  and  C_13 
REMARK    4  A    between atoms: C_13  and  C_14 
REMARK    5  A    between atoms: C_14  and  O_15 
ROOT
HETATM    1  C   UNL     1      27.985  47.162  55.519  1.00  0.00     0.020 A 
HETATM    2  C   UNL     1      26.863  46.959  54.748  1.00  0.00     0.117 A 
HETATM    3  N   UNL     1      26.604  45.806  54.087  1.00  0.00    -0.260 NA
HETATM    4  C   UNL     1      27.514  44.808  54.161  1.00  0.00     0.076 A 
HETATM    5  C   UNL     1      28.693  44.905  54.937  1.00  0.00     0.011 A 
HETATM    6  C   UNL     1      28.902  46.123  55.618  1.00  0.00     0.016 A 
HETATM    7  C   UNL     1      27.254  43.629  53.455  1.00  0.00    -0.003 A 
HETATM    8  C   UNL     1      28.143  42.545  53.508  1.00  0.00     0.012 A 
HETATM    9  C   UNL     1      29.296  42.628  54.276  1.00  0.00     0.020 A 
HETATM   10  C   UNL     1      29.575  43.796  54.985  1.00  0.00     0.023 A 
HETATM   11 BR   UNL     1      31.180  43.807  56.008  1.00  0.00    -0.050 Br
ENDROOT
BRANCH   7  12
HETATM   12  C   UNL     1      26.020  43.533  52.590  1.00  0.00     0.275 C 
BRANCH  12  13
HETATM   13  N   UNL     1      25.929  44.599  51.528  1.00  0.00    -0.067 N 
HETATM   14  H   UNL     1      26.598  45.316  51.873  1.00  0.00     0.280 HD
HETATM   15  C   UNL     1      24.585  45.270  51.393  1.00  0.00     0.240 C 
HETATM   16  C   UNL     1      24.055  44.816  50.035  1.00  0.00     0.015 C 
HETATM   17  C   UNL     1      25.343  44.757  49.214  1.00  0.00     0.034 C 
HETATM   18  C   UNL     1      26.367  44.149  50.160  1.00  0.00     0.235 C 
BRANCH  16  19
HETATM   19  C   UNL     1      23.338  43.457  50.067  1.00  0.00     0.032 C 
BRANCH  19  20
HETATM   20  C   UNL     1      23.170  42.817  48.693  1.00  0.00     0.164 C 
BRANCH  20  21
HETATM   21  O   UNL     1      22.432  41.616  48.845  1.00  0.00    -0.401 OA
HETATM   22  H   UNL     1      21.571  41.838  49.244  1.00  0.00     0.209 HD
ENDBRANCH  20  21
ENDBRANCH  19  20
ENDBRANCH  16  19
ENDBRANCH  12  13
ENDBRANCH   7  12
TORSDOF 5
ENDMDL
MODEL 5
REMARK VINA RESULT:      -6.7      8.746     10.783
REMARK  5 active torsions:
REMARK  status: ('A' for Active; 'I' for Inactive)
REMARK    1  A    between atoms: C_7  and  C_8 
REMARK    2  A    between atoms: C_8  and  N_9 
REMARK    3  A    between atoms: C_12  and  C_13 
REMARK    4  A    between atoms: C_13  and  C_14 
REMARK    5  A    between atoms: C_14  and  O_15 
ROOT
HETATM    1  C   UNL     1      22.030  45.779  48.710  1.00  0.00     0.020 A 
HETATM    2  C   UNL     1      20.925  46.430  48.209  1.00  0.00     0.117 A 
HETATM    3  N   UNL     1      20.893  47.757  47.938  1.00  0.00    -0.260 NA
HETATM    4  C   UNL     1      21.997  48.490  48.205  1.00  0.00     0.076 A 
HETATM    5  C   UNL     1      23.191  47.920  48.706  1.00  0.00     0.011 A 
HETATM    6  C   UNL     1      23.172  46.530  48.953  1.00  0.00     0.016 A 
HETATM    7  C   UNL     1      21.950  49.864  47.948  1.00  0.00    -0.003 A 
HETATM    8  C   UNL     1      23.068  50.681  48.179  1.00  0.00     0.012 A 
HETATM    9  C   UNL     1      24.247  50.127  48.659  1.00  0.00     0.020 A 
HETATM   10  C   UNL     1      24.313  48.760  48.925  1.00  0.00     0.023 A 
HETATM   11 BR   UNL     1      25.974  48.100  49.579  1.00  0.00    -0.050 Br
ENDROOT
BRANCH   7  12
HETATM   12  C   UNL     1      20.667  50.488  47.454  1.00  0.00     0.275 C 
BRANCH  12  13
HETATM   13  N   UNL     1      20.145  51.597  48.331  1.00  0.00    -0.067 N 
HETATM   14  H   UNL     1      20.827  52.361  48.154  1.00  0.00     0.280 HD
HETATM   15  C   UNL     1      20.162  51.318  49.813  1.00  0.00     0.240 C 
HETATM   16  C   UNL     1      18.691  51.220  50.210  1.00  0.00     0.015 C 
HETATM   17  C   UNL     1      18.062  52.270  49.295  1.00  0.00     0.034 C 
HETATM   18  C   UNL     1      18.769  52.083  47.962  1.00  0.00     0.235 C 
BRANCH  16  19
HETATM   19  C   UNL     1      18.076  49.830  49.987  1.00  0.00     0.032 C 
BRANCH  19  20
HETATM   20  C   UNL     1      18.822  48.705  50.698  1.00  0.00     0.164 C 
BRANCH  20  21
HETATM   21  O   UNL     1      18.614  48.843  52.094  1.00  0.00    -0.401 OA
HETATM   22  H   UNL     1      18.650  49.792  52.314  1.00  0.00     0.209 HD
ENDBRANCH  20  21
ENDBRANCH  19  20
ENDBRANCH  16  19
ENDBRANCH  12  13
ENDBRANCH   7  12
TORSDOF 5
ENDMDL
MODEL 6
REMARK VINA RESULT:      -6.7      3.328      6.030
REMARK  5 active torsions:
REMARK  status: ('A' for Active; 'I' for Inactive)
REMARK    1  A    between atoms: C_7  and  C_8 
REMARK    2  A    between atoms: C_8  and  N_9 
REMARK    3  A    between atoms: C_12  and  C_13 
REMARK    4  A    between atoms: C_13  and  C_14 
REMARK    5  A    between atoms: C_14  and  O_15 
ROOT
HETATM    1  C   UNL     1      23.103  43.509  49.553  1.00  0.00     0.020 A 
HETATM    2  C   UNL     1      23.736  42.713  50.482  1.00  0.00     0.117 A 
HETATM    3  N   UNL     1      24.612  43.183  51.402  1.00  0.00    -0.260 NA
HETATM    4  C   UNL     1      24.907  44.502  51.388  1.00  0.00     0.076 A 
HETATM    5  C   UNL     1      24.303  45.412  50.488  1.00  0.00     0.011 A 
HETATM    6  C   UNL     1      23.386  44.869  49.563  1.00  0.00     0.016 A 
HETATM    7  C   UNL     1      25.832  44.977  52.323  1.00  0.00    -0.003 A 
HETATM    8  C   UNL     1      26.166  46.339  52.382  1.00  0.00     0.012 A 
HETATM    9  C   UNL     1      25.569  47.240  51.510  1.00  0.00     0.020 A 
HETATM   10  C   UNL     1      24.647  46.786  50.568  1.00  0.00     0.023 A 
HETATM   11 BR   UNL     1      23.886  48.100  49.421  1.00  0.00    -0.050 Br
ENDROOT
BRANCH   7  12
HETATM   12  C   UNL     1      26.513  44.008  53.259  1.00  0.00     0.275 C 
BRANCH  12  13
HETATM   13  N   UNL     1      28.001  44.213  53.380  1.00  0.00    -0.067 N 
HETATM   14  H   UNL     1      28.088  45.248  53.350  1.00  0.00     0.280 HD
HETATM   15  C   UNL     1      28.829  43.662  52.245  1.00  0.00     0.240 C 
HETATM   16  C   UNL     1      29.615  42.507  52.858  1.00  0.00     0.015 C 
HETATM   17  C   UNL     1      29.891  43.041  54.263  1.00  0.00     0.034 C 
HETATM   18  C   UNL     1      28.592  43.717  54.673  1.00  0.00     0.235 C 
BRANCH  16  19
HETATM   19  C   UNL     1      28.843  41.178  52.897  1.00  0.00     0.032 C 
BRANCH  19  20
HETATM   20  C   UNL     1      27.992  40.924  51.656  1.00  0.00     0.164 C 
BRANCH  20  21
HETATM   21  O   UNL     1      28.827  40.385  50.644  1.00  0.00    -0.401 OA
HETATM   22  H   UNL     1      28.545  40.758  49.789  1.00  0.00     0.209 HD
ENDBRANCH  20  21
ENDBRANCH  19  20
ENDBRANCH  16  19
ENDBRANCH  12  13
ENDBRANCH   7  12
TORSDOF 5
ENDMDL
MODEL 7
REMARK VINA RESULT:      -6.4      1.641      2.387
REMARK  5 active torsions:
REMARK  status: ('A' for Active; 'I' for Inactive)
REMARK    1  A    between atoms: C_7  and  C_8 
REMARK    2  A    between atoms: C_8  and  N_9 
REMARK    3  A    between atoms: C_12  and  C_13 
REMARK    4  A    between atoms: C_13  and  C_14 
REMARK    5  A    between atoms: C_14  and  O_15 
ROOT
HETATM    1  C   UNL     1      26.098  46.017  54.246  1.00  0.00     0.020 A 
HETATM    2  C   UNL     1      25.622  45.012  53.434  1.00  0.00     0.117 A 
HETATM    3  N   UNL     1      26.299  43.868  53.178  1.00  0.00    -0.260 NA
HETATM    4  C   UNL     1      27.527  43.716  53.723  1.00  0.00     0.076 A 
HETATM    5  C   UNL     1      28.105  44.679  54.584  1.00  0.00     0.011 A 
HETATM    6  C   UNL     1      27.347  45.843  54.830  1.00  0.00     0.016 A 
HETATM    7  C   UNL     1      28.234  42.545  53.435  1.00  0.00    -0.003 A 
HETATM    8  C   UNL     1      29.503  42.311  53.986  1.00  0.00     0.012 A 
HETATM    9  C   UNL     1      30.072  43.245  54.842  1.00  0.00     0.020 A 
HETATM   10  C   UNL     1      29.385  44.421  55.140  1.00  0.00     0.023 A 
HETATM   11 BR   UNL     1      30.251  45.635  56.323  1.00  0.00    -0.050 Br
ENDROOT
BRANCH   7  12
HETATM   12  C   UNL     1      27.643  41.532  52.483  1.00  0.00     0.275 C 
BRANCH  12  13
HETATM   13  N   UNL     1      28.191  41.613  51.081  1.00  0.00    -0.067 N 
HETATM   14  H   UNL     1      29.147  41.991  51.236  1.00  0.00     0.280 HD
HETATM   15  C   UNL     1      27.477  42.568  50.157  1.00  0.00     0.240 C 
HETATM   16  C   UNL     1      26.797  41.677  49.121  1.00  0.00     0.015 C 
HETATM   17  C   UNL     1      27.826  40.557  48.966  1.00  0.00     0.034 C 
HETATM   18  C   UNL     1      28.305  40.284  50.383  1.00  0.00     0.235 C 
BRANCH  16  19
HETATM   19  C   UNL     1      25.430  41.135  49.566  1.00  0.00     0.032 C 
BRANCH  19  20
HETATM   20  C   UNL     1      24.257  41.691  48.765  1.00  0.00     0.164 C 
BRANCH  20  21
HETATM   21  O   UNL     1      24.773  42.472  47.700  1.00  0.00    -0.401 OA
HETATM   22  H   UNL     1      25.622  42.855  47.988  1.00  0.00     0.209 HD
ENDBRANCH  20  21
ENDBRANCH  19  20
ENDBRANCH  16  19
ENDBRANCH  12  13
ENDBRANCH   7  12
TORSDOF 5
ENDMDL
MODEL 8
REMARK VINA RESULT:      -6.4      2.298      2.948
REMARK  5 active torsions:
REMARK  status: ('A' for Active; 'I' for Inactive)
REMARK    1  A    between atoms: C_7  and  C_8 
REMARK    2  A    between atoms: C_8  and  N_9 
REMARK    3  A    between atoms: C_12  and  C_13 
REMARK    4  A    between atoms: C_13  and  C_14 
REMARK    5  A    between atoms: C_14  and  O_15 
ROOT
HETATM    1  C   UNL     1      25.772  45.653  53.745  1.00  0.00     0.020 A 
HETATM    2  C   UNL     1      25.364  44.512  53.091  1.00  0.00     0.117 A 
HETATM    3  N   UNL     1      26.114  43.387  53.003  1.00  0.00    -0.260 NA
HETATM    4  C   UNL     1      27.346  43.396  53.559  1.00  0.00     0.076 A 
HETATM    5  C   UNL     1      27.858  44.509  54.267  1.00  0.00     0.011 A 
HETATM    6  C   UNL     1      27.026  45.646  54.342  1.00  0.00     0.016 A 
HETATM    7  C   UNL     1      28.126  42.241  53.442  1.00  0.00    -0.003 A 
HETATM    8  C   UNL     1      29.405  42.172  54.016  1.00  0.00     0.012 A 
HETATM    9  C   UNL     1      29.910  43.255  54.723  1.00  0.00     0.020 A 
HETATM   10  C   UNL     1      29.149  44.417  54.848  1.00  0.00     0.023 A 
HETATM   11 BR   UNL     1      29.930  45.843  55.836  1.00  0.00    -0.050 Br
ENDROOT
BRANCH   7  12
HETATM   12  C   UNL     1      27.606  41.065  52.651  1.00  0.00     0.275 C 
BRANCH  12  13
HETATM   13  N   UNL     1      27.106  41.422  51.275  1.00  0.00    -0.067 N 
HETATM   14  H   UNL     1      26.561  42.288  51.453  1.00  0.00     0.280 HD
HETATM   15  C   UNL     1      26.166  40.424  50.645  1.00  0.00     0.240 C 
HETATM   16  C   UNL     1      26.949  39.833  49.475  1.00  0.00     0.015 C 
HETATM   17  C   UNL     1      27.744  41.048  49.000  1.00  0.00     0.034 C 
HETATM   18  C   UNL     1      28.194  41.732  50.282  1.00  0.00     0.235 C 
BRANCH  16  19
HETATM   19  C   UNL     1      27.872  38.668  49.868  1.00  0.00     0.032 C 
BRANCH  19  20
HETATM   20  C   UNL     1      27.293  37.292  49.556  1.00  0.00     0.164 C 
BRANCH  20  21
HETATM   21  O   UNL     1      27.770  36.375  50.528  1.00  0.00    -0.401 OA
HETATM   22  H   UNL     1      28.693  36.608  50.737  1.00  0.00     0.209 HD
ENDBRANCH  20  21
ENDBRANCH  19  20
ENDBRANCH  16  19
ENDBRANCH  12  13
ENDBRANCH   7  12
TORSDOF 5
ENDMDL
MODEL 9
REMARK VINA RESULT:      -6.3     12.762     14.275
REMARK  5 active torsions:
REMARK  status: ('A' for Active; 'I' for Inactive)
REMARK    1  A    between atoms: C_7  and  C_8 
REMARK    2  A    between atoms: C_8  and  N_9 
REMARK    3  A    between atoms: C_12  and  C_13 
REMARK    4  A    between atoms: C_13  and  C_14 
REMARK    5  A    between atoms: C_14  and  O_15 
ROOT
HETATM    1  C   UNL     1      32.240  48.214  41.247  1.00  0.00     0.020 A 
HETATM    2  C   UNL     1      31.497  48.329  40.094  1.00  0.00     0.117 A 
HETATM    3  N   UNL     1      30.803  49.441  39.755  1.00  0.00    -0.260 NA
HETATM    4  C   UNL     1      30.813  50.487  40.612  1.00  0.00     0.076 A 
HETATM    5  C   UNL     1      31.556  50.481  41.816  1.00  0.00     0.011 A 
HETATM    6  C   UNL     1      32.274  49.303  42.110  1.00  0.00     0.016 A 
HETATM    7  C   UNL     1      30.074  51.623  40.269  1.00  0.00    -0.003 A 
HETATM    8  C   UNL     1      30.060  52.754  41.100  1.00  0.00     0.012 A 
HETATM    9  C   UNL     1      30.795  52.761  42.278  1.00  0.00     0.020 A 
HETATM   10  C   UNL     1      31.537  51.637  42.639  1.00  0.00     0.023 A 
HETATM   11 BR   UNL     1      32.511  51.749  44.270  1.00  0.00    -0.050 Br
ENDROOT
BRANCH   7  12
HETATM   12  C   UNL     1      29.244  51.622  39.008  1.00  0.00     0.275 C 
BRANCH  12  13
HETATM   13  N   UNL     1      27.762  51.484  39.247  1.00  0.00    -0.067 N 
HETATM   14  H   UNL     1      27.440  52.472  39.230  1.00  0.00     0.280 HD
HETATM   15  C   UNL     1      27.369  50.909  40.585  1.00  0.00     0.240 C 
HETATM   16  C   UNL     1      26.763  49.546  40.263  1.00  0.00     0.015 C 
HETATM   17  C   UNL     1      26.057  49.835  38.938  1.00  0.00     0.034 C 
HETATM   18  C   UNL     1      27.030  50.720  38.175  1.00  0.00     0.235 C 
BRANCH  16  19
HETATM   19  C   UNL     1      27.801  48.421  40.120  1.00  0.00     0.032 C 
BRANCH  19  20
HETATM   20  C   UNL     1      27.956  47.563  41.372  1.00  0.00     0.164 C 
BRANCH  20  21
HETATM   21  O   UNL     1      28.532  48.362  42.393  1.00  0.00    -0.401 OA
HETATM   22  H   UNL     1      28.222  49.278  42.272  1.00  0.00     0.209 HD
ENDBRANCH  20  21
ENDBRANCH  19  20
ENDBRANCH  16  19
ENDBRANCH  12  13
ENDBRANCH   7  12
TORSDOF 5
ENDMDL
MODEL 10
REMARK VINA RESULT:      -6.3     12.488     13.841
REMARK  5 active torsions:
REMARK  status: ('A' for Active; 'I' for Inactive)
REMARK    1  A    between atoms: C_7  and  C_8 
REMARK    2  A    between atoms: C_8  and  N_9 
REMARK    3  A    between atoms: C_12  and  C_13 
REMARK    4  A    between atoms: C_13  and  C_14 
REMARK    5  A    between atoms: C_14  and  O_15 
ROOT
HETATM    1  C   UNL     1      30.103  53.397  40.696  1.00  0.00     0.020 A 
HETATM    2  C   UNL     1      28.977  52.671  40.377  1.00  0.00     0.117 A 
HETATM    3  N   UNL     1      28.783  51.383  40.750  1.00  0.00    -0.260 NA
HETATM    4  C   UNL     1      29.762  50.765  41.447  1.00  0.00     0.076 A 
HETATM    5  C   UNL     1      30.952  51.422  41.841  1.00  0.00     0.011 A 
HETATM    6  C   UNL     1      31.093  52.767  41.440  1.00  0.00     0.016 A 
HETATM    7  C   UNL     1      29.568  49.428  41.807  1.00  0.00    -0.003 A 
HETATM    8  C   UNL     1      30.532  48.732  42.553  1.00  0.00     0.012 A 
HETATM    9  C   UNL     1      31.697  49.373  42.953  1.00  0.00     0.020 A 
HETATM   10  C   UNL     1      31.911  50.705  42.602  1.00  0.00     0.023 A 
HETATM   11 BR   UNL     1      33.538  51.491  43.200  1.00  0.00    -0.050 Br
ENDROOT
BRANCH   7  12
HETATM   12  C   UNL     1      28.321  48.706  41.354  1.00  0.00     0.275 C 
BRANCH  12  13
HETATM   13  N   UNL     1      28.568  47.648  40.310  1.00  0.00    -0.067 N 
HETATM   14  H   UNL     1      29.531  47.329  40.538  1.00  0.00     0.280 HD
HETATM   15  C   UNL     1      28.584  48.133  38.882  1.00  0.00     0.240 C 
HETATM   16  C   UNL     1      27.340  47.518  38.246  1.00  0.00     0.015 C 
HETATM   17  C   UNL     1      27.282  46.161  38.947  1.00  0.00     0.034 C 
HETATM   18  C   UNL     1      27.638  46.467  40.393  1.00  0.00     0.235 C 
BRANCH  16  19
HETATM   19  C   UNL     1      26.056  48.331  38.475  1.00  0.00     0.032 C 
BRANCH  19  20
HETATM   20  C   UNL     1      26.281  49.840  38.509  1.00  0.00     0.164 C 
BRANCH  20  21
HETATM   21  O   UNL     1      25.535  50.379  39.589  1.00  0.00    -0.401 OA
HETATM   22  H   UNL     1      25.352  49.659  40.220  1.00  0.00     0.209 HD
ENDBRANCH  20  21
ENDBRANCH  19  20
ENDBRANCH  16  19
ENDBRANCH  12  13
ENDBRANCH   7  12
TORSDOF 5
ENDMDL
