MODEL 1
REMARK VINA RESULT:     -10.8      0.000      0.000
REMARK  5 active torsions:
REMARK  status: ('A' for Active; 'I' for Inactive)
REMARK    1  A    between atoms: C_8  and  C_9 
REMARK    2  A    between atoms: N_10  and  N_11 
REMARK    3  A    between atoms: C_22  and  C_23 
REMARK       I    between atoms: C_23  and  N_24 
REMARK    4  A    between atoms: N_24  and  C_25 
REMARK    5  A    between atoms: C_33  and  N_34 
ROOT
HETATM    1  N   UNL     1      27.273  42.315  51.067  1.00  0.00    -0.197 N 
HETATM    2  C   UNL     1      27.804  42.901  52.206  1.00  0.00     0.183 A 
HETATM    3  C   UNL     1      26.884  43.832  52.662  1.00  0.00     0.125 A 
HETATM    4  N   UNL     1      27.143  44.630  53.735  1.00  0.00    -0.242 NA
HETATM    5  C   UNL     1      28.338  44.414  54.310  1.00  0.00     0.086 A 
HETATM    6  C   UNL     1      29.264  43.451  53.826  1.00  0.00     0.088 A 
HETATM    7  N   UNL     1      29.020  42.676  52.758  1.00  0.00    -0.225 NA
HETATM    8  C   UNL     1      28.680  45.179  55.419  1.00  0.00     0.034 A 
HETATM    9  C   UNL     1      29.908  45.023  56.062  1.00  0.00     0.002 A 
HETATM   10  C   UNL     1      30.814  44.085  55.588  1.00  0.00     0.002 A 
HETATM   11  C   UNL     1      30.483  43.308  54.478  1.00  0.00     0.034 A 
HETATM   12  C   UNL     1      25.763  43.825  51.794  1.00  0.00     0.110 C 
HETATM   13  C   UNL     1      25.981  42.801  50.886  1.00  0.00     0.143 C 
ENDROOT
BRANCH   1  14
HETATM   14  N   UNL     1      27.875  41.474  50.161  1.00  0.00    -0.176 NA
HETATM   15  C   UNL     1      27.740  40.227  50.474  1.00  0.00     0.153 C 
BRANCH  15  16
HETATM   16  C   UNL     1      28.392  39.209  49.680  1.00  0.00     0.011 A 
HETATM   17  C   UNL     1      28.146  38.920  48.299  1.00  0.00     0.004 A 
HETATM   18  C   UNL     1      27.292  39.462  47.315  1.00  0.00     0.014 A 
HETATM   19  C   UNL     1      28.952  37.834  47.951  1.00  0.00     0.043 A 
HETATM   20  C   UNL     1      27.272  38.904  46.032  1.00  0.00     0.001 A 
HETATM   21  C   UNL     1      28.088  37.821  45.718  1.00  0.00     0.002 A 
HETATM   22  C   UNL     1      28.947  37.265  46.672  1.00  0.00     0.030 A 
HETATM   23  N   UNL     1      29.673  37.490  49.073  1.00  0.00    -0.364 N 
HETATM   24  H   UNL     1      30.338  36.730  49.115  1.00  0.00     0.165 HD
HETATM   25  C   UNL     1      29.335  38.302  50.120  1.00  0.00     0.102 A 
ENDBRANCH  15  16
ENDBRANCH   1  14
BRANCH  13  26
HETATM   26  N   UNL     1      25.215  42.366  49.857  1.00  0.00    -0.383 N 
HETATM   27  H   UNL     1      24.848  41.414  49.836  1.00  0.00     0.157 HD
HETATM   28  H   UNL     1      25.205  42.866  48.969  1.00  0.00     0.157 HD
ENDBRANCH  13  26
BRANCH  12  29
HETATM   29  C   UNL     1      24.669  44.785  51.743  1.00  0.00     0.262 C 
HETATM   30  N   UNL     1      25.082  46.084  52.003  1.00  0.00    -0.323 N 
HETATM   31  H   UNL     1      25.797  46.148  52.727  1.00  0.00     0.169 HD
HETATM   32  O   UNL     1      23.534  44.493  51.377  1.00  0.00    -0.267 OA
BRANCH  30  33
HETATM   33  C   UNL     1      25.357  46.960  50.917  1.00  0.00     0.035 A 
HETATM   34  C   UNL     1      26.652  47.384  50.597  1.00  0.00     0.031 A 
HETATM   35  C   UNL     1      26.847  48.370  49.625  1.00  0.00     0.026 A 
HETATM   36  C   UNL     1      25.753  48.919  48.962  1.00  0.00     0.034 A 
HETATM   37 CL   UNL     1      25.991  50.162  47.798  1.00  0.00    -0.084 Cl
HETATM   38  C   UNL     1      24.463  48.477  49.248  1.00  0.00     0.026 A 
HETATM   39  C   UNL     1      24.266  47.495  50.223  1.00  0.00     0.031 A 
ENDBRANCH  30  33
ENDBRANCH  12  29
TORSDOF 5
ENDMDL
MODEL 2
REMARK VINA RESULT:     -10.2      3.052      8.307
REMARK  5 active torsions:
REMARK  status: ('A' for Active; 'I' for Inactive)
REMARK    1  A    between atoms: C_8  and  C_9 
REMARK    2  A    between atoms: N_10  and  N_11 
REMARK    3  A    between atoms: C_22  and  C_23 
REMARK       I    between atoms: C_23  and  N_24 
REMARK    4  A    between atoms: N_24  and  C_25 
REMARK    5  A    between atoms: C_33  and  N_34 
ROOT
HETATM    1  N   UNL     1      25.790  44.553  51.043  1.00  0.00    -0.197 N 
HETATM    2  C   UNL     1      24.901  45.365  50.355  1.00  0.00     0.183 A 
HETATM    3  C   UNL     1      24.196  44.558  49.476  1.00  0.00     0.125 A 
HETATM    4  N   UNL     1      23.287  45.072  48.602  1.00  0.00    -0.242 NA
HETATM    5  C   UNL     1      23.125  46.403  48.689  1.00  0.00     0.086 A 
HETATM    6  C   UNL     1      23.859  47.211  49.600  1.00  0.00     0.088 A 
HETATM    7  N   UNL     1      24.769  46.709  50.450  1.00  0.00    -0.225 NA
HETATM    8  C   UNL     1      22.209  47.010  47.839  1.00  0.00     0.034 A 
HETATM    9  C   UNL     1      21.996  48.389  47.860  1.00  0.00     0.002 A 
HETATM   10  C   UNL     1      22.713  49.178  48.748  1.00  0.00     0.002 A 
HETATM   11  C   UNL     1      23.635  48.582  49.609  1.00  0.00     0.034 A 
HETATM   12  C   UNL     1      24.652  43.223  49.620  1.00  0.00     0.110 C 
HETATM   13  C   UNL     1      25.553  43.233  50.672  1.00  0.00     0.143 C 
ENDROOT
BRANCH   1  14
HETATM   14  N   UNL     1      26.819  44.908  51.882  1.00  0.00    -0.176 NA
HETATM   15  C   UNL     1      26.446  45.000  53.117  1.00  0.00     0.153 C 
BRANCH  15  16
HETATM   16  C   UNL     1      27.382  45.455  54.121  1.00  0.00     0.011 A 
HETATM   17  C   UNL     1      28.565  44.773  54.554  1.00  0.00     0.004 A 
HETATM   18  C   UNL     1      29.189  43.559  54.197  1.00  0.00     0.014 A 
HETATM   19  C   UNL     1      29.139  45.538  55.571  1.00  0.00     0.043 A 
HETATM   20  C   UNL     1      30.351  43.156  54.862  1.00  0.00     0.001 A 
HETATM   21  C   UNL     1      30.898  43.943  55.872  1.00  0.00     0.002 A 
HETATM   22  C   UNL     1      30.303  45.152  56.245  1.00  0.00     0.030 A 
HETATM   23  N   UNL     1      28.345  46.652  55.735  1.00  0.00    -0.364 N 
HETATM   24  H   UNL     1      28.519  47.384  56.410  1.00  0.00     0.165 HD
HETATM   25  C   UNL     1      27.280  46.606  54.878  1.00  0.00     0.102 A 
ENDBRANCH  15  16
ENDBRANCH   1  14
BRANCH  13  26
HETATM   26  N   UNL     1      26.266  42.221  51.224  1.00  0.00    -0.383 N 
HETATM   27  H   UNL     1      26.154  41.969  52.207  1.00  0.00     0.157 HD
HETATM   28  H   UNL     1      27.105  41.867  50.767  1.00  0.00     0.157 HD
ENDBRANCH  13  26
BRANCH  12  29
HETATM   29  C   UNL     1      24.370  42.086  48.755  1.00  0.00     0.262 C 
HETATM   30  N   UNL     1      25.377  41.855  47.829  1.00  0.00    -0.323 N 
HETATM   31  H   UNL     1      25.786  42.708  47.450  1.00  0.00     0.169 HD
HETATM   32  O   UNL     1      23.412  41.336  48.920  1.00  0.00    -0.267 OA
BRANCH  30  33
HETATM   33  C   UNL     1      26.369  40.875  48.105  1.00  0.00     0.035 A 
HETATM   34  C   UNL     1      26.072  39.645  48.702  1.00  0.00     0.031 A 
HETATM   35  C   UNL     1      27.105  38.790  49.099  1.00  0.00     0.026 A 
HETATM   36  C   UNL     1      28.431  39.155  48.884  1.00  0.00     0.034 A 
HETATM   37 CL   UNL     1      29.700  38.121  49.411  1.00  0.00    -0.084 Cl
HETATM   38  C   UNL     1      28.735  40.361  48.257  1.00  0.00     0.026 A 
HETATM   39  C   UNL     1      27.705  41.219  47.865  1.00  0.00     0.031 A 
ENDBRANCH  30  33
ENDBRANCH  12  29
TORSDOF 5
ENDMDL
MODEL 3
REMARK VINA RESULT:     -10.2      3.707      8.982
REMARK  5 active torsions:
REMARK  status: ('A' for Active; 'I' for Inactive)
REMARK    1  A    between atoms: C_8  and  C_9 
REMARK    2  A    between atoms: N_10  and  N_11 
REMARK    3  A    between atoms: C_22  and  C_23 
REMARK       I    between atoms: C_23  and  N_24 
REMARK    4  A    between atoms: N_24  and  C_25 
REMARK    5  A    between atoms: C_33  and  N_34 
ROOT
HETATM    1  N   UNL     1      27.165  42.279  51.776  1.00  0.00    -0.197 N 
HETATM    2  C   UNL     1      26.110  42.479  50.898  1.00  0.00     0.183 A 
HETATM    3  C   UNL     1      26.430  41.834  49.713  1.00  0.00     0.125 A 
HETATM    4  N   UNL     1      25.620  41.901  48.620  1.00  0.00    -0.242 NA
HETATM    5  C   UNL     1      24.497  42.616  48.804  1.00  0.00     0.086 A 
HETATM    6  C   UNL     1      24.190  43.266  50.030  1.00  0.00     0.088 A 
HETATM    7  N   UNL     1      24.994  43.217  51.104  1.00  0.00    -0.225 NA
HETATM    8  C   UNL     1      23.608  42.728  47.742  1.00  0.00     0.034 A 
HETATM    9  C   UNL     1      22.428  43.464  47.853  1.00  0.00     0.002 A 
HETATM   10  C   UNL     1      22.129  44.101  49.049  1.00  0.00     0.002 A 
HETATM   11  C   UNL     1      23.011  43.995  50.124  1.00  0.00     0.034 A 
HETATM   12  C   UNL     1      27.701  41.223  49.856  1.00  0.00     0.110 C 
HETATM   13  C   UNL     1      28.079  41.418  51.175  1.00  0.00     0.143 C 
ENDROOT
BRANCH   1  14
HETATM   14  N   UNL     1      27.399  42.862  52.998  1.00  0.00    -0.176 NA
HETATM   15  C   UNL     1      27.926  44.039  52.895  1.00  0.00     0.153 C 
BRANCH  15  16
HETATM   16  C   UNL     1      28.325  44.758  54.085  1.00  0.00     0.011 A 
HETATM   17  C   UNL     1      29.372  44.391  54.990  1.00  0.00     0.004 A 
HETATM   18  C   UNL     1      30.301  43.330  55.046  1.00  0.00     0.014 A 
HETATM   19  C   UNL     1      29.378  45.330  56.023  1.00  0.00     0.043 A 
HETATM   20  C   UNL     1      31.191  43.245  56.121  1.00  0.00     0.001 A 
HETATM   21  C   UNL     1      31.171  44.199  57.135  1.00  0.00     0.002 A 
HETATM   22  C   UNL     1      30.264  45.263  57.104  1.00  0.00     0.030 A 
HETATM   23  N   UNL     1      28.385  46.243  55.744  1.00  0.00    -0.364 N 
HETATM   24  H   UNL     1      28.158  47.038  56.327  1.00  0.00     0.165 HD
HETATM   25  C   UNL     1      27.738  45.902  54.589  1.00  0.00     0.102 A 
ENDBRANCH  15  16
ENDBRANCH   1  14
BRANCH  13  26
HETATM   26  N   UNL     1      29.196  41.026  51.832  1.00  0.00    -0.383 N 
HETATM   27  H   UNL     1      29.314  40.063  52.149  1.00  0.00     0.157 HD
HETATM   28  H   UNL     1      29.817  41.714  52.258  1.00  0.00     0.157 HD
ENDBRANCH  13  26
BRANCH  12  29
HETATM   29  C   UNL     1      28.534  40.642  48.812  1.00  0.00     0.262 C 
HETATM   30  N   UNL     1      29.012  39.383  49.147  1.00  0.00    -0.323 N 
HETATM   31  H   UNL     1      29.269  39.292  50.129  1.00  0.00     0.169 HD
HETATM   32  O   UNL     1      28.683  41.154  47.706  1.00  0.00    -0.267 OA
BRANCH  30  33
HETATM   33  C   UNL     1      28.330  38.229  48.675  1.00  0.00     0.035 A 
HETATM   34  C   UNL     1      28.503  37.723  47.382  1.00  0.00     0.031 A 
HETATM   35  C   UNL     1      27.688  36.686  46.918  1.00  0.00     0.026 A 
HETATM   36  C   UNL     1      26.713  36.143  47.751  1.00  0.00     0.034 A 
HETATM   37 CL   UNL     1      25.684  34.896  47.165  1.00  0.00    -0.084 Cl
HETATM   38  C   UNL     1      26.559  36.614  49.053  1.00  0.00     0.026 A 
HETATM   39  C   UNL     1      27.368  37.654  49.516  1.00  0.00     0.031 A 
ENDBRANCH  30  33
ENDBRANCH  12  29
TORSDOF 5
ENDMDL
MODEL 4
REMARK VINA RESULT:     -10.1      3.176      8.391
REMARK  5 active torsions:
REMARK  status: ('A' for Active; 'I' for Inactive)
REMARK    1  A    between atoms: C_8  and  C_9 
REMARK    2  A    between atoms: N_10  and  N_11 
REMARK    3  A    between atoms: C_22  and  C_23 
REMARK       I    between atoms: C_23  and  N_24 
REMARK    4  A    between atoms: N_24  and  C_25 
REMARK    5  A    between atoms: C_33  and  N_34 
ROOT
HETATM    1  N   UNL     1      27.543  42.124  51.597  1.00  0.00    -0.197 N 
HETATM    2  C   UNL     1      26.369  42.350  50.894  1.00  0.00     0.183 A 
HETATM    3  C   UNL     1      26.127  41.228  50.119  1.00  0.00     0.125 A 
HETATM    4  N   UNL     1      25.075  41.165  49.256  1.00  0.00    -0.242 NA
HETATM    5  C   UNL     1      24.300  42.264  49.247  1.00  0.00     0.086 A 
HETATM    6  C   UNL     1      24.567  43.403  50.054  1.00  0.00     0.088 A 
HETATM    7  N   UNL     1      25.613  43.474  50.892  1.00  0.00    -0.225 NA
HETATM    8  C   UNL     1      23.198  42.282  48.401  1.00  0.00     0.034 A 
HETATM    9  C   UNL     1      22.354  43.390  48.326  1.00  0.00     0.002 A 
HETATM   10  C   UNL     1      22.616  44.504  49.112  1.00  0.00     0.002 A 
HETATM   11  C   UNL     1      23.717  44.498  49.967  1.00  0.00     0.034 A 
HETATM   12  C   UNL     1      27.165  40.288  50.342  1.00  0.00     0.110 C 
HETATM   13  C   UNL     1      27.962  40.821  51.343  1.00  0.00     0.143 C 
ENDROOT
BRANCH   1  14
HETATM   14  N   UNL     1      28.286  43.001  52.351  1.00  0.00    -0.176 NA
HETATM   15  C   UNL     1      27.703  43.321  53.460  1.00  0.00     0.153 C 
BRANCH  15  16
HETATM   16  C   UNL     1      28.303  44.307  54.332  1.00  0.00     0.011 A 
HETATM   17  C   UNL     1      29.425  44.106  55.199  1.00  0.00     0.004 A 
HETATM   18  C   UNL     1      30.268  43.010  55.483  1.00  0.00     0.014 A 
HETATM   19  C   UNL     1      29.634  45.299  55.894  1.00  0.00     0.043 A 
HETATM   20  C   UNL     1      31.278  43.144  56.441  1.00  0.00     0.001 A 
HETATM   21  C   UNL     1      31.460  44.348  57.115  1.00  0.00     0.002 A 
HETATM   22  C   UNL     1      30.642  45.452  56.853  1.00  0.00     0.030 A 
HETATM   23  N   UNL     1      28.687  46.196  55.450  1.00  0.00    -0.364 N 
HETATM   24  H   UNL     1      28.598  47.146  55.784  1.00  0.00     0.165 HD
HETATM   25  C   UNL     1      27.875  45.606  54.521  1.00  0.00     0.102 A 
ENDBRANCH  15  16
ENDBRANCH   1  14
BRANCH  13  26
HETATM   26  N   UNL     1      29.075  40.324  51.933  1.00  0.00    -0.383 N 
HETATM   27  H   UNL     1      29.868  40.000  51.379  1.00  0.00     0.157 HD
HETATM   28  H   UNL     1      29.054  40.014  52.904  1.00  0.00     0.157 HD
ENDBRANCH  13  26
BRANCH  12  29
HETATM   29  C   UNL     1      27.451  39.078  49.584  1.00  0.00     0.262 C 
HETATM   30  N   UNL     1      26.773  39.030  48.375  1.00  0.00    -0.323 N 
HETATM   31  H   UNL     1      25.824  39.400  48.424  1.00  0.00     0.169 HD
HETATM   32  O   UNL     1      28.303  38.260  49.919  1.00  0.00    -0.267 OA
BRANCH  30  33
HETATM   33  C   UNL     1      27.434  39.440  47.186  1.00  0.00     0.035 A 
HETATM   34  C   UNL     1      27.898  40.746  46.990  1.00  0.00     0.031 A 
HETATM   35  C   UNL     1      28.393  41.135  45.741  1.00  0.00     0.026 A 
HETATM   36  C   UNL     1      28.442  40.217  44.696  1.00  0.00     0.034 A 
HETATM   37 CL   UNL     1      29.012  40.709  43.150  1.00  0.00    -0.084 Cl
HETATM   38  C   UNL     1      28.018  38.905  44.892  1.00  0.00     0.026 A 
HETATM   39  C   UNL     1      27.517  38.516  46.137  1.00  0.00     0.031 A 
ENDBRANCH  30  33
ENDBRANCH  12  29
TORSDOF 5
ENDMDL
MODEL 5
REMARK VINA RESULT:     -10.0      3.441      6.934
REMARK  5 active torsions:
REMARK  status: ('A' for Active; 'I' for Inactive)
REMARK    1  A    between atoms: C_8  and  C_9 
REMARK    2  A    between atoms: N_10  and  N_11 
REMARK    3  A    between atoms: C_22  and  C_23 
REMARK       I    between atoms: C_23  and  N_24 
REMARK    4  A    between atoms: N_24  and  C_25 
REMARK    5  A    between atoms: C_33  and  N_34 
ROOT
HETATM    1  N   UNL     1      24.755  44.461  50.098  1.00  0.00    -0.197 N 
HETATM    2  C   UNL     1      24.706  45.787  49.694  1.00  0.00     0.183 A 
HETATM    3  C   UNL     1      23.419  46.037  49.246  1.00  0.00     0.125 A 
HETATM    4  N   UNL     1      23.065  47.240  48.715  1.00  0.00    -0.242 NA
HETATM    5  C   UNL     1      24.056  48.148  48.691  1.00  0.00     0.086 A 
HETATM    6  C   UNL     1      25.369  47.869  49.159  1.00  0.00     0.088 A 
HETATM    7  N   UNL     1      25.725  46.678  49.666  1.00  0.00    -0.225 NA
HETATM    8  C   UNL     1      23.779  49.408  48.174  1.00  0.00     0.034 A 
HETATM    9  C   UNL     1      24.759  50.399  48.103  1.00  0.00     0.002 A 
HETATM   10  C   UNL     1      26.041  50.126  48.558  1.00  0.00     0.002 A 
HETATM   11  C   UNL     1      26.333  48.867  49.081  1.00  0.00     0.034 A 
HETATM   12  C   UNL     1      22.654  44.850  49.374  1.00  0.00     0.110 C 
HETATM   13  C   UNL     1      23.473  43.928  50.007  1.00  0.00     0.143 C 
ENDROOT
BRANCH   1  14
HETATM   14  N   UNL     1      25.845  43.699  50.445  1.00  0.00    -0.176 NA
HETATM   15  C   UNL     1      26.263  43.945  51.643  1.00  0.00     0.153 C 
BRANCH  15  16
HETATM   16  C   UNL     1      27.459  43.299  52.137  1.00  0.00     0.011 A 
HETATM   17  C   UNL     1      28.241  43.702  53.267  1.00  0.00     0.004 A 
HETATM   18  C   UNL     1      28.141  44.745  54.213  1.00  0.00     0.014 A 
HETATM   19  C   UNL     1      29.331  42.834  53.352  1.00  0.00     0.043 A 
HETATM   20  C   UNL     1      29.124  44.882  55.199  1.00  0.00     0.001 A 
HETATM   21  C   UNL     1      30.198  43.998  55.255  1.00  0.00     0.002 A 
HETATM   22  C   UNL     1      30.322  42.954  54.333  1.00  0.00     0.030 A 
HETATM   23  N   UNL     1      29.205  41.926  52.324  1.00  0.00    -0.364 N 
HETATM   24  H   UNL     1      29.858  41.178  52.138  1.00  0.00     0.165 HD
HETATM   25  C   UNL     1      28.091  42.204  51.580  1.00  0.00     0.102 A 
ENDBRANCH  15  16
ENDBRANCH   1  14
BRANCH  13  26
HETATM   26  N   UNL     1      23.228  42.647  50.374  1.00  0.00    -0.383 N 
HETATM   27  H   UNL     1      23.624  42.258  51.231  1.00  0.00     0.157 HD
HETATM   28  H   UNL     1      22.878  41.970  49.698  1.00  0.00     0.157 HD
ENDBRANCH  13  26
BRANCH  12  29
HETATM   29  C   UNL     1      21.335  44.574  48.822  1.00  0.00     0.262 C 
HETATM   30  N   UNL     1      20.352  45.402  49.344  1.00  0.00    -0.323 N 
HETATM   31  H   UNL     1      20.469  45.600  50.337  1.00  0.00     0.169 HD
HETATM   32  O   UNL     1      21.142  43.788  47.899  1.00  0.00    -0.267 OA
BRANCH  30  33
HETATM   33  C   UNL     1      19.960  46.562  48.622  1.00  0.00     0.035 A 
HETATM   34  C   UNL     1      19.939  46.612  47.223  1.00  0.00     0.031 A 
HETATM   35  C   UNL     1      19.705  47.824  46.567  1.00  0.00     0.026 A 
HETATM   36  C   UNL     1      19.473  48.981  47.307  1.00  0.00     0.034 A 
HETATM   37 CL   UNL     1      19.226  50.479  46.498  1.00  0.00    -0.084 Cl
HETATM   38  C   UNL     1      19.455  48.934  48.699  1.00  0.00     0.026 A 
HETATM   39  C   UNL     1      19.696  47.725  49.356  1.00  0.00     0.031 A 
ENDBRANCH  30  33
ENDBRANCH  12  29
TORSDOF 5
ENDMDL
MODEL 6
REMARK VINA RESULT:      -9.6      3.314      7.852
REMARK  5 active torsions:
REMARK  status: ('A' for Active; 'I' for Inactive)
REMARK    1  A    between atoms: C_8  and  C_9 
REMARK    2  A    between atoms: N_10  and  N_11 
REMARK    3  A    between atoms: C_22  and  C_23 
REMARK       I    between atoms: C_23  and  N_24 
REMARK    4  A    between atoms: N_24  and  C_25 
REMARK    5  A    between atoms: C_33  and  N_34 
ROOT
HETATM    1  N   UNL     1      27.045  43.389  51.128  1.00  0.00    -0.197 N 
HETATM    2  C   UNL     1      27.213  42.081  50.699  1.00  0.00     0.183 A 
HETATM    3  C   UNL     1      26.059  41.713  50.025  1.00  0.00     0.125 A 
HETATM    4  N   UNL     1      25.884  40.455  49.536  1.00  0.00    -0.242 NA
HETATM    5  C   UNL     1      26.924  39.629  49.744  1.00  0.00     0.086 A 
HETATM    6  C   UNL     1      28.099  40.030  50.436  1.00  0.00     0.088 A 
HETATM    7  N   UNL     1      28.267  41.265  50.935  1.00  0.00    -0.225 NA
HETATM    8  C   UNL     1      26.834  38.327  49.269  1.00  0.00     0.034 A 
HETATM    9  C   UNL     1      27.867  37.408  49.458  1.00  0.00     0.002 A 
HETATM   10  C   UNL     1      29.013  37.798  50.136  1.00  0.00     0.002 A 
HETATM   11  C   UNL     1      29.119  39.103  50.616  1.00  0.00     0.034 A 
HETATM   12  C   UNL     1      25.159  42.809  50.034  1.00  0.00     0.110 C 
HETATM   13  C   UNL     1      25.838  43.864  50.622  1.00  0.00     0.143 C 
ENDROOT
BRANCH   1  14
HETATM   14  N   UNL     1      27.825  44.129  51.984  1.00  0.00    -0.176 NA
HETATM   15  C   UNL     1      27.453  44.019  53.217  1.00  0.00     0.153 C 
BRANCH  15  16
HETATM   16  C   UNL     1      28.106  44.805  54.241  1.00  0.00     0.011 A 
HETATM   17  C   UNL     1      29.226  44.402  55.038  1.00  0.00     0.004 A 
HETATM   18  C   UNL     1      30.020  43.237  55.105  1.00  0.00     0.014 A 
HETATM   19  C   UNL     1      29.497  45.440  55.931  1.00  0.00     0.043 A 
HETATM   20  C   UNL     1      31.045  43.152  56.054  1.00  0.00     0.001 A 
HETATM   21  C   UNL     1      31.289  44.206  56.930  1.00  0.00     0.002 A 
HETATM   22  C   UNL     1      30.520  45.374  56.884  1.00  0.00     0.030 A 
HETATM   23  N   UNL     1      28.588  46.443  55.672  1.00  0.00    -0.364 N 
HETATM   24  H   UNL     1      28.546  47.320  56.173  1.00  0.00     0.165 HD
HETATM   25  C   UNL     1      27.741  46.066  54.667  1.00  0.00     0.102 A 
ENDBRANCH  15  16
ENDBRANCH   1  14
BRANCH  13  26
HETATM   26  N   UNL     1      25.439  45.136  50.864  1.00  0.00    -0.383 N 
HETATM   27  H   UNL     1      26.116  45.894  50.959  1.00  0.00     0.157 HD
HETATM   28  H   UNL     1      24.503  45.328  51.217  1.00  0.00     0.157 HD
ENDBRANCH  13  26
BRANCH  12  29
HETATM   29  C   UNL     1      23.753  42.812  49.656  1.00  0.00     0.262 C 
HETATM   30  N   UNL     1      23.566  42.939  48.287  1.00  0.00    -0.323 N 
HETATM   31  H   UNL     1      24.225  43.577  47.842  1.00  0.00     0.169 HD
HETATM   32  O   UNL     1      22.842  42.589  50.449  1.00  0.00    -0.267 OA
BRANCH  30  33
HETATM   33  C   UNL     1      23.352  41.775  47.500  1.00  0.00     0.035 A 
HETATM   34  C   UNL     1      22.283  40.899  47.720  1.00  0.00     0.031 A 
HETATM   35  C   UNL     1      22.214  39.687  47.025  1.00  0.00     0.026 A 
HETATM   36  C   UNL     1      23.201  39.360  46.099  1.00  0.00     0.034 A 
HETATM   37 CL   UNL     1      23.136  37.852  45.276  1.00  0.00    -0.084 Cl
HETATM   38  C   UNL     1      24.248  40.243  45.845  1.00  0.00     0.026 A 
HETATM   39  C   UNL     1      24.322  41.451  46.544  1.00  0.00     0.031 A 
ENDBRANCH  30  33
ENDBRANCH  12  29
TORSDOF 5
ENDMDL
MODEL 7
REMARK VINA RESULT:      -9.5      1.530      2.077
REMARK  5 active torsions:
REMARK  status: ('A' for Active; 'I' for Inactive)
REMARK    1  A    between atoms: C_8  and  C_9 
REMARK    2  A    between atoms: N_10  and  N_11 
REMARK    3  A    between atoms: C_22  and  C_23 
REMARK       I    between atoms: C_23  and  N_24 
REMARK    4  A    between atoms: N_24  and  C_25 
REMARK    5  A    between atoms: C_33  and  N_34 
ROOT
HETATM    1  N   UNL     1      25.724  41.317  49.858  1.00  0.00    -0.197 N 
HETATM    2  C   UNL     1      26.445  41.902  50.888  1.00  0.00     0.183 A 
HETATM    3  C   UNL     1      25.740  43.020  51.306  1.00  0.00     0.125 A 
HETATM    4  N   UNL     1      26.223  43.855  52.267  1.00  0.00    -0.242 NA
HETATM    5  C   UNL     1      27.411  43.486  52.776  1.00  0.00     0.086 A 
HETATM    6  C   UNL     1      28.114  42.333  52.333  1.00  0.00     0.088 A 
HETATM    7  N   UNL     1      27.649  41.518  51.374  1.00  0.00    -0.225 NA
HETATM    8  C   UNL     1      27.973  44.277  53.770  1.00  0.00     0.034 A 
HETATM    9  C   UNL     1      29.209  43.967  54.338  1.00  0.00     0.002 A 
HETATM   10  C   UNL     1      29.898  42.842  53.904  1.00  0.00     0.002 A 
HETATM   11  C   UNL     1      29.344  42.037  52.909  1.00  0.00     0.034 A 
HETATM   12  C   UNL     1      24.562  43.132  50.525  1.00  0.00     0.110 C 
HETATM   13  C   UNL     1      24.522  42.005  49.719  1.00  0.00     0.143 C 
ENDROOT
BRANCH   1  14
HETATM   14  N   UNL     1      26.093  40.302  49.008  1.00  0.00    -0.176 NA
HETATM   15  C   UNL     1      27.262  40.489  48.488  1.00  0.00     0.153 C 
BRANCH  15  16
HETATM   16  C   UNL     1      27.767  39.564  47.497  1.00  0.00     0.011 A 
HETATM   17  C   UNL     1      27.958  39.830  46.103  1.00  0.00     0.004 A 
HETATM   18  C   UNL     1      27.762  40.959  45.279  1.00  0.00     0.014 A 
HETATM   19  C   UNL     1      28.410  38.650  45.511  1.00  0.00     0.043 A 
HETATM   20  C   UNL     1      28.020  40.868  43.908  1.00  0.00     0.001 A 
HETATM   21  C   UNL     1      28.471  39.675  43.349  1.00  0.00     0.002 A 
HETATM   22  C   UNL     1      28.676  38.541  44.141  1.00  0.00     0.030 A 
HETATM   23  N   UNL     1      28.508  37.708  46.512  1.00  0.00    -0.364 N 
HETATM   24  H   UNL     1      28.808  36.753  46.372  1.00  0.00     0.165 HD
HETATM   25  C   UNL     1      28.112  38.243  47.706  1.00  0.00     0.102 A 
ENDBRANCH  15  16
ENDBRANCH   1  14
BRANCH  13  26
HETATM   26  N   UNL     1      23.607  41.619  48.798  1.00  0.00    -0.383 N 
HETATM   27  H   UNL     1      23.274  40.655  48.755  1.00  0.00     0.157 HD
HETATM   28  H   UNL     1      23.427  42.189  47.973  1.00  0.00     0.157 HD
ENDBRANCH  13  26
BRANCH  12  29
HETATM   29  C   UNL     1      23.646  44.261  50.449  1.00  0.00     0.262 C 
HETATM   30  N   UNL     1      24.126  45.386  51.103  1.00  0.00    -0.323 N 
HETATM   31  H   UNL     1      24.621  45.175  51.969  1.00  0.00     0.169 HD
HETATM   32  O   UNL     1      22.625  44.256  49.766  1.00  0.00    -0.267 OA
BRANCH  30  33
HETATM   33  C   UNL     1      24.788  46.399  50.357  1.00  0.00     0.035 A 
HETATM   34  C   UNL     1      26.182  46.481  50.263  1.00  0.00     0.031 A 
HETATM   35  C   UNL     1      26.780  47.589  49.654  1.00  0.00     0.026 A 
HETATM   36  C   UNL     1      25.988  48.603  49.123  1.00  0.00     0.034 A 
HETATM   37 CL   UNL     1      26.726  49.984  48.412  1.00  0.00    -0.084 Cl
HETATM   38  C   UNL     1      24.599  48.512  49.179  1.00  0.00     0.026 A 
HETATM   39  C   UNL     1      23.999  47.409  49.793  1.00  0.00     0.031 A 
ENDBRANCH  30  33
ENDBRANCH  12  29
TORSDOF 5
ENDMDL
MODEL 8
REMARK VINA RESULT:      -9.4      3.629      8.022
REMARK  5 active torsions:
REMARK  status: ('A' for Active; 'I' for Inactive)
REMARK    1  A    between atoms: C_8  and  C_9 
REMARK    2  A    between atoms: N_10  and  N_11 
REMARK    3  A    between atoms: C_22  and  C_23 
REMARK       I    between atoms: C_23  and  N_24 
REMARK    4  A    between atoms: N_24  and  C_25 
REMARK    5  A    between atoms: C_33  and  N_34 
ROOT
HETATM    1  N   UNL     1      24.457  46.766  50.292  1.00  0.00    -0.197 N 
HETATM    2  C   UNL     1      24.501  45.461  49.826  1.00  0.00     0.183 A 
HETATM    3  C   UNL     1      23.558  45.349  48.816  1.00  0.00     0.125 A 
HETATM    4  N   UNL     1      23.308  44.162  48.196  1.00  0.00    -0.242 NA
HETATM    5  C   UNL     1      24.064  43.139  48.632  1.00  0.00     0.086 A 
HETATM    6  C   UNL     1      25.027  43.279  49.668  1.00  0.00     0.088 A 
HETATM    7  N   UNL     1      25.263  44.444  50.293  1.00  0.00    -0.225 NA
HETATM    8  C   UNL     1      23.881  41.892  48.047  1.00  0.00     0.034 A 
HETATM    9  C   UNL     1      24.618  40.780  48.454  1.00  0.00     0.002 A 
HETATM   10  C   UNL     1      25.557  40.916  49.468  1.00  0.00     0.002 A 
HETATM   11  C   UNL     1      25.753  42.162  50.062  1.00  0.00     0.034 A 
HETATM   12  C   UNL     1      22.918  46.603  48.651  1.00  0.00     0.110 C 
HETATM   13  C   UNL     1      23.571  47.486  49.496  1.00  0.00     0.143 C 
ENDROOT
BRANCH   1  14
HETATM   14  N   UNL     1      25.064  47.314  51.396  1.00  0.00    -0.176 NA
HETATM   15  C   UNL     1      25.585  46.421  52.173  1.00  0.00     0.153 C 
BRANCH  15  16
HETATM   16  C   UNL     1      26.183  46.817  53.429  1.00  0.00     0.011 A 
HETATM   17  C   UNL     1      27.243  46.143  54.117  1.00  0.00     0.004 A 
HETATM   18  C   UNL     1      28.014  44.991  53.853  1.00  0.00     0.014 A 
HETATM   19  C   UNL     1      27.472  46.834  55.309  1.00  0.00     0.043 A 
HETATM   20  C   UNL     1      28.974  44.573  54.781  1.00  0.00     0.001 A 
HETATM   21  C   UNL     1      29.177  45.285  55.960  1.00  0.00     0.002 A 
HETATM   22  C   UNL     1      28.430  46.432  56.246  1.00  0.00     0.030 A 
HETATM   23  N   UNL     1      26.597  47.898  55.333  1.00  0.00    -0.364 N 
HETATM   24  H   UNL     1      26.536  48.571  56.085  1.00  0.00     0.165 HD
HETATM   25  C   UNL     1      25.810  47.890  54.215  1.00  0.00     0.102 A 
ENDBRANCH  15  16
ENDBRANCH   1  14
BRANCH  13  26
HETATM   26  N   UNL     1      23.361  48.807  49.713  1.00  0.00    -0.383 N 
HETATM   27  H   UNL     1      24.026  49.509  49.386  1.00  0.00     0.157 HD
HETATM   28  H   UNL     1      22.697  49.118  50.421  1.00  0.00     0.157 HD
ENDBRANCH  13  26
BRANCH  12  29
HETATM   29  C   UNL     1      21.719  46.898  47.879  1.00  0.00     0.262 C 
HETATM   30  N   UNL     1      20.580  46.979  48.668  1.00  0.00    -0.323 N 
HETATM   31  H   UNL     1      20.558  46.295  49.424  1.00  0.00     0.169 HD
HETATM   32  O   UNL     1      21.739  47.176  46.684  1.00  0.00    -0.267 OA
BRANCH  30  33
HETATM   33  C   UNL     1      20.119  48.252  49.100  1.00  0.00     0.035 A 
HETATM   34  C   UNL     1      19.266  48.415  50.197  1.00  0.00     0.031 A 
HETATM   35  C   UNL     1      18.714  49.669  50.477  1.00  0.00     0.026 A 
HETATM   36  C   UNL     1      19.028  50.762  49.673  1.00  0.00     0.034 A 
HETATM   37 CL   UNL     1      18.317  52.294  49.994  1.00  0.00    -0.084 Cl
HETATM   38  C   UNL     1      19.907  50.617  48.601  1.00  0.00     0.026 A 
HETATM   39  C   UNL     1      20.453  49.363  48.317  1.00  0.00     0.031 A 
ENDBRANCH  30  33
ENDBRANCH  12  29
TORSDOF 5
ENDMDL
MODEL 9
REMARK VINA RESULT:      -9.3      4.442      8.330
REMARK  5 active torsions:
REMARK  status: ('A' for Active; 'I' for Inactive)
REMARK    1  A    between atoms: C_8  and  C_9 
REMARK    2  A    between atoms: N_10  and  N_11 
REMARK    3  A    between atoms: C_22  and  C_23 
REMARK       I    between atoms: C_23  and  N_24 
REMARK    4  A    between atoms: N_24  and  C_25 
REMARK    5  A    between atoms: C_33  and  N_34 
ROOT
HETATM    1  N   UNL     1      23.745  46.018  49.512  1.00  0.00    -0.197 N 
HETATM    2  C   UNL     1      22.822  45.853  48.491  1.00  0.00     0.183 A 
HETATM    3  C   UNL     1      22.563  47.106  47.959  1.00  0.00     0.125 A 
HETATM    4  N   UNL     1      21.640  47.291  46.975  1.00  0.00    -0.242 NA
HETATM    5  C   UNL     1      21.035  46.163  46.563  1.00  0.00     0.086 A 
HETATM    6  C   UNL     1      21.320  44.888  47.123  1.00  0.00     0.088 A 
HETATM    7  N   UNL     1      22.216  44.705  48.105  1.00  0.00    -0.225 NA
HETATM    8  C   UNL     1      20.085  46.258  45.554  1.00  0.00     0.034 A 
HETATM    9  C   UNL     1      19.406  45.135  45.083  1.00  0.00     0.002 A 
HETATM   10  C   UNL     1      19.681  43.890  45.631  1.00  0.00     0.002 A 
HETATM   11  C   UNL     1      20.635  43.778  46.642  1.00  0.00     0.034 A 
HETATM   12  C   UNL     1      23.337  48.066  48.659  1.00  0.00     0.110 C 
HETATM   13  C   UNL     1      24.140  47.352  49.534  1.00  0.00     0.143 C 
ENDROOT
BRANCH   1  14
HETATM   14  N   UNL     1      24.175  45.109  50.449  1.00  0.00    -0.176 NA
HETATM   15  C   UNL     1      25.295  44.550  50.123  1.00  0.00     0.153 C 
BRANCH  15  16
HETATM   16  C   UNL     1      25.845  43.499  50.951  1.00  0.00     0.011 A 
HETATM   17  C   UNL     1      26.685  43.671  52.098  1.00  0.00     0.004 A 
HETATM   18  C   UNL     1      27.213  44.792  52.774  1.00  0.00     0.014 A 
HETATM   19  C   UNL     1      27.026  42.399  52.560  1.00  0.00     0.043 A 
HETATM   20  C   UNL     1      28.056  44.602  53.874  1.00  0.00     0.001 A 
HETATM   21  C   UNL     1      28.376  43.319  54.309  1.00  0.00     0.002 A 
HETATM   22  C   UNL     1      27.865  42.190  53.661  1.00  0.00     0.030 A 
HETATM   23  N   UNL     1      26.401  41.489  51.736  1.00  0.00    -0.364 N 
HETATM   24  H   UNL     1      26.473  40.485  51.832  1.00  0.00     0.165 HD
HETATM   25  C   UNL     1      25.699  42.139  50.759  1.00  0.00     0.102 A 
ENDBRANCH  15  16
ENDBRANCH   1  14
BRANCH  13  26
HETATM   26  N   UNL     1      25.068  47.785  50.422  1.00  0.00    -0.383 N 
HETATM   27  H   UNL     1      25.415  47.176  51.164  1.00  0.00     0.157 HD
HETATM   28  H   UNL     1      25.245  48.781  50.545  1.00  0.00     0.157 HD
ENDBRANCH  13  26
BRANCH  12  29
HETATM   29  C   UNL     1      23.222  49.516  48.605  1.00  0.00     0.262 C 
HETATM   30  N   UNL     1      22.149  49.940  47.834  1.00  0.00    -0.323 N 
HETATM   31  H   UNL     1      21.997  49.375  46.999  1.00  0.00     0.169 HD
HETATM   32  O   UNL     1      23.916  50.273  49.278  1.00  0.00    -0.267 OA
BRANCH  30  33
HETATM   33  C   UNL     1      20.922  50.276  48.468  1.00  0.00     0.035 A 
HETATM   34  C   UNL     1      20.029  49.311  48.947  1.00  0.00     0.031 A 
HETATM   35  C   UNL     1      18.767  49.693  49.413  1.00  0.00     0.026 A 
HETATM   36  C   UNL     1      18.405  51.037  49.418  1.00  0.00     0.034 A 
HETATM   37 CL   UNL     1      16.838  51.500  49.953  1.00  0.00    -0.084 Cl
HETATM   38  C   UNL     1      19.302  52.009  48.979  1.00  0.00     0.026 A 
HETATM   39  C   UNL     1      20.561  51.629  48.507  1.00  0.00     0.031 A 
ENDBRANCH  30  33
ENDBRANCH  12  29
TORSDOF 5
ENDMDL
MODEL 10
REMARK VINA RESULT:      -9.2     17.058     20.830
REMARK  5 active torsions:
REMARK  status: ('A' for Active; 'I' for Inactive)
REMARK    1  A    between atoms: C_8  and  C_9 
REMARK    2  A    between atoms: N_10  and  N_11 
REMARK    3  A    between atoms: C_22  and  C_23 
REMARK       I    between atoms: C_23  and  N_24 
REMARK    4  A    between atoms: N_24  and  C_25 
REMARK    5  A    between atoms: C_33  and  N_34 
ROOT
HETATM    1  N   UNL     1      37.521  46.840  66.745  1.00  0.00    -0.197 N 
HETATM    2  C   UNL     1      38.644  46.447  66.031  1.00  0.00     0.183 A 
HETATM    3  C   UNL     1      38.328  45.267  65.377  1.00  0.00     0.125 A 
HETATM    4  N   UNL     1      39.249  44.586  64.640  1.00  0.00    -0.242 NA
HETATM    5  C   UNL     1      40.460  45.169  64.591  1.00  0.00     0.086 A 
HETATM    6  C   UNL     1      40.759  46.381  65.269  1.00  0.00     0.088 A 
HETATM    7  N   UNL     1      39.858  47.045  66.011  1.00  0.00    -0.225 NA
HETATM    8  C   UNL     1      41.458  44.546  63.853  1.00  0.00     0.034 A 
HETATM    9  C   UNL     1      42.743  45.082  63.765  1.00  0.00     0.002 A 
HETATM   10  C   UNL     1      43.037  46.265  64.429  1.00  0.00     0.002 A 
HETATM   11  C   UNL     1      42.044  46.902  65.172  1.00  0.00     0.034 A 
HETATM   12  C   UNL     1      36.988  44.920  65.686  1.00  0.00     0.110 C 
HETATM   13  C   UNL     1      36.481  45.967  66.440  1.00  0.00     0.143 C 
ENDROOT
BRANCH   1  14
HETATM   14  N   UNL     1      37.394  47.835  67.683  1.00  0.00    -0.176 NA
HETATM   15  C   UNL     1      37.263  49.007  67.152  1.00  0.00     0.153 C 
BRANCH  15  16
HETATM   16  C   UNL     1      37.210  50.180  67.996  1.00  0.00     0.011 A 
HETATM   17  C   UNL     1      37.395  51.538  67.579  1.00  0.00     0.004 A 
HETATM   18  C   UNL     1      37.652  52.162  66.340  1.00  0.00     0.014 A 
HETATM   19  C   UNL     1      37.315  52.339  68.720  1.00  0.00     0.043 A 
HETATM   20  C   UNL     1      37.820  53.550  66.286  1.00  0.00     0.001 A 
HETATM   21  C   UNL     1      37.734  54.320  67.443  1.00  0.00     0.002 A 
HETATM   22  C   UNL     1      37.477  53.728  68.684  1.00  0.00     0.030 A 
HETATM   23  N   UNL     1      37.071  51.501  69.786  1.00  0.00    -0.364 N 
HETATM   24  H   UNL     1      36.969  51.808  70.743  1.00  0.00     0.165 HD
HETATM   25  C   UNL     1      37.019  50.201  69.363  1.00  0.00     0.102 A 
ENDBRANCH  15  16
ENDBRANCH   1  14
BRANCH  13  26
HETATM   26  N   UNL     1      35.250  46.141  66.979  1.00  0.00    -0.383 N 
HETATM   27  H   UNL     1      34.438  46.333  66.392  1.00  0.00     0.157 HD
HETATM   28  H   UNL     1      35.142  46.350  67.970  1.00  0.00     0.157 HD
ENDBRANCH  13  26
BRANCH  12  29
HETATM   29  C   UNL     1      36.308  43.661  65.418  1.00  0.00     0.262 C 
HETATM   30  N   UNL     1      36.566  43.173  64.145  1.00  0.00    -0.323 N 
HETATM   31  H   UNL     1      36.617  43.899  63.431  1.00  0.00     0.169 HD
HETATM   32  O   UNL     1      35.685  43.037  66.272  1.00  0.00    -0.267 OA
BRANCH  30  33
HETATM   33  C   UNL     1      37.579  42.191  63.966  1.00  0.00     0.035 A 
HETATM   34  C   UNL     1      38.277  42.036  62.763  1.00  0.00     0.031 A 
HETATM   35  C   UNL     1      39.144  40.952  62.590  1.00  0.00     0.026 A 
HETATM   36  C   UNL     1      39.326  40.036  63.622  1.00  0.00     0.034 A 
HETATM   37 CL   UNL     1      40.360  38.681  63.392  1.00  0.00    -0.084 Cl
HETATM   38  C   UNL     1      38.664  40.203  64.836  1.00  0.00     0.026 A 
HETATM   39  C   UNL     1      37.792  41.282  65.009  1.00  0.00     0.031 A 
ENDBRANCH  30  33
ENDBRANCH  12  29
TORSDOF 5
ENDMDL
