MODEL 1
REMARK VINA RESULT:      -8.9      0.000      0.000
REMARK  3 active torsions:
REMARK  status: ('A' for Active; 'I' for Inactive)
REMARK    1  A    between atoms: N_5  and  C_6 
REMARK    2  A    between atoms: C_7  and  C_8 
REMARK       I    between atoms: C_8  and  N_9 
REMARK    3  A    between atoms: N_9  and  N_10 
ROOT
HETATM    1  C   UNL     1      29.216  53.087  38.530  1.00  0.00     0.056 C 
HETATM    2  C   UNL     1      29.382  51.902  39.465  1.00  0.00     0.158 C 
HETATM    3  C   UNL     1      29.115  50.560  38.778  1.00  0.00     0.267 C 
HETATM    4  O   UNL     1      29.698  50.189  37.763  1.00  0.00    -0.269 OA
HETATM    5  N   UNL     1      28.282  49.821  39.594  1.00  0.00    -0.230 N 
HETATM    6  C   UNL     1      27.960  50.548  40.721  1.00  0.00     0.333 C 
HETATM    7  O   UNL     1      27.384  50.148  41.724  1.00  0.00    -0.246 OA
HETATM    8  N   UNL     1      28.408  51.862  40.545  1.00  0.00    -0.309 N 
HETATM    9  C   UNL     1      28.587  52.757  41.693  1.00  0.00     0.134 C 
HETATM   10  C   UNL     1      29.926  52.510  42.427  1.00  0.00     0.061 C 
HETATM   11  C   UNL     1      30.997  52.103  41.463  1.00  0.00    -0.018 A 
HETATM   12  C   UNL     1      30.732  51.845  40.129  1.00  0.00     0.055 A 
HETATM   13  N   UNL     1      31.883  51.388  39.543  1.00  0.00    -0.356 N 
HETATM   14  H   UNL     1      31.971  51.068  38.584  1.00  0.00     0.166 HD
HETATM   15  C   UNL     1      32.871  51.271  40.496  1.00  0.00     0.043 A 
HETATM   16  C   UNL     1      32.353  51.748  41.704  1.00  0.00    -0.001 A 
HETATM   17  C   UNL     1      34.167  50.753  40.387  1.00  0.00     0.030 A 
HETATM   18  C   UNL     1      34.956  50.727  41.540  1.00  0.00     0.002 A 
HETATM   19  C   UNL     1      34.471  51.213  42.753  1.00  0.00     0.001 A 
HETATM   20  C   UNL     1      33.172  51.725  42.849  1.00  0.00     0.014 A 
ENDROOT
BRANCH   5  21
HETATM   21  C   UNL     1      28.158  48.415  39.453  1.00  0.00     0.063 A 
HETATM   22  C   UNL     1      28.989  47.508  40.144  1.00  0.00     0.060 A 
HETATM   23  C   UNL     1      28.686  46.137  40.152  1.00  0.00     0.019 A 
HETATM   24  C   UNL     1      27.590  45.653  39.441  1.00  0.00     0.001 A 
HETATM   25  C   UNL     1      26.804  46.530  38.701  1.00  0.00     0.002 A 
HETATM   26  C   UNL     1      27.088  47.899  38.701  1.00  0.00     0.031 A 
BRANCH  22  27
HETATM   27  C   UNL     1      30.270  47.900  40.792  1.00  0.00     0.268 C 
HETATM   28  N   UNL     1      31.426  47.455  40.155  1.00  0.00    -0.290 N 
HETATM   29  H   UNL     1      31.372  46.788  39.387  1.00  0.00     0.183 HD
HETATM   30  O   UNL     1      30.281  48.496  41.866  1.00  0.00    -0.266 OA
BRANCH  28  31
HETATM   31  N   UNL     1      32.678  47.687  40.761  1.00  0.00    -0.247 NA
HETATM   32  H   UNL     1      33.380  47.655  40.010  1.00  0.00     0.143 HD
HETATM   33  H   UNL     1      32.903  46.847  41.307  1.00  0.00     0.143 HD
ENDBRANCH  28  31
ENDBRANCH  22  27
ENDBRANCH   5  21
TORSDOF 3
ENDMDL
MODEL 2
REMARK VINA RESULT:      -8.3     12.203     13.968
REMARK  3 active torsions:
REMARK  status: ('A' for Active; 'I' for Inactive)
REMARK    1  A    between atoms: N_5  and  C_6 
REMARK    2  A    between atoms: C_7  and  C_8 
REMARK       I    between atoms: C_8  and  N_9 
REMARK    3  A    between atoms: N_9  and  N_10 
ROOT
HETATM    1  C   UNL     1      16.839  52.018  45.640  1.00  0.00     0.056 C 
HETATM    2  C   UNL     1      17.184  50.795  46.472  1.00  0.00     0.158 C 
HETATM    3  C   UNL     1      17.383  49.536  45.625  1.00  0.00     0.267 C 
HETATM    4  O   UNL     1      18.180  49.463  44.693  1.00  0.00    -0.269 OA
HETATM    5  N   UNL     1      16.672  48.509  46.211  1.00  0.00    -0.230 N 
HETATM    6  C   UNL     1      16.013  48.971  47.332  1.00  0.00     0.333 C 
HETATM    7  O   UNL     1      15.431  48.308  48.178  1.00  0.00    -0.246 OA
HETATM    8  N   UNL     1      16.114  50.367  47.361  1.00  0.00    -0.309 N 
HETATM    9  C   UNL     1      15.885  51.113  48.603  1.00  0.00     0.134 C 
HETATM   10  C   UNL     1      17.125  51.108  49.528  1.00  0.00     0.061 C 
HETATM   11  C   UNL     1      18.390  51.116  48.726  1.00  0.00    -0.018 A 
HETATM   12  C   UNL     1      18.393  50.985  47.348  1.00  0.00     0.055 A 
HETATM   13  N   UNL     1      19.694  50.913  46.926  1.00  0.00    -0.356 N 
HETATM   14  H   UNL     1      19.998  50.759  45.970  1.00  0.00     0.166 HD
HETATM   15  C   UNL     1      20.535  50.916  48.019  1.00  0.00     0.043 A 
HETATM   16  C   UNL     1      19.743  51.080  49.160  1.00  0.00    -0.001 A 
HETATM   17  C   UNL     1      21.924  50.757  48.083  1.00  0.00     0.030 A 
HETATM   18  C   UNL     1      22.522  50.771  49.346  1.00  0.00     0.002 A 
HETATM   19  C   UNL     1      21.760  50.950  50.499  1.00  0.00     0.001 A 
HETATM   20  C   UNL     1      20.371  51.105  50.421  1.00  0.00     0.014 A 
ENDROOT
BRANCH   5  21
HETATM   21  C   UNL     1      16.949  47.149  45.918  1.00  0.00     0.063 A 
HETATM   22  C   UNL     1      17.811  46.363  46.711  1.00  0.00     0.060 A 
HETATM   23  C   UNL     1      17.878  44.973  46.520  1.00  0.00     0.019 A 
HETATM   24  C   UNL     1      17.130  44.364  45.514  1.00  0.00     0.001 A 
HETATM   25  C   UNL     1      16.329  45.139  44.682  1.00  0.00     0.002 A 
HETATM   26  C   UNL     1      16.243  46.520  44.877  1.00  0.00     0.031 A 
BRANCH  22  27
HETATM   27  C   UNL     1      18.771  46.935  47.695  1.00  0.00     0.268 C 
HETATM   28  N   UNL     1      18.370  46.877  49.027  1.00  0.00    -0.290 N 
HETATM   29  H   UNL     1      17.422  46.595  49.273  1.00  0.00     0.183 HD
HETATM   30  O   UNL     1      19.798  47.498  47.325  1.00  0.00    -0.266 OA
BRANCH  28  31
HETATM   31  N   UNL     1      19.168  47.494  50.013  1.00  0.00    -0.247 NA
HETATM   32  H   UNL     1      20.139  47.218  49.822  1.00  0.00     0.143 HD
HETATM   33  H   UNL     1      18.973  47.011  50.898  1.00  0.00     0.143 HD
ENDBRANCH  28  31
ENDBRANCH  22  27
ENDBRANCH   5  21
TORSDOF 3
ENDMDL
MODEL 3
REMARK VINA RESULT:      -8.1     12.184     14.607
REMARK  3 active torsions:
REMARK  status: ('A' for Active; 'I' for Inactive)
REMARK    1  A    between atoms: N_5  and  C_6 
REMARK    2  A    between atoms: C_7  and  C_8 
REMARK       I    between atoms: C_8  and  N_9 
REMARK    3  A    between atoms: N_9  and  N_10 
ROOT
HETATM    1  C   UNL     1      14.994  49.284  46.382  1.00  0.00     0.056 C 
HETATM    2  C   UNL     1      16.217  50.184  46.417  1.00  0.00     0.158 C 
HETATM    3  C   UNL     1      17.481  49.453  46.873  1.00  0.00     0.267 C 
HETATM    4  O   UNL     1      17.909  48.435  46.335  1.00  0.00    -0.269 OA
HETATM    5  N   UNL     1      18.107  50.233  47.824  1.00  0.00    -0.230 N 
HETATM    6  C   UNL     1      17.371  51.378  48.052  1.00  0.00     0.333 C 
HETATM    7  O   UNL     1      17.706  52.360  48.701  1.00  0.00    -0.246 OA
HETATM    8  N   UNL     1      16.137  51.249  47.405  1.00  0.00    -0.309 N 
HETATM    9  C   UNL     1      15.313  52.426  47.113  1.00  0.00     0.134 C 
HETATM   10  C   UNL     1      15.784  53.171  45.841  1.00  0.00     0.061 C 
HETATM   11  C   UNL     1      16.323  52.209  44.827  1.00  0.00    -0.018 A 
HETATM   12  C   UNL     1      16.499  50.865  45.104  1.00  0.00     0.055 A 
HETATM   13  N   UNL     1      17.110  50.281  44.026  1.00  0.00    -0.356 N 
HETATM   14  H   UNL     1      17.413  49.314  43.970  1.00  0.00     0.166 HD
HETATM   15  C   UNL     1      17.405  51.244  43.084  1.00  0.00     0.043 A 
HETATM   16  C   UNL     1      16.887  52.459  43.546  1.00  0.00    -0.001 A 
HETATM   17  C   UNL     1      18.112  51.136  41.881  1.00  0.00     0.030 A 
HETATM   18  C   UNL     1      18.291  52.299  41.127  1.00  0.00     0.002 A 
HETATM   19  C   UNL     1      17.772  53.519  41.554  1.00  0.00     0.001 A 
HETATM   20  C   UNL     1      17.069  53.613  42.761  1.00  0.00     0.014 A 
ENDROOT
BRANCH   5  21
HETATM   21  C   UNL     1      19.473  50.047  48.159  1.00  0.00     0.063 A 
HETATM   22  C   UNL     1      19.888  49.190  49.199  1.00  0.00     0.060 A 
HETATM   23  C   UNL     1      21.246  48.862  49.346  1.00  0.00     0.019 A 
HETATM   24  C   UNL     1      22.200  49.418  48.496  1.00  0.00     0.001 A 
HETATM   25  C   UNL     1      21.808  50.317  47.511  1.00  0.00     0.002 A 
HETATM   26  C   UNL     1      20.457  50.635  47.346  1.00  0.00     0.031 A 
BRANCH  22  27
HETATM   27  C   UNL     1      18.974  48.679  50.257  1.00  0.00     0.268 C 
HETATM   28  N   UNL     1      19.254  49.109  51.551  1.00  0.00    -0.290 N 
HETATM   29  H   UNL     1      20.114  49.615  51.756  1.00  0.00     0.183 HD
HETATM   30  O   UNL     1      18.096  47.861  49.995  1.00  0.00    -0.266 OA
BRANCH  28  31
HETATM   31  N   UNL     1      18.506  48.587  52.627  1.00  0.00    -0.247 NA
HETATM   32  H   UNL     1      18.606  49.251  53.406  1.00  0.00     0.143 HD
HETATM   33  H   UNL     1      19.016  47.766  52.972  1.00  0.00     0.143 HD
ENDBRANCH  28  31
ENDBRANCH  22  27
ENDBRANCH   5  21
TORSDOF 3
ENDMDL
MODEL 4
REMARK VINA RESULT:      -8.1      2.102      6.710
REMARK  3 active torsions:
REMARK  status: ('A' for Active; 'I' for Inactive)
REMARK    1  A    between atoms: N_5  and  C_6 
REMARK    2  A    between atoms: C_7  and  C_8 
REMARK       I    between atoms: C_8  and  N_9 
REMARK    3  A    between atoms: N_9  and  N_10 
ROOT
HETATM    1  C   UNL     1      25.648  49.688  39.363  1.00  0.00     0.056 C 
HETATM    2  C   UNL     1      26.908  48.904  39.685  1.00  0.00     0.158 C 
HETATM    3  C   UNL     1      27.792  49.598  40.724  1.00  0.00     0.267 C 
HETATM    4  O   UNL     1      27.394  49.940  41.834  1.00  0.00    -0.269 OA
HETATM    5  N   UNL     1      29.091  49.583  40.258  1.00  0.00    -0.230 N 
HETATM    6  C   UNL     1      29.142  48.977  39.020  1.00  0.00     0.333 C 
HETATM    7  O   UNL     1      30.139  48.646  38.394  1.00  0.00    -0.246 OA
HETATM    8  N   UNL     1      27.832  48.787  38.566  1.00  0.00    -0.309 N 
HETATM    9  C   UNL     1      27.536  47.821  37.502  1.00  0.00     0.134 C 
HETATM   10  C   UNL     1      27.452  46.370  38.033  1.00  0.00     0.061 C 
HETATM   11  C   UNL     1      26.888  46.340  39.420  1.00  0.00    -0.018 A 
HETATM   12  C   UNL     1      26.640  47.495  40.142  1.00  0.00     0.055 A 
HETATM   13  N   UNL     1      26.241  47.136  41.403  1.00  0.00    -0.356 N 
HETATM   14  H   UNL     1      26.046  47.776  42.166  1.00  0.00     0.166 HD
HETATM   15  C   UNL     1      26.303  45.765  41.534  1.00  0.00     0.043 A 
HETATM   16  C   UNL     1      26.671  45.238  40.291  1.00  0.00    -0.001 A 
HETATM   17  C   UNL     1      26.092  44.960  42.659  1.00  0.00     0.030 A 
HETATM   18  C   UNL     1      26.255  43.580  42.511  1.00  0.00     0.002 A 
HETATM   19  C   UNL     1      26.603  43.026  41.281  1.00  0.00     0.001 A 
HETATM   20  C   UNL     1      26.815  43.843  40.164  1.00  0.00     0.014 A 
ENDROOT
BRANCH   5  21
HETATM   21  C   UNL     1      30.196  49.782  41.126  1.00  0.00     0.063 A 
HETATM   22  C   UNL     1      30.796  51.045  41.310  1.00  0.00     0.060 A 
HETATM   23  C   UNL     1      31.730  51.241  42.341  1.00  0.00     0.019 A 
HETATM   24  C   UNL     1      32.107  50.179  43.161  1.00  0.00     0.001 A 
HETATM   25  C   UNL     1      31.571  48.914  42.944  1.00  0.00     0.002 A 
HETATM   26  C   UNL     1      30.628  48.715  41.932  1.00  0.00     0.031 A 
BRANCH  22  27
HETATM   27  C   UNL     1      30.589  52.195  40.389  1.00  0.00     0.268 C 
HETATM   28  N   UNL     1      29.691  53.164  40.831  1.00  0.00    -0.290 N 
HETATM   29  H   UNL     1      29.119  53.003  41.658  1.00  0.00     0.183 HD
HETATM   30  O   UNL     1      31.113  52.221  39.278  1.00  0.00    -0.266 OA
BRANCH  28  31
HETATM   31  N   UNL     1      29.352  54.231  39.973  1.00  0.00    -0.247 NA
HETATM   32  H   UNL     1      29.090  55.022  40.575  1.00  0.00     0.143 HD
HETATM   33  H   UNL     1      28.457  53.985  39.533  1.00  0.00     0.143 HD
ENDBRANCH  28  31
ENDBRANCH  22  27
ENDBRANCH   5  21
TORSDOF 3
ENDMDL
MODEL 5
REMARK VINA RESULT:      -8.1      2.305      6.568
REMARK  3 active torsions:
REMARK  status: ('A' for Active; 'I' for Inactive)
REMARK    1  A    between atoms: N_5  and  C_6 
REMARK    2  A    between atoms: C_7  and  C_8 
REMARK       I    between atoms: C_8  and  N_9 
REMARK    3  A    between atoms: N_9  and  N_10 
ROOT
HETATM    1  C   UNL     1      28.709  46.859  37.893  1.00  0.00     0.056 C 
HETATM    2  C   UNL     1      28.254  47.810  38.986  1.00  0.00     0.158 C 
HETATM    3  C   UNL     1      29.002  49.145  38.963  1.00  0.00     0.267 C 
HETATM    4  O   UNL     1      29.059  49.874  37.976  1.00  0.00    -0.269 OA
HETATM    5  N   UNL     1      29.403  49.433  40.252  1.00  0.00    -0.230 N 
HETATM    6  C   UNL     1      29.019  48.417  41.103  1.00  0.00     0.333 C 
HETATM    7  O   UNL     1      29.063  48.416  42.325  1.00  0.00    -0.246 OA
HETATM    8  N   UNL     1      28.553  47.346  40.333  1.00  0.00    -0.309 N 
HETATM    9  C   UNL     1      27.707  46.304  40.926  1.00  0.00     0.134 C 
HETATM   10  C   UNL     1      26.227  46.738  41.031  1.00  0.00     0.061 C 
HETATM   11  C   UNL     1      25.846  47.622  39.884  1.00  0.00    -0.018 A 
HETATM   12  C   UNL     1      26.774  48.084  38.967  1.00  0.00     0.055 A 
HETATM   13  N   UNL     1      26.142  48.953  38.117  1.00  0.00    -0.356 N 
HETATM   14  H   UNL     1      26.588  49.487  37.378  1.00  0.00     0.166 HD
HETATM   15  C   UNL     1      24.834  49.122  38.518  1.00  0.00     0.043 A 
HETATM   16  C   UNL     1      24.611  48.269  39.603  1.00  0.00    -0.001 A 
HETATM   17  C   UNL     1      23.848  49.983  38.023  1.00  0.00     0.030 A 
HETATM   18  C   UNL     1      22.598  49.968  38.649  1.00  0.00     0.002 A 
HETATM   19  C   UNL     1      22.343  49.116  39.722  1.00  0.00     0.001 A 
HETATM   20  C   UNL     1      23.340  48.262  40.209  1.00  0.00     0.014 A 
ENDROOT
BRANCH   5  21
HETATM   21  C   UNL     1      29.764  50.748  40.643  1.00  0.00     0.063 A 
HETATM   22  C   UNL     1      31.050  51.070  41.123  1.00  0.00     0.060 A 
HETATM   23  C   UNL     1      31.431  52.413  41.281  1.00  0.00     0.019 A 
HETATM   24  C   UNL     1      30.526  53.438  41.011  1.00  0.00     0.001 A 
HETATM   25  C   UNL     1      29.233  53.128  40.602  1.00  0.00     0.002 A 
HETATM   26  C   UNL     1      28.851  51.795  40.426  1.00  0.00     0.031 A 
BRANCH  22  27
HETATM   27  C   UNL     1      32.028  50.053  41.596  1.00  0.00     0.268 C 
HETATM   28  N   UNL     1      32.796  49.451  40.601  1.00  0.00    -0.290 N 
HETATM   29  H   UNL     1      32.583  49.603  39.617  1.00  0.00     0.183 HD
HETATM   30  O   UNL     1      32.073  49.717  42.776  1.00  0.00    -0.266 OA
BRANCH  28  31
HETATM   31  N   UNL     1      33.669  48.399  40.949  1.00  0.00    -0.247 NA
HETATM   32  H   UNL     1      34.480  48.469  40.321  1.00  0.00     0.143 HD
HETATM   33  H   UNL     1      33.224  47.529  40.635  1.00  0.00     0.143 HD
ENDBRANCH  28  31
ENDBRANCH  22  27
ENDBRANCH   5  21
TORSDOF 3
ENDMDL
MODEL 6
REMARK VINA RESULT:      -8.0      2.165      6.933
REMARK  3 active torsions:
REMARK  status: ('A' for Active; 'I' for Inactive)
REMARK    1  A    between atoms: N_5  and  C_6 
REMARK    2  A    between atoms: C_7  and  C_8 
REMARK       I    between atoms: C_8  and  N_9 
REMARK    3  A    between atoms: N_9  and  N_10 
ROOT
HETATM    1  C   UNL     1      29.883  45.935  39.401  1.00  0.00     0.056 C 
HETATM    2  C   UNL     1      29.023  47.169  39.609  1.00  0.00     0.158 C 
HETATM    3  C   UNL     1      29.775  48.473  39.330  1.00  0.00     0.267 C 
HETATM    4  O   UNL     1      30.344  48.715  38.269  1.00  0.00    -0.269 OA
HETATM    5  N   UNL     1      29.528  49.340  40.375  1.00  0.00    -0.230 N 
HETATM    6  C   UNL     1      28.720  48.731  41.312  1.00  0.00     0.333 C 
HETATM    7  O   UNL     1      28.173  49.254  42.274  1.00  0.00    -0.246 OA
HETATM    8  N   UNL     1      28.610  47.374  40.989  1.00  0.00    -0.309 N 
HETATM    9  C   UNL     1      27.519  46.556  41.531  1.00  0.00     0.134 C 
HETATM   10  C   UNL     1      26.200  46.743  40.745  1.00  0.00     0.061 C 
HETATM   11  C   UNL     1      26.472  46.982  39.292  1.00  0.00    -0.018 A 
HETATM   12  C   UNL     1      27.753  47.160  38.800  1.00  0.00     0.055 A 
HETATM   13  N   UNL     1      27.662  47.471  37.468  1.00  0.00    -0.356 N 
HETATM   14  H   UNL     1      28.441  47.709  36.862  1.00  0.00     0.166 HD
HETATM   15  C   UNL     1      26.336  47.575  37.108  1.00  0.00     0.043 A 
HETATM   16  C   UNL     1      25.566  47.236  38.226  1.00  0.00    -0.001 A 
HETATM   17  C   UNL     1      25.764  47.970  35.893  1.00  0.00     0.030 A 
HETATM   18  C   UNL     1      24.369  48.015  35.816  1.00  0.00     0.002 A 
HETATM   19  C   UNL     1      23.578  47.666  36.908  1.00  0.00     0.001 A 
HETATM   20  C   UNL     1      24.163  47.276  38.118  1.00  0.00     0.014 A 
ENDROOT
BRANCH   5  21
HETATM   21  C   UNL     1      29.741  50.737  40.249  1.00  0.00     0.063 A 
HETATM   22  C   UNL     1      28.725  51.623  39.835  1.00  0.00     0.060 A 
HETATM   23  C   UNL     1      28.911  53.012  39.942  1.00  0.00     0.019 A 
HETATM   24  C   UNL     1      30.116  53.527  40.415  1.00  0.00     0.001 A 
HETATM   25  C   UNL     1      31.149  52.662  40.763  1.00  0.00     0.002 A 
HETATM   26  C   UNL     1      30.967  51.279  40.675  1.00  0.00     0.031 A 
BRANCH  22  27
HETATM   27  C   UNL     1      27.473  51.181  39.164  1.00  0.00     0.268 C 
HETATM   28  N   UNL     1      26.420  50.853  40.015  1.00  0.00    -0.290 N 
HETATM   29  H   UNL     1      26.566  50.787  41.021  1.00  0.00     0.183 HD
HETATM   30  O   UNL     1      27.424  51.033  37.946  1.00  0.00    -0.266 OA
BRANCH  28  31
HETATM   31  N   UNL     1      25.234  50.320  39.469  1.00  0.00    -0.247 NA
HETATM   32  H   UNL     1      25.090  50.787  38.564  1.00  0.00     0.143 HD
HETATM   33  H   UNL     1      24.457  50.687  40.031  1.00  0.00     0.143 HD
ENDBRANCH  28  31
ENDBRANCH  22  27
ENDBRANCH   5  21
TORSDOF 3
ENDMDL
MODEL 7
REMARK VINA RESULT:      -7.8     11.700     13.619
REMARK  3 active torsions:
REMARK  status: ('A' for Active; 'I' for Inactive)
REMARK    1  A    between atoms: N_5  and  C_6 
REMARK    2  A    between atoms: C_7  and  C_8 
REMARK       I    between atoms: C_8  and  N_9 
REMARK    3  A    between atoms: N_9  and  N_10 
ROOT
HETATM    1  C   UNL     1      18.730  48.675  50.964  1.00  0.00     0.056 C 
HETATM    2  C   UNL     1      19.357  48.827  49.589  1.00  0.00     0.158 C 
HETATM    3  C   UNL     1      19.711  47.484  48.946  1.00  0.00     0.267 C 
HETATM    4  O   UNL     1      18.899  46.578  48.775  1.00  0.00    -0.269 OA
HETATM    5  N   UNL     1      20.996  47.572  48.451  1.00  0.00    -0.230 N 
HETATM    6  C   UNL     1      21.523  48.818  48.727  1.00  0.00     0.333 C 
HETATM    7  O   UNL     1      22.564  49.296  48.297  1.00  0.00    -0.246 OA
HETATM    8  N   UNL     1      20.657  49.481  49.603  1.00  0.00    -0.309 N 
HETATM    9  C   UNL     1      20.714  50.939  49.759  1.00  0.00     0.134 C 
HETATM   10  C   UNL     1      19.967  51.680  48.625  1.00  0.00     0.061 C 
HETATM   11  C   UNL     1      18.774  50.897  48.170  1.00  0.00    -0.018 A 
HETATM   12  C   UNL     1      18.512  49.617  48.626  1.00  0.00     0.055 A 
HETATM   13  N   UNL     1      17.427  49.131  47.944  1.00  0.00    -0.356 N 
HETATM   14  H   UNL     1      17.044  48.196  48.032  1.00  0.00     0.166 HD
HETATM   15  C   UNL     1      17.030  50.049  46.995  1.00  0.00     0.043 A 
HETATM   16  C   UNL     1      17.836  51.183  47.140  1.00  0.00    -0.001 A 
HETATM   17  C   UNL     1      16.045  49.948  46.005  1.00  0.00     0.030 A 
HETATM   18  C   UNL     1      15.875  51.037  45.145  1.00  0.00     0.002 A 
HETATM   19  C   UNL     1      16.651  52.186  45.278  1.00  0.00     0.001 A 
HETATM   20  C   UNL     1      17.635  52.272  46.270  1.00  0.00     0.014 A 
ENDROOT
BRANCH   5  21
HETATM   21  C   UNL     1      21.481  46.668  47.471  1.00  0.00     0.063 A 
HETATM   22  C   UNL     1      22.384  45.630  47.779  1.00  0.00     0.060 A 
HETATM   23  C   UNL     1      22.658  44.627  46.834  1.00  0.00     0.019 A 
HETATM   24  C   UNL     1      22.077  44.674  45.569  1.00  0.00     0.001 A 
HETATM   25  C   UNL     1      21.238  45.731  45.232  1.00  0.00     0.002 A 
HETATM   26  C   UNL     1      20.947  46.724  46.172  1.00  0.00     0.031 A 
BRANCH  22  27
HETATM   27  C   UNL     1      23.181  45.580  49.035  1.00  0.00     0.268 C 
HETATM   28  N   UNL     1      22.813  44.587  49.940  1.00  0.00    -0.290 N 
HETATM   29  H   UNL     1      21.964  44.043  49.798  1.00  0.00     0.183 HD
HETATM   30  O   UNL     1      24.038  46.426  49.276  1.00  0.00    -0.266 OA
BRANCH  28  31
HETATM   31  N   UNL     1      23.442  44.539  51.202  1.00  0.00    -0.247 NA
HETATM   32  H   UNL     1      23.238  45.432  51.668  1.00  0.00     0.143 HD
HETATM   33  H   UNL     1      24.452  44.606  51.032  1.00  0.00     0.143 HD
ENDBRANCH  28  31
ENDBRANCH  22  27
ENDBRANCH   5  21
TORSDOF 3
ENDMDL
MODEL 8
REMARK VINA RESULT:      -7.8     11.763     13.995
REMARK  3 active torsions:
REMARK  status: ('A' for Active; 'I' for Inactive)
REMARK    1  A    between atoms: N_5  and  C_6 
REMARK    2  A    between atoms: C_7  and  C_8 
REMARK       I    between atoms: C_8  and  N_9 
REMARK    3  A    between atoms: N_9  and  N_10 
ROOT
HETATM    1  C   UNL     1      17.602  51.421  49.984  1.00  0.00     0.056 C 
HETATM    2  C   UNL     1      18.168  50.716  48.763  1.00  0.00     0.158 C 
HETATM    3  C   UNL     1      17.939  51.496  47.467  1.00  0.00     0.267 C 
HETATM    4  O   UNL     1      18.299  52.659  47.301  1.00  0.00    -0.269 OA
HETATM    5  N   UNL     1      17.453  50.618  46.520  1.00  0.00    -0.230 N 
HETATM    6  C   UNL     1      17.319  49.359  47.069  1.00  0.00     0.333 C 
HETATM    7  O   UNL     1      17.076  48.314  46.481  1.00  0.00    -0.246 OA
HETATM    8  N   UNL     1      17.510  49.456  48.452  1.00  0.00    -0.309 N 
HETATM    9  C   UNL     1      17.835  48.271  49.252  1.00  0.00     0.134 C 
HETATM   10  C   UNL     1      19.336  47.904  49.175  1.00  0.00     0.061 C 
HETATM   11  C   UNL     1      20.182  49.135  49.055  1.00  0.00    -0.018 A 
HETATM   12  C   UNL     1      19.634  50.394  48.881  1.00  0.00     0.055 A 
HETATM   13  N   UNL     1      20.657  51.285  48.691  1.00  0.00    -0.356 N 
HETATM   14  H   UNL     1      20.550  52.272  48.483  1.00  0.00     0.166 HD
HETATM   15  C   UNL     1      21.858  50.609  48.659  1.00  0.00     0.043 A 
HETATM   16  C   UNL     1      21.592  49.261  48.923  1.00  0.00    -0.001 A 
HETATM   17  C   UNL     1      23.147  51.082  48.389  1.00  0.00     0.030 A 
HETATM   18  C   UNL     1      24.194  50.155  48.394  1.00  0.00     0.002 A 
HETATM   19  C   UNL     1      23.960  48.810  48.670  1.00  0.00     0.001 A 
HETATM   20  C   UNL     1      22.664  48.350  48.935  1.00  0.00     0.014 A 
ENDROOT
BRANCH   5  21
HETATM   21  C   UNL     1      17.507  50.913  45.133  1.00  0.00     0.063 A 
HETATM   22  C   UNL     1      16.665  51.871  44.529  1.00  0.00     0.060 A 
HETATM   23  C   UNL     1      16.905  52.293  43.211  1.00  0.00     0.019 A 
HETATM   24  C   UNL     1      17.947  51.736  42.472  1.00  0.00     0.001 A 
HETATM   25  C   UNL     1      18.740  50.742  43.036  1.00  0.00     0.002 A 
HETATM   26  C   UNL     1      18.519  50.329  44.352  1.00  0.00     0.031 A 
BRANCH  22  27
HETATM   27  C   UNL     1      15.432  52.401  45.172  1.00  0.00     0.268 C 
HETATM   28  N   UNL     1      15.580  53.610  45.848  1.00  0.00    -0.290 N 
HETATM   29  H   UNL     1      16.505  54.008  46.004  1.00  0.00     0.183 HD
HETATM   30  O   UNL     1      14.388  51.754  45.172  1.00  0.00    -0.266 OA
BRANCH  28  31
HETATM   31  N   UNL     1      14.490  54.129  46.578  1.00  0.00    -0.247 NA
HETATM   32  H   UNL     1      14.807  55.014  46.992  1.00  0.00     0.143 HD
HETATM   33  H   UNL     1      14.374  53.530  47.403  1.00  0.00     0.143 HD
ENDBRANCH  28  31
ENDBRANCH  22  27
ENDBRANCH   5  21
TORSDOF 3
ENDMDL
MODEL 9
REMARK VINA RESULT:      -7.4      2.146      6.223
REMARK  3 active torsions:
REMARK  status: ('A' for Active; 'I' for Inactive)
REMARK    1  A    between atoms: N_5  and  C_6 
REMARK    2  A    between atoms: C_7  and  C_8 
REMARK       I    between atoms: C_8  and  N_9 
REMARK    3  A    between atoms: N_9  and  N_10 
ROOT
HETATM    1  C   UNL     1      24.957  47.888  40.655  1.00  0.00     0.056 C 
HETATM    2  C   UNL     1      26.127  48.326  39.793  1.00  0.00     0.158 C 
HETATM    3  C   UNL     1      27.187  49.102  40.578  1.00  0.00     0.267 C 
HETATM    4  O   UNL     1      27.740  48.668  41.585  1.00  0.00    -0.269 OA
HETATM    5  N   UNL     1      27.513  50.232  39.855  1.00  0.00    -0.230 N 
HETATM    6  C   UNL     1      26.761  50.284  38.699  1.00  0.00     0.333 C 
HETATM    7  O   UNL     1      26.903  51.049  37.754  1.00  0.00    -0.246 OA
HETATM    8  N   UNL     1      25.774  49.295  38.766  1.00  0.00    -0.309 N 
HETATM    9  C   UNL     1      25.092  48.827  37.555  1.00  0.00     0.134 C 
HETATM   10  C   UNL     1      25.931  47.788  36.774  1.00  0.00     0.061 C 
HETATM   11  C   UNL     1      26.733  46.936  37.709  1.00  0.00    -0.018 A 
HETATM   12  C   UNL     1      26.798  47.190  39.068  1.00  0.00     0.055 A 
HETATM   13  N   UNL     1      27.693  46.315  39.626  1.00  0.00    -0.356 N 
HETATM   14  H   UNL     1      27.983  46.306  40.598  1.00  0.00     0.166 HD
HETATM   15  C   UNL     1      28.269  45.550  38.634  1.00  0.00     0.043 A 
HETATM   16  C   UNL     1      27.657  45.894  37.425  1.00  0.00    -0.001 A 
HETATM   17  C   UNL     1      29.301  44.607  38.714  1.00  0.00     0.030 A 
HETATM   18  C   UNL     1      29.715  43.995  37.527  1.00  0.00     0.002 A 
HETATM   19  C   UNL     1      29.111  44.306  36.311  1.00  0.00     0.001 A 
HETATM   20  C   UNL     1      28.082  45.253  36.245  1.00  0.00     0.014 A 
ENDROOT
BRANCH   5  21
HETATM   21  C   UNL     1      28.714  50.948  40.093  1.00  0.00     0.063 A 
HETATM   22  C   UNL     1      29.983  50.432  39.755  1.00  0.00     0.060 A 
HETATM   23  C   UNL     1      31.117  51.260  39.797  1.00  0.00     0.019 A 
HETATM   24  C   UNL     1      31.007  52.584  40.218  1.00  0.00     0.001 A 
HETATM   25  C   UNL     1      29.772  53.082  40.618  1.00  0.00     0.002 A 
HETATM   26  C   UNL     1      28.635  52.270  40.562  1.00  0.00     0.031 A 
BRANCH  22  27
HETATM   27  C   UNL     1      30.232  48.996  39.455  1.00  0.00     0.268 C 
HETATM   28  N   UNL     1      30.703  48.233  40.521  1.00  0.00    -0.290 N 
HETATM   29  H   UNL     1      30.990  48.678  41.391  1.00  0.00     0.183 HD
HETATM   30  O   UNL     1      30.112  48.557  38.314  1.00  0.00    -0.266 OA
BRANCH  28  31
HETATM   31  N   UNL     1      31.070  46.890  40.296  1.00  0.00    -0.247 NA
HETATM   32  H   UNL     1      32.098  46.862  40.288  1.00  0.00     0.143 HD
HETATM   33  H   UNL     1      30.837  46.678  39.319  1.00  0.00     0.143 HD
ENDBRANCH  28  31
ENDBRANCH  22  27
ENDBRANCH   5  21
TORSDOF 3
ENDMDL
MODEL 10
REMARK VINA RESULT:      -7.2     11.491     13.135
REMARK  3 active torsions:
REMARK  status: ('A' for Active; 'I' for Inactive)
REMARK    1  A    between atoms: N_5  and  C_6 
REMARK    2  A    between atoms: C_7  and  C_8 
REMARK       I    between atoms: C_8  and  N_9 
REMARK    3  A    between atoms: N_9  and  N_10 
ROOT
HETATM    1  C   UNL     1      16.495  48.380  45.899  1.00  0.00     0.056 C 
HETATM    2  C   UNL     1      17.650  47.674  46.588  1.00  0.00     0.158 C 
HETATM    3  C   UNL     1      18.463  46.794  45.636  1.00  0.00     0.267 C 
HETATM    4  O   UNL     1      18.978  47.208  44.601  1.00  0.00    -0.269 OA
HETATM    5  N   UNL     1      18.650  45.568  46.242  1.00  0.00    -0.230 N 
HETATM    6  C   UNL     1      18.026  45.550  47.472  1.00  0.00     0.333 C 
HETATM    7  O   UNL     1      18.123  44.696  48.342  1.00  0.00    -0.246 OA
HETATM    8  N   UNL     1      17.233  46.698  47.584  1.00  0.00    -0.309 N 
HETATM    9  C   UNL     1      16.778  47.174  48.895  1.00  0.00     0.134 C 
HETATM   10  C   UNL     1      17.870  47.981  49.637  1.00  0.00     0.061 C 
HETATM   11  C   UNL     1      18.712  48.756  48.672  1.00  0.00    -0.018 A 
HETATM   12  C   UNL     1      18.588  48.611  47.301  1.00  0.00     0.055 A 
HETATM   13  N   UNL     1      19.565  49.360  46.699  1.00  0.00    -0.356 N 
HETATM   14  H   UNL     1      19.749  49.400  45.702  1.00  0.00     0.166 HD
HETATM   15  C   UNL     1      20.371  49.927  47.664  1.00  0.00     0.043 A 
HETATM   16  C   UNL     1      19.835  49.594  48.912  1.00  0.00    -0.001 A 
HETATM   17  C   UNL     1      21.544  50.679  47.524  1.00  0.00     0.030 A 
HETATM   18  C   UNL     1      22.182  51.107  48.691  1.00  0.00     0.002 A 
HETATM   19  C   UNL     1      21.661  50.805  49.948  1.00  0.00     0.001 A 
HETATM   20  C   UNL     1      20.490  50.049  50.072  1.00  0.00     0.014 A 
ENDROOT
BRANCH   5  21
HETATM   21  C   UNL     1      19.669  44.676  45.819  1.00  0.00     0.063 A 
HETATM   22  C   UNL     1      20.990  44.748  46.309  1.00  0.00     0.060 A 
HETATM   23  C   UNL     1      21.902  43.714  46.040  1.00  0.00     0.019 A 
HETATM   24  C   UNL     1      21.525  42.631  45.247  1.00  0.00     0.001 A 
HETATM   25  C   UNL     1      20.246  42.585  44.703  1.00  0.00     0.002 A 
HETATM   26  C   UNL     1      19.327  43.601  44.980  1.00  0.00     0.031 A 
BRANCH  22  27
HETATM   27  C   UNL     1      21.538  45.934  47.021  1.00  0.00     0.268 C 
HETATM   28  N   UNL     1      21.677  45.795  48.400  1.00  0.00    -0.290 N 
HETATM   29  H   UNL     1      21.288  44.987  48.883  1.00  0.00     0.183 HD
HETATM   30  O   UNL     1      21.758  46.986  46.426  1.00  0.00    -0.266 OA
BRANCH  28  31
HETATM   31  N   UNL     1      22.085  46.907  49.166  1.00  0.00    -0.247 NA
HETATM   32  H   UNL     1      22.622  46.537  49.961  1.00  0.00     0.143 HD
HETATM   33  H   UNL     1      21.244  47.277  49.623  1.00  0.00     0.143 HD
ENDBRANCH  28  31
ENDBRANCH  22  27
ENDBRANCH   5  21
TORSDOF 3
ENDMDL
