MODEL 1
REMARK VINA RESULT:      -8.9      0.000      0.000
REMARK  4 active torsions:
REMARK  status: ('A' for Active; 'I' for Inactive)
REMARK    1  A    between atoms: C_4  and  O_5 
REMARK    2  A    between atoms: O_5  and  C_6 
REMARK    3  A    between atoms: C_7  and  N_8 
REMARK       I    between atoms: N_8  and  C_9 
REMARK    4  A    between atoms: C_9  and  C_10 
ROOT
HETATM    1  C   UNL     1      28.833  43.596  54.015  1.00  0.00     0.102 A 
HETATM    2  C   UNL     1      27.629  42.862  53.977  1.00  0.00     0.069 A 
HETATM    3  C   UNL     1      27.592  41.646  53.289  1.00  0.00     0.032 A 
HETATM    4  C   UNL     1      28.719  41.188  52.601  1.00  0.00     0.002 A 
HETATM    5  C   UNL     1      29.890  41.941  52.597  1.00  0.00     0.003 A 
HETATM    6  C   UNL     1      29.950  43.146  53.300  1.00  0.00     0.039 A 
ENDROOT
BRANCH   2   7
HETATM    7  N   UNL     1      26.529  43.380  54.692  1.00  0.00    -0.320 N 
HETATM    8  C   UNL     1      25.459  44.141  54.318  1.00  0.00     0.257 C 
HETATM    9  O   UNL     1      24.478  44.223  55.058  1.00  0.00    -0.267 OA
HETATM   10  H   UNL     1      26.505  43.135  55.677  1.00  0.00     0.169 HD
BRANCH   8  11
HETATM   11  C   UNL     1      25.503  44.954  53.069  1.00  0.00     0.048 A 
HETATM   12  C   UNL     1      25.195  44.392  51.888  1.00  0.00     0.108 A 
HETATM   13  N   UNL     1      25.281  45.120  50.724  1.00  0.00    -0.333 N 
HETATM   14  C   UNL     1      25.709  46.425  50.665  1.00  0.00     0.245 A 
HETATM   15  H   UNL     1      25.029  44.698  49.837  1.00  0.00     0.168 HD
HETATM   16  O   UNL     1      25.767  47.060  49.619  1.00  0.00    -0.268 OA
HETATM   17  C   UNL     1      26.110  47.031  51.961  1.00  0.00     0.075 A 
HETATM   18  C   UNL     1      26.010  46.314  53.091  1.00  0.00     0.024 A 
ENDBRANCH   8  11
ENDBRANCH   2   7
BRANCH   1  19
HETATM   19  O   UNL     1      28.785  44.786  54.723  1.00  0.00    -0.309 OA
BRANCH  19  20
HETATM   20  C   UNL     1      29.531  44.915  55.865  1.00  0.00     0.076 A 
HETATM   21  C   UNL     1      29.147  45.892  56.783  1.00  0.00     0.037 A 
HETATM   22  C   UNL     1      29.841  46.024  57.985  1.00  0.00     0.003 A 
HETATM   23  C   UNL     1      30.906  45.167  58.271  1.00  0.00     0.000 A 
HETATM   24  C   UNL     1      31.271  44.173  57.360  1.00  0.00     0.003 A 
HETATM   25  C   UNL     1      30.575  44.036  56.160  1.00  0.00     0.037 A 
ENDBRANCH  19  20
ENDBRANCH   1  19
TORSDOF 4
ENDMDL
MODEL 2
REMARK VINA RESULT:      -8.3      2.569      5.416
REMARK  4 active torsions:
REMARK  status: ('A' for Active; 'I' for Inactive)
REMARK    1  A    between atoms: C_4  and  O_5 
REMARK    2  A    between atoms: O_5  and  C_6 
REMARK    3  A    between atoms: C_7  and  N_8 
REMARK       I    between atoms: N_8  and  C_9 
REMARK    4  A    between atoms: C_9  and  C_10 
ROOT
HETATM    1  C   UNL     1      28.067  42.011  52.566  1.00  0.00     0.102 A 
HETATM    2  C   UNL     1      27.266  43.074  53.034  1.00  0.00     0.069 A 
HETATM    3  C   UNL     1      27.863  44.110  53.758  1.00  0.00     0.032 A 
HETATM    4  C   UNL     1      29.226  44.066  54.062  1.00  0.00     0.002 A 
HETATM    5  C   UNL     1      30.002  42.990  53.642  1.00  0.00     0.003 A 
HETATM    6  C   UNL     1      29.426  41.960  52.897  1.00  0.00     0.039 A 
ENDROOT
BRANCH   2   7
HETATM    7  N   UNL     1      25.897  43.057  52.694  1.00  0.00    -0.320 N 
HETATM    8  C   UNL     1      25.164  43.752  51.776  1.00  0.00     0.257 C 
HETATM    9  O   UNL     1      24.041  43.355  51.463  1.00  0.00    -0.267 OA
HETATM   10  H   UNL     1      25.335  42.390  53.215  1.00  0.00     0.169 HD
BRANCH   8  11
HETATM   11  C   UNL     1      25.666  45.040  51.220  1.00  0.00     0.048 A 
HETATM   12  C   UNL     1      25.155  46.206  51.652  1.00  0.00     0.108 A 
HETATM   13  N   UNL     1      25.577  47.398  51.108  1.00  0.00    -0.333 N 
HETATM   14  C   UNL     1      26.494  47.495  50.090  1.00  0.00     0.245 A 
HETATM   15  H   UNL     1      25.203  48.276  51.451  1.00  0.00     0.168 HD
HETATM   16  O   UNL     1      26.866  48.567  49.628  1.00  0.00    -0.268 OA
HETATM   17  C   UNL     1      27.015  46.205  49.566  1.00  0.00     0.075 A 
HETATM   18  C   UNL     1      26.605  45.050  50.113  1.00  0.00     0.024 A 
ENDBRANCH   8  11
ENDBRANCH   2   7
BRANCH   1  19
HETATM   19  O   UNL     1      27.398  41.029  51.852  1.00  0.00    -0.309 OA
BRANCH  19  20
HETATM   20  C   UNL     1      27.749  40.795  50.548  1.00  0.00     0.076 A 
HETATM   21  C   UNL     1      28.533  39.672  50.281  1.00  0.00     0.037 A 
HETATM   22  C   UNL     1      28.869  39.361  48.964  1.00  0.00     0.003 A 
HETATM   23  C   UNL     1      28.407  40.163  47.920  1.00  0.00     0.000 A 
HETATM   24  C   UNL     1      27.600  41.272  48.190  1.00  0.00     0.003 A 
HETATM   25  C   UNL     1      27.259  41.582  49.506  1.00  0.00     0.037 A 
ENDBRANCH  19  20
ENDBRANCH   1  19
TORSDOF 4
ENDMDL
MODEL 3
REMARK VINA RESULT:      -8.2      1.903      3.309
REMARK  4 active torsions:
REMARK  status: ('A' for Active; 'I' for Inactive)
REMARK    1  A    between atoms: C_4  and  O_5 
REMARK    2  A    between atoms: O_5  and  C_6 
REMARK    3  A    between atoms: C_7  and  N_8 
REMARK       I    between atoms: N_8  and  C_9 
REMARK    4  A    between atoms: C_9  and  C_10 
ROOT
HETATM    1  C   UNL     1      28.347  45.688  54.616  1.00  0.00     0.102 A 
HETATM    2  C   UNL     1      27.182  44.966  54.285  1.00  0.00     0.069 A 
HETATM    3  C   UNL     1      25.967  45.647  54.169  1.00  0.00     0.032 A 
HETATM    4  C   UNL     1      25.897  47.017  54.431  1.00  0.00     0.002 A 
HETATM    5  C   UNL     1      27.040  47.717  54.808  1.00  0.00     0.003 A 
HETATM    6  C   UNL     1      28.265  47.056  54.904  1.00  0.00     0.039 A 
ENDROOT
BRANCH   2   7
HETATM    7  N   UNL     1      27.321  43.584  54.035  1.00  0.00    -0.320 N 
HETATM    8  C   UNL     1      27.226  42.837  52.897  1.00  0.00     0.257 C 
HETATM    9  O   UNL     1      27.677  41.691  52.879  1.00  0.00    -0.267 OA
HETATM   10  H   UNL     1      27.553  43.023  54.849  1.00  0.00     0.169 HD
BRANCH   8  11
HETATM   11  C   UNL     1      26.498  43.356  51.705  1.00  0.00     0.048 A 
HETATM   12  C   UNL     1      27.165  44.011  50.739  1.00  0.00     0.108 A 
HETATM   13  N   UNL     1      26.493  44.537  49.659  1.00  0.00    -0.333 N 
HETATM   14  C   UNL     1      25.130  44.474  49.498  1.00  0.00     0.245 A 
HETATM   15  H   UNL     1      27.003  45.013  48.923  1.00  0.00     0.168 HD
HETATM   16  O   UNL     1      24.552  44.938  48.523  1.00  0.00    -0.268 OA
HETATM   17  C   UNL     1      24.381  43.806  50.595  1.00  0.00     0.075 A 
HETATM   18  C   UNL     1      25.049  43.286  51.637  1.00  0.00     0.024 A 
ENDBRANCH   8  11
ENDBRANCH   2   7
BRANCH   1  19
HETATM   19  O   UNL     1      29.509  44.939  54.705  1.00  0.00    -0.309 OA
BRANCH  19  20
HETATM   20  C   UNL     1      30.121  44.796  55.924  1.00  0.00     0.076 A 
HETATM   21  C   UNL     1      31.028  43.747  56.075  1.00  0.00     0.037 A 
HETATM   22  C   UNL     1      31.717  43.596  57.278  1.00  0.00     0.003 A 
HETATM   23  C   UNL     1      31.507  44.503  58.318  1.00  0.00     0.000 A 
HETATM   24  C   UNL     1      30.618  45.567  58.153  1.00  0.00     0.003 A 
HETATM   25  C   UNL     1      29.932  45.723  56.949  1.00  0.00     0.037 A 
ENDBRANCH  19  20
ENDBRANCH   1  19
TORSDOF 4
ENDMDL
MODEL 4
REMARK VINA RESULT:      -8.1      3.734      8.532
REMARK  4 active torsions:
REMARK  status: ('A' for Active; 'I' for Inactive)
REMARK    1  A    between atoms: C_4  and  O_5 
REMARK    2  A    between atoms: O_5  and  C_6 
REMARK    3  A    between atoms: C_7  and  N_8 
REMARK       I    between atoms: N_8  and  C_9 
REMARK    4  A    between atoms: C_9  and  C_10 
ROOT
HETATM    1  C   UNL     1      24.680  48.394  49.238  1.00  0.00     0.102 A 
HETATM    2  C   UNL     1      25.498  47.319  49.643  1.00  0.00     0.069 A 
HETATM    3  C   UNL     1      26.888  47.468  49.606  1.00  0.00     0.032 A 
HETATM    4  C   UNL     1      27.460  48.647  49.121  1.00  0.00     0.002 A 
HETATM    5  C   UNL     1      26.648  49.685  48.673  1.00  0.00     0.003 A 
HETATM    6  C   UNL     1      25.259  49.561  48.728  1.00  0.00     0.039 A 
ENDROOT
BRANCH   2   7
HETATM    7  N   UNL     1      24.858  46.156  50.120  1.00  0.00    -0.320 N 
HETATM    8  C   UNL     1      24.768  45.593  51.361  1.00  0.00     0.257 C 
HETATM    9  O   UNL     1      23.911  44.737  51.583  1.00  0.00    -0.267 OA
HETATM   10  H   UNL     1      24.345  45.632  49.418  1.00  0.00     0.169 HD
BRANCH   8  11
HETATM   11  C   UNL     1      25.758  45.931  52.422  1.00  0.00     0.048 A 
HETATM   12  C   UNL     1      26.694  45.035  52.782  1.00  0.00     0.108 A 
HETATM   13  N   UNL     1      27.580  45.319  53.795  1.00  0.00    -0.333 N 
HETATM   14  C   UNL     1      27.564  46.483  54.526  1.00  0.00     0.245 A 
HETATM   15  H   UNL     1      28.296  44.648  54.050  1.00  0.00     0.168 HD
HETATM   16  O   UNL     1      28.370  46.722  55.416  1.00  0.00    -0.268 OA
HETATM   17  C   UNL     1      26.492  47.450  54.174  1.00  0.00     0.075 A 
HETATM   18  C   UNL     1      25.640  47.166  53.175  1.00  0.00     0.024 A 
ENDBRANCH   8  11
ENDBRANCH   2   7
BRANCH   1  19
HETATM   19  O   UNL     1      23.315  48.165  49.311  1.00  0.00    -0.309 OA
BRANCH  19  20
HETATM   20  C   UNL     1      22.449  49.179  48.993  1.00  0.00     0.076 A 
HETATM   21  C   UNL     1      21.768  49.093  47.779  1.00  0.00     0.037 A 
HETATM   22  C   UNL     1      20.836  50.072  47.437  1.00  0.00     0.003 A 
HETATM   23  C   UNL     1      20.578  51.124  48.318  1.00  0.00     0.000 A 
HETATM   24  C   UNL     1      21.243  51.192  49.544  1.00  0.00     0.003 A 
HETATM   25  C   UNL     1      22.172  50.212  49.890  1.00  0.00     0.037 A 
ENDBRANCH  19  20
ENDBRANCH   1  19
TORSDOF 4
ENDMDL
MODEL 5
REMARK VINA RESULT:      -8.1      1.892      5.146
REMARK  4 active torsions:
REMARK  status: ('A' for Active; 'I' for Inactive)
REMARK    1  A    between atoms: C_4  and  O_5 
REMARK    2  A    between atoms: O_5  and  C_6 
REMARK    3  A    between atoms: C_7  and  N_8 
REMARK       I    between atoms: N_8  and  C_9 
REMARK    4  A    between atoms: C_9  and  C_10 
ROOT
HETATM    1  C   UNL     1      26.323  44.834  50.713  1.00  0.00     0.102 A 
HETATM    2  C   UNL     1      25.608  45.569  51.681  1.00  0.00     0.069 A 
HETATM    3  C   UNL     1      25.466  46.950  51.522  1.00  0.00     0.032 A 
HETATM    4  C   UNL     1      26.072  47.604  50.446  1.00  0.00     0.002 A 
HETATM    5  C   UNL     1      26.821  46.882  49.521  1.00  0.00     0.003 A 
HETATM    6  C   UNL     1      26.951  45.499  49.653  1.00  0.00     0.039 A 
ENDROOT
BRANCH   2   7
HETATM    7  N   UNL     1      25.022  44.848  52.743  1.00  0.00    -0.320 N 
HETATM    8  C   UNL     1      25.307  44.771  54.076  1.00  0.00     0.257 C 
HETATM    9  O   UNL     1      24.474  44.303  54.853  1.00  0.00    -0.267 OA
HETATM   10  H   UNL     1      24.219  44.283  52.485  1.00  0.00     0.169 HD
BRANCH   8  11
HETATM   11  C   UNL     1      26.652  45.156  54.590  1.00  0.00     0.048 A 
HETATM   12  C   UNL     1      27.477  44.220  55.090  1.00  0.00     0.108 A 
HETATM   13  N   UNL     1      28.700  44.573  55.612  1.00  0.00    -0.333 N 
HETATM   14  C   UNL     1      29.153  45.867  55.698  1.00  0.00     0.245 A 
HETATM   15  H   UNL     1      29.326  43.861  55.972  1.00  0.00     0.168 HD
HETATM   16  O   UNL     1      30.251  46.160  56.155  1.00  0.00    -0.268 OA
HETATM   17  C   UNL     1      28.219  46.912  55.203  1.00  0.00     0.075 A 
HETATM   18  C   UNL     1      27.033  46.554  54.685  1.00  0.00     0.024 A 
ENDBRANCH   8  11
ENDBRANCH   2   7
BRANCH   1  19
HETATM   19  O   UNL     1      26.411  43.470  50.943  1.00  0.00    -0.309 OA
BRANCH  19  20
HETATM   20  C   UNL     1      27.463  42.983  51.675  1.00  0.00     0.076 A 
HETATM   21  C   UNL     1      27.354  41.687  52.181  1.00  0.00     0.037 A 
HETATM   22  C   UNL     1      28.420  41.128  52.884  1.00  0.00     0.003 A 
HETATM   23  C   UNL     1      29.595  41.859  53.064  1.00  0.00     0.000 A 
HETATM   24  C   UNL     1      29.710  43.146  52.533  1.00  0.00     0.003 A 
HETATM   25  C   UNL     1      28.646  43.706  51.825  1.00  0.00     0.037 A 
ENDBRANCH  19  20
ENDBRANCH   1  19
TORSDOF 4
ENDMDL
MODEL 6
REMARK VINA RESULT:      -8.1      2.001      4.095
REMARK  4 active torsions:
REMARK  status: ('A' for Active; 'I' for Inactive)
REMARK    1  A    between atoms: C_4  and  O_5 
REMARK    2  A    between atoms: O_5  and  C_6 
REMARK    3  A    between atoms: C_7  and  N_8 
REMARK       I    between atoms: N_8  and  C_9 
REMARK    4  A    between atoms: C_9  and  C_10 
ROOT
HETATM    1  C   UNL     1      27.058  45.015  54.942  1.00  0.00     0.102 A 
HETATM    2  C   UNL     1      26.064  45.800  54.321  1.00  0.00     0.069 A 
HETATM    3  C   UNL     1      26.133  47.192  54.421  1.00  0.00     0.032 A 
HETATM    4  C   UNL     1      27.144  47.798  55.171  1.00  0.00     0.002 A 
HETATM    5  C   UNL     1      28.092  47.018  55.826  1.00  0.00     0.003 A 
HETATM    6  C   UNL     1      28.051  45.627  55.715  1.00  0.00     0.039 A 
ENDROOT
BRANCH   2   7
HETATM    7  N   UNL     1      25.071  45.126  53.580  1.00  0.00    -0.320 N 
HETATM    8  C   UNL     1      24.937  44.852  52.249  1.00  0.00     0.257 C 
HETATM    9  O   UNL     1      24.132  43.997  51.878  1.00  0.00    -0.267 OA
HETATM   10  H   UNL     1      24.305  44.752  54.132  1.00  0.00     0.169 HD
BRANCH   8  11
HETATM   11  C   UNL     1      25.685  45.643  51.231  1.00  0.00     0.048 A 
HETATM   12  C   UNL     1      26.734  45.099  50.590  1.00  0.00     0.108 A 
HETATM   13  N   UNL     1      27.461  45.838  49.686  1.00  0.00    -0.333 N 
HETATM   14  C   UNL     1      27.210  47.157  49.395  1.00  0.00     0.245 A 
HETATM   15  H   UNL     1      28.240  45.417  49.191  1.00  0.00     0.168 HD
HETATM   16  O   UNL     1      27.862  47.795  48.577  1.00  0.00    -0.268 OA
HETATM   17  C   UNL     1      26.090  47.782  50.147  1.00  0.00     0.075 A 
HETATM   18  C   UNL     1      25.382  47.047  51.019  1.00  0.00     0.024 A 
ENDBRANCH   8  11
ENDBRANCH   2   7
BRANCH   1  19
HETATM   19  O   UNL     1      26.918  43.645  54.790  1.00  0.00    -0.309 OA
BRANCH  19  20
HETATM   20  C   UNL     1      27.813  42.965  54.005  1.00  0.00     0.076 A 
HETATM   21  C   UNL     1      28.960  43.643  53.594  1.00  0.00     0.037 A 
HETATM   22  C   UNL     1      29.925  42.977  52.840  1.00  0.00     0.003 A 
HETATM   23  C   UNL     1      29.747  41.631  52.517  1.00  0.00     0.000 A 
HETATM   24  C   UNL     1      28.610  40.947  52.953  1.00  0.00     0.003 A 
HETATM   25  C   UNL     1      27.645  41.611  53.710  1.00  0.00     0.037 A 
ENDBRANCH  19  20
ENDBRANCH   1  19
TORSDOF 4
ENDMDL
MODEL 7
REMARK VINA RESULT:      -8.0      2.312      3.652
REMARK  4 active torsions:
REMARK  status: ('A' for Active; 'I' for Inactive)
REMARK    1  A    between atoms: C_4  and  O_5 
REMARK    2  A    between atoms: O_5  and  C_6 
REMARK    3  A    between atoms: C_7  and  N_8 
REMARK       I    between atoms: N_8  and  C_9 
REMARK    4  A    between atoms: C_9  and  C_10 
ROOT
HETATM    1  C   UNL     1      27.962  46.043  54.544  1.00  0.00     0.102 A 
HETATM    2  C   UNL     1      26.886  45.997  53.633  1.00  0.00     0.069 A 
HETATM    3  C   UNL     1      25.899  46.985  53.693  1.00  0.00     0.032 A 
HETATM    4  C   UNL     1      25.948  47.975  54.677  1.00  0.00     0.002 A 
HETATM    5  C   UNL     1      26.984  47.987  55.607  1.00  0.00     0.003 A 
HETATM    6  C   UNL     1      27.991  47.022  55.545  1.00  0.00     0.039 A 
ENDROOT
BRANCH   2   7
HETATM    7  N   UNL     1      26.896  44.971  52.665  1.00  0.00    -0.320 N 
HETATM    8  C   UNL     1      26.630  44.960  51.326  1.00  0.00     0.257 C 
HETATM    9  O   UNL     1      26.989  44.003  50.639  1.00  0.00    -0.267 OA
HETATM   10  H   UNL     1      27.167  44.056  53.014  1.00  0.00     0.169 HD
BRANCH   8  11
HETATM   11  C   UNL     1      25.824  46.048  50.702  1.00  0.00     0.048 A 
HETATM   12  C   UNL     1      24.500  45.891  50.529  1.00  0.00     0.108 A 
HETATM   13  N   UNL     1      23.756  46.869  49.909  1.00  0.00    -0.333 N 
HETATM   14  C   UNL     1      24.287  48.030  49.399  1.00  0.00     0.245 A 
HETATM   15  H   UNL     1      22.755  46.755  49.797  1.00  0.00     0.168 HD
HETATM   16  O   UNL     1      23.605  48.893  48.861  1.00  0.00    -0.268 OA
HETATM   17  C   UNL     1      25.760  48.179  49.533  1.00  0.00     0.075 A 
HETATM   18  C   UNL     1      26.472  47.223  50.150  1.00  0.00     0.024 A 
ENDBRANCH   8  11
ENDBRANCH   2   7
BRANCH   1  19
HETATM   19  O   UNL     1      28.899  45.031  54.413  1.00  0.00    -0.309 OA
BRANCH  19  20
HETATM   20  C   UNL     1      29.678  44.698  55.490  1.00  0.00     0.076 A 
HETATM   21  C   UNL     1      30.435  43.529  55.405  1.00  0.00     0.037 A 
HETATM   22  C   UNL     1      31.285  43.178  56.453  1.00  0.00     0.003 A 
HETATM   23  C   UNL     1      31.387  44.004  57.573  1.00  0.00     0.000 A 
HETATM   24  C   UNL     1      30.646  45.187  57.643  1.00  0.00     0.003 A 
HETATM   25  C   UNL     1      29.799  45.543  56.594  1.00  0.00     0.037 A 
ENDBRANCH  19  20
ENDBRANCH   1  19
TORSDOF 4
ENDMDL
MODEL 8
REMARK VINA RESULT:      -8.0     13.307     15.762
REMARK  4 active torsions:
REMARK  status: ('A' for Active; 'I' for Inactive)
REMARK    1  A    between atoms: C_4  and  O_5 
REMARK    2  A    between atoms: O_5  and  C_6 
REMARK    3  A    between atoms: C_7  and  N_8 
REMARK       I    between atoms: N_8  and  C_9 
REMARK    4  A    between atoms: C_9  and  C_10 
ROOT
HETATM    1  C   UNL     1      27.301  48.625  39.930  1.00  0.00     0.102 A 
HETATM    2  C   UNL     1      26.847  49.913  39.576  1.00  0.00     0.069 A 
HETATM    3  C   UNL     1      26.189  50.094  38.356  1.00  0.00     0.032 A 
HETATM    4  C   UNL     1      26.032  49.023  37.473  1.00  0.00     0.002 A 
HETATM    5  C   UNL     1      26.527  47.765  37.803  1.00  0.00     0.003 A 
HETATM    6  C   UNL     1      27.164  47.563  39.029  1.00  0.00     0.039 A 
ENDROOT
BRANCH   2   7
HETATM    7  N   UNL     1      27.039  50.951  40.513  1.00  0.00    -0.320 N 
HETATM    8  C   UNL     1      27.984  51.929  40.628  1.00  0.00     0.257 C 
HETATM    9  O   UNL     1      27.777  52.896  41.361  1.00  0.00    -0.267 OA
HETATM   10  H   UNL     1      26.335  51.004  41.243  1.00  0.00     0.169 HD
BRANCH   8  11
HETATM   11  C   UNL     1      29.306  51.792  39.953  1.00  0.00     0.048 A 
HETATM   12  C   UNL     1      30.441  51.910  40.663  1.00  0.00     0.108 A 
HETATM   13  N   UNL     1      31.666  51.836  40.040  1.00  0.00    -0.333 N 
HETATM   14  C   UNL     1      31.829  51.676  38.685  1.00  0.00     0.245 A 
HETATM   15  H   UNL     1      32.520  51.906  40.582  1.00  0.00     0.168 HD
HETATM   16  O   UNL     1      32.929  51.600  38.151  1.00  0.00    -0.268 OA
HETATM   17  C   UNL     1      30.576  51.608  37.888  1.00  0.00     0.075 A 
HETATM   18  C   UNL     1      29.388  51.671  38.509  1.00  0.00     0.024 A 
ENDBRANCH   8  11
ENDBRANCH   2   7
BRANCH   1  19
HETATM   19  O   UNL     1      27.936  48.533  41.158  1.00  0.00    -0.309 OA
BRANCH  19  20
HETATM   20  C   UNL     1      29.304  48.445  41.198  1.00  0.00     0.076 A 
HETATM   21  C   UNL     1      29.971  48.184  40.001  1.00  0.00     0.037 A 
HETATM   22  C   UNL     1      31.365  48.141  39.981  1.00  0.00     0.003 A 
HETATM   23  C   UNL     1      32.084  48.375  41.154  1.00  0.00     0.000 A 
HETATM   24  C   UNL     1      31.413  48.661  42.345  1.00  0.00     0.003 A 
HETATM   25  C   UNL     1      30.019  48.710  42.366  1.00  0.00     0.037 A 
ENDBRANCH  19  20
ENDBRANCH   1  19
TORSDOF 4
ENDMDL
MODEL 9
REMARK VINA RESULT:      -7.9      2.355      6.611
REMARK  4 active torsions:
REMARK  status: ('A' for Active; 'I' for Inactive)
REMARK    1  A    between atoms: C_4  and  O_5 
REMARK    2  A    between atoms: O_5  and  C_6 
REMARK    3  A    between atoms: C_7  and  N_8 
REMARK       I    between atoms: N_8  and  C_9 
REMARK    4  A    between atoms: C_9  and  C_10 
ROOT
HETATM    1  C   UNL     1      26.313  45.901  50.796  1.00  0.00     0.102 A 
HETATM    2  C   UNL     1      25.639  45.301  51.881  1.00  0.00     0.069 A 
HETATM    3  C   UNL     1      25.365  43.931  51.840  1.00  0.00     0.032 A 
HETATM    4  C   UNL     1      25.705  43.175  50.716  1.00  0.00     0.002 A 
HETATM    5  C   UNL     1      26.323  43.782  49.626  1.00  0.00     0.003 A 
HETATM    6  C   UNL     1      26.626  45.144  49.661  1.00  0.00     0.039 A 
ENDROOT
BRANCH   2   7
HETATM    7  N   UNL     1      25.322  46.121  52.984  1.00  0.00    -0.320 N 
HETATM    8  C   UNL     1      26.058  46.572  54.042  1.00  0.00     0.257 C 
HETATM    9  O   UNL     1      25.641  47.512  54.720  1.00  0.00    -0.267 OA
HETATM   10  H   UNL     1      24.366  46.463  53.003  1.00  0.00     0.169 HD
BRANCH   8  11
HETATM   11  C   UNL     1      27.314  45.879  54.445  1.00  0.00     0.048 A 
HETATM   12  C   UNL     1      27.409  44.542  54.346  1.00  0.00     0.108 A 
HETATM   13  N   UNL     1      28.545  43.888  54.763  1.00  0.00    -0.333 N 
HETATM   14  C   UNL     1      29.628  44.517  55.330  1.00  0.00     0.245 A 
HETATM   15  H   UNL     1      28.620  42.882  54.668  1.00  0.00     0.168 HD
HETATM   16  O   UNL     1      30.636  43.918  55.684  1.00  0.00    -0.268 OA
HETATM   17  C   UNL     1      29.503  45.989  55.500  1.00  0.00     0.075 A 
HETATM   18  C   UNL     1      28.393  46.616  55.078  1.00  0.00     0.024 A 
ENDBRANCH   8  11
ENDBRANCH   2   7
BRANCH   1  19
HETATM   19  O   UNL     1      26.550  47.261  50.919  1.00  0.00    -0.309 OA
BRANCH  19  20
HETATM   20  C   UNL     1      26.129  48.105  49.926  1.00  0.00     0.076 A 
HETATM   21  C   UNL     1      24.756  48.208  49.701  1.00  0.00     0.037 A 
HETATM   22  C   UNL     1      24.276  49.095  48.739  1.00  0.00     0.003 A 
HETATM   23  C   UNL     1      25.170  49.888  48.017  1.00  0.00     0.000 A 
HETATM   24  C   UNL     1      26.542  49.802  48.263  1.00  0.00     0.003 A 
HETATM   25  C   UNL     1      27.023  48.918  49.229  1.00  0.00     0.037 A 
ENDBRANCH  19  20
ENDBRANCH   1  19
TORSDOF 4
ENDMDL
MODEL 10
REMARK VINA RESULT:      -7.9      2.533      6.804
REMARK  4 active torsions:
REMARK  status: ('A' for Active; 'I' for Inactive)
REMARK    1  A    between atoms: C_4  and  O_5 
REMARK    2  A    between atoms: O_5  and  C_6 
REMARK    3  A    between atoms: C_7  and  N_8 
REMARK       I    between atoms: N_8  and  C_9 
REMARK    4  A    between atoms: C_9  and  C_10 
ROOT
HETATM    1  C   UNL     1      26.063  44.698  50.786  1.00  0.00     0.102 A 
HETATM    2  C   UNL     1      25.549  45.484  51.838  1.00  0.00     0.069 A 
HETATM    3  C   UNL     1      25.617  46.877  51.745  1.00  0.00     0.032 A 
HETATM    4  C   UNL     1      26.236  47.483  50.649  1.00  0.00     0.002 A 
HETATM    5  C   UNL     1      26.788  46.702  49.637  1.00  0.00     0.003 A 
HETATM    6  C   UNL     1      26.706  45.311  49.704  1.00  0.00     0.039 A 
ENDROOT
BRANCH   2   7
HETATM    7  N   UNL     1      24.939  44.810  52.917  1.00  0.00    -0.320 N 
HETATM    8  C   UNL     1      25.410  44.382  54.125  1.00  0.00     0.257 C 
HETATM    9  O   UNL     1      24.617  44.078  55.017  1.00  0.00    -0.267 OA
HETATM   10  H   UNL     1      23.951  44.609  52.792  1.00  0.00     0.169 HD
BRANCH   8  11
HETATM   11  C   UNL     1      26.870  44.184  54.345  1.00  0.00     0.048 A 
HETATM   12  C   UNL     1      27.424  42.974  54.154  1.00  0.00     0.108 A 
HETATM   13  N   UNL     1      28.762  42.770  54.403  1.00  0.00    -0.333 N 
HETATM   14  C   UNL     1      29.609  43.739  54.885  1.00  0.00     0.245 A 
HETATM   15  H   UNL     1      29.179  41.861  54.239  1.00  0.00     0.168 HD
HETATM   16  O   UNL     1      30.800  43.540  55.089  1.00  0.00    -0.268 OA
HETATM   17  C   UNL     1      28.988  45.061  55.158  1.00  0.00     0.075 A 
HETATM   18  C   UNL     1      27.684  45.251  54.900  1.00  0.00     0.024 A 
ENDBRANCH   8  11
ENDBRANCH   2   7
BRANCH   1  19
HETATM   19  O   UNL     1      25.950  43.327  50.955  1.00  0.00    -0.309 OA
BRANCH  19  20
HETATM   20  C   UNL     1      25.183  42.606  50.077  1.00  0.00     0.076 A 
HETATM   21  C   UNL     1      23.814  42.872  50.044  1.00  0.00     0.037 A 
HETATM   22  C   UNL     1      23.001  42.204  49.129  1.00  0.00     0.003 A 
HETATM   23  C   UNL     1      23.563  41.286  48.241  1.00  0.00     0.000 A 
HETATM   24  C   UNL     1      24.939  41.042  48.259  1.00  0.00     0.003 A 
HETATM   25  C   UNL     1      25.754  41.713  49.170  1.00  0.00     0.037 A 
ENDBRANCH  19  20
ENDBRANCH   1  19
TORSDOF 4
ENDMDL
