MODEL 1
REMARK VINA RESULT:      -8.2      0.000      0.000
REMARK  8 active torsions:
REMARK  status: ('A' for Active; 'I' for Inactive)
REMARK    1  A    between atoms: C_7  and  N_8 
REMARK    2  A    between atoms: N_8  and  C_9 
REMARK    3  A    between atoms: C_9  and  C_10 
REMARK    4  A    between atoms: C_18  and  N_19 
REMARK    5  A    between atoms: N_19  and  C_20 
REMARK    6  A    between atoms: C_20  and  C_21 
REMARK    7  A    between atoms: C_21  and  C_22 
REMARK    8  A    between atoms: C_22  and  O_23 
ROOT
HETATM    1  C   UNL     1      25.019  40.961  48.405  1.00  0.00     0.001 A 
HETATM    2  C   UNL     1      26.294  40.548  48.798  1.00  0.00     0.017 A 
HETATM    3  C   UNL     1      26.857  40.979  50.022  1.00  0.00     0.036 A 
HETATM    4  C   UNL     1      26.075  41.821  50.841  1.00  0.00     0.048 A 
HETATM    5  N   UNL     1      26.562  42.203  52.024  1.00  0.00    -0.330 N 
HETATM    6  H   UNL     1      26.057  42.828  52.639  1.00  0.00     0.168 HD
HETATM    7  C   UNL     1      27.750  41.788  52.444  1.00  0.00     0.182 A 
HETATM    8  N   UNL     1      28.574  41.028  51.715  1.00  0.00    -0.202 NA
HETATM    9  C   UNL     1      28.141  40.628  50.504  1.00  0.00     0.139 A 
HETATM   10  C   UNL     1      24.799  42.240  50.438  1.00  0.00     0.030 A 
HETATM   11  C   UNL     1      24.274  41.808  49.220  1.00  0.00     0.002 A 
ENDROOT
BRANCH   7  12
HETATM   12  N   UNL     1      28.159  42.199  53.709  1.00  0.00    -0.258 NA
HETATM   13  H   UNL     1      27.579  43.020  53.907  1.00  0.00     0.130 HD
BRANCH  12  14
HETATM   14  C   UNL     1      29.551  42.661  53.670  1.00  0.00     0.134 C 
BRANCH  14  15
HETATM   15  C   UNL     1      29.789  43.632  54.798  1.00  0.00    -0.045 A 
HETATM   16  C   UNL     1      29.001  44.787  54.933  1.00  0.00     0.011 A 
HETATM   17  C   UNL     1      29.231  45.677  55.984  1.00  0.00     0.043 A 
HETATM   18  C   UNL     1      30.252  45.421  56.892  1.00  0.00     0.116 A 
HETATM   19  F   UNL     1      30.468  46.275  57.899  1.00  0.00    -0.206 F 
HETATM   20  C   UNL     1      31.052  44.293  56.767  1.00  0.00     0.043 A 
HETATM   21  C   UNL     1      30.824  43.399  55.720  1.00  0.00     0.011 A 
ENDBRANCH  14  15
ENDBRANCH  12  14
ENDBRANCH   7  12
BRANCH   9  22
HETATM   22  N   UNL     1      28.950  39.776  49.751  1.00  0.00    -0.374 N 
HETATM   23  H   UNL     1      29.905  40.118  49.662  1.00  0.00     0.161 HD
BRANCH  22  24
HETATM   24  C   UNL     1      28.908  38.330  49.977  1.00  0.00     0.123 C 
BRANCH  24  25
HETATM   25  C   UNL     1      29.985  37.869  50.956  1.00  0.00     0.045 C 
BRANCH  25  26
HETATM   26  C   UNL     1      29.775  36.451  51.462  1.00  0.00     0.165 C 
BRANCH  26  27
HETATM   27  O   UNL     1      28.506  35.970  51.039  1.00  0.00    -0.401 OA
HETATM   28  H   UNL     1      28.169  36.561  50.343  1.00  0.00     0.209 HD
ENDBRANCH  26  27
ENDBRANCH  25  26
ENDBRANCH  24  25
ENDBRANCH  22  24
ENDBRANCH   9  22
TORSDOF 8
ENDMDL
MODEL 2
REMARK VINA RESULT:      -8.2      3.792      5.496
REMARK  8 active torsions:
REMARK  status: ('A' for Active; 'I' for Inactive)
REMARK    1  A    between atoms: C_7  and  N_8 
REMARK    2  A    between atoms: N_8  and  C_9 
REMARK    3  A    between atoms: C_9  and  C_10 
REMARK    4  A    between atoms: C_18  and  N_19 
REMARK    5  A    between atoms: N_19  and  C_20 
REMARK    6  A    between atoms: C_20  and  C_21 
REMARK    7  A    between atoms: C_21  and  C_22 
REMARK    8  A    between atoms: C_22  and  O_23 
ROOT
HETATM    1  C   UNL     1      26.843  41.822  49.389  1.00  0.00     0.001 A 
HETATM    2  C   UNL     1      26.606  43.175  49.637  1.00  0.00     0.017 A 
HETATM    3  C   UNL     1      26.678  43.702  50.948  1.00  0.00     0.036 A 
HETATM    4  C   UNL     1      27.020  42.816  51.990  1.00  0.00     0.048 A 
HETATM    5  N   UNL     1      27.143  43.296  53.230  1.00  0.00    -0.330 N 
HETATM    6  H   UNL     1      27.359  42.701  54.020  1.00  0.00     0.168 HD
HETATM    7  C   UNL     1      26.971  44.585  53.487  1.00  0.00     0.182 A 
HETATM    8  N   UNL     1      26.602  45.485  52.570  1.00  0.00    -0.202 NA
HETATM    9  C   UNL     1      26.444  45.053  51.304  1.00  0.00     0.139 A 
HETATM   10  C   UNL     1      27.247  41.455  51.738  1.00  0.00     0.030 A 
HETATM   11  C   UNL     1      27.158  40.962  50.436  1.00  0.00     0.002 A 
ENDROOT
BRANCH   7  12
HETATM   12  N   UNL     1      27.163  45.006  54.800  1.00  0.00    -0.258 NA
HETATM   13  H   UNL     1      26.365  45.622  54.986  1.00  0.00     0.130 HD
BRANCH  12  14
HETATM   14  C   UNL     1      28.370  45.833  54.898  1.00  0.00     0.134 C 
BRANCH  14  15
HETATM   15  C   UNL     1      29.436  45.077  55.650  1.00  0.00    -0.045 A 
HETATM   16  C   UNL     1      29.886  45.519  56.904  1.00  0.00     0.011 A 
HETATM   17  C   UNL     1      30.873  44.808  57.590  1.00  0.00     0.043 A 
HETATM   18  C   UNL     1      31.417  43.664  57.020  1.00  0.00     0.116 A 
HETATM   19  F   UNL     1      32.361  42.983  57.681  1.00  0.00    -0.206 F 
HETATM   20  C   UNL     1      30.998  43.218  55.774  1.00  0.00     0.043 A 
HETATM   21  C   UNL     1      30.010  43.923  55.086  1.00  0.00     0.011 A 
ENDBRANCH  14  15
ENDBRANCH  12  14
ENDBRANCH   7  12
BRANCH   9  22
HETATM   22  N   UNL     1      26.130  45.982  50.312  1.00  0.00    -0.374 N 
HETATM   23  H   UNL     1      25.412  45.646  49.673  1.00  0.00     0.161 HD
BRANCH  22  24
HETATM   24  C   UNL     1      25.936  47.391  50.657  1.00  0.00     0.123 C 
BRANCH  24  25
HETATM   25  C   UNL     1      26.124  48.309  49.452  1.00  0.00     0.045 C 
BRANCH  25  26
HETATM   26  C   UNL     1      27.582  48.627  49.156  1.00  0.00     0.165 C 
BRANCH  26  27
HETATM   27  O   UNL     1      28.206  47.508  48.543  1.00  0.00    -0.401 OA
HETATM   28  H   UNL     1      28.621  46.967  49.237  1.00  0.00     0.209 HD
ENDBRANCH  26  27
ENDBRANCH  25  26
ENDBRANCH  24  25
ENDBRANCH  22  24
ENDBRANCH   9  22
TORSDOF 8
ENDMDL
MODEL 3
REMARK VINA RESULT:      -8.1      4.506      6.913
REMARK  8 active torsions:
REMARK  status: ('A' for Active; 'I' for Inactive)
REMARK    1  A    between atoms: C_7  and  N_8 
REMARK    2  A    between atoms: N_8  and  C_9 
REMARK    3  A    between atoms: C_9  and  C_10 
REMARK    4  A    between atoms: C_18  and  N_19 
REMARK    5  A    between atoms: N_19  and  C_20 
REMARK    6  A    between atoms: C_20  and  C_21 
REMARK    7  A    between atoms: C_21  and  C_22 
REMARK    8  A    between atoms: C_22  and  O_23 
ROOT
HETATM    1  C   UNL     1      30.482  43.499  55.203  1.00  0.00     0.001 A 
HETATM    2  C   UNL     1      29.740  43.174  54.066  1.00  0.00     0.017 A 
HETATM    3  C   UNL     1      28.640  43.966  53.659  1.00  0.00     0.036 A 
HETATM    4  C   UNL     1      28.335  45.107  54.431  1.00  0.00     0.048 A 
HETATM    5  N   UNL     1      27.333  45.899  54.042  1.00  0.00    -0.330 N 
HETATM    6  H   UNL     1      27.053  46.714  54.572  1.00  0.00     0.168 HD
HETATM    7  C   UNL     1      26.642  45.641  52.940  1.00  0.00     0.182 A 
HETATM    8  N   UNL     1      26.833  44.561  52.176  1.00  0.00    -0.202 NA
HETATM    9  C   UNL     1      27.820  43.716  52.532  1.00  0.00     0.139 A 
HETATM   10  C   UNL     1      29.077  45.424  55.577  1.00  0.00     0.030 A 
HETATM   11  C   UNL     1      30.149  44.618  55.961  1.00  0.00     0.002 A 
ENDROOT
BRANCH   7  12
HETATM   12  N   UNL     1      25.645  46.545  52.585  1.00  0.00    -0.258 NA
HETATM   13  H   UNL     1      24.909  46.394  53.283  1.00  0.00     0.130 HD
BRANCH  12  14
HETATM   14  C   UNL     1      25.074  46.189  51.282  1.00  0.00     0.134 C 
BRANCH  14  15
HETATM   15  C   UNL     1      25.255  47.339  50.324  1.00  0.00    -0.045 A 
HETATM   16  C   UNL     1      24.148  47.944  49.708  1.00  0.00     0.011 A 
HETATM   17  C   UNL     1      24.329  49.010  48.824  1.00  0.00     0.043 A 
HETATM   18  C   UNL     1      25.613  49.464  48.547  1.00  0.00     0.116 A 
HETATM   19  F   UNL     1      25.783  50.487  47.702  1.00  0.00    -0.206 F 
HETATM   20  C   UNL     1      26.722  48.869  49.135  1.00  0.00     0.043 A 
HETATM   21  C   UNL     1      26.546  47.806  50.021  1.00  0.00     0.011 A 
ENDBRANCH  14  15
ENDBRANCH  12  14
ENDBRANCH   7  12
BRANCH   9  22
HETATM   22  N   UNL     1      28.090  42.618  51.714  1.00  0.00    -0.374 N 
HETATM   23  H   UNL     1      29.082  42.389  51.678  1.00  0.00     0.161 HD
BRANCH  22  24
HETATM   24  C   UNL     1      27.257  41.417  51.794  1.00  0.00     0.123 C 
BRANCH  24  25
HETATM   25  C   UNL     1      27.222  40.652  50.473  1.00  0.00     0.045 C 
BRANCH  25  26
HETATM   26  C   UNL     1      28.359  39.652  50.324  1.00  0.00     0.165 C 
BRANCH  26  27
HETATM   27  O   UNL     1      29.144  39.632  51.508  1.00  0.00    -0.401 OA
HETATM   28  H   UNL     1      29.815  40.334  51.445  1.00  0.00     0.209 HD
ENDBRANCH  26  27
ENDBRANCH  25  26
ENDBRANCH  24  25
ENDBRANCH  22  24
ENDBRANCH   9  22
TORSDOF 8
ENDMDL
MODEL 4
REMARK VINA RESULT:      -8.1      2.163      4.189
REMARK  8 active torsions:
REMARK  status: ('A' for Active; 'I' for Inactive)
REMARK    1  A    between atoms: C_7  and  N_8 
REMARK    2  A    between atoms: N_8  and  C_9 
REMARK    3  A    between atoms: C_9  and  C_10 
REMARK    4  A    between atoms: C_18  and  N_19 
REMARK    5  A    between atoms: N_19  and  C_20 
REMARK    6  A    between atoms: C_20  and  C_21 
REMARK    7  A    between atoms: C_21  and  C_22 
REMARK    8  A    between atoms: C_22  and  O_23 
ROOT
HETATM    1  C   UNL     1      28.323  38.796  47.717  1.00  0.00     0.001 A 
HETATM    2  C   UNL     1      27.740  39.982  48.169  1.00  0.00     0.017 A 
HETATM    3  C   UNL     1      27.920  40.424  49.501  1.00  0.00     0.036 A 
HETATM    4  C   UNL     1      28.729  39.636  50.347  1.00  0.00     0.048 A 
HETATM    5  N   UNL     1      28.957  40.055  51.594  1.00  0.00    -0.330 N 
HETATM    6  H   UNL     1      29.505  39.517  52.253  1.00  0.00     0.168 HD
HETATM    7  C   UNL     1      28.456  41.201  52.035  1.00  0.00     0.182 A 
HETATM    8  N   UNL     1      27.645  41.985  51.318  1.00  0.00    -0.202 NA
HETATM    9  C   UNL     1      27.365  41.602  50.058  1.00  0.00     0.139 A 
HETATM   10  C   UNL     1      29.304  38.441  49.891  1.00  0.00     0.030 A 
HETATM   11  C   UNL     1      29.099  38.025  48.576  1.00  0.00     0.002 A 
ENDROOT
BRANCH   7  12
HETATM   12  N   UNL     1      28.781  41.582  53.334  1.00  0.00    -0.258 NA
HETATM   13  H   UNL     1      28.015  42.204  53.613  1.00  0.00     0.130 HD
BRANCH  12  14
HETATM   14  C   UNL     1      30.007  42.389  53.337  1.00  0.00     0.134 C 
BRANCH  14  15
HETATM   15  C   UNL     1      29.914  43.437  54.415  1.00  0.00    -0.045 A 
HETATM   16  C   UNL     1      30.871  43.502  55.441  1.00  0.00     0.011 A 
HETATM   17  C   UNL     1      30.775  44.480  56.433  1.00  0.00     0.043 A 
HETATM   18  C   UNL     1      29.720  45.385  56.408  1.00  0.00     0.116 A 
HETATM   19  F   UNL     1      29.632  46.322  57.359  1.00  0.00    -0.206 F 
HETATM   20  C   UNL     1      28.755  45.328  55.411  1.00  0.00     0.043 A 
HETATM   21  C   UNL     1      28.848  44.355  54.416  1.00  0.00     0.011 A 
ENDBRANCH  14  15
ENDBRANCH  12  14
ENDBRANCH   7  12
BRANCH   9  22
HETATM   22  N   UNL     1      26.580  42.436  49.261  1.00  0.00    -0.374 N 
HETATM   23  H   UNL     1      25.685  42.016  49.015  1.00  0.00     0.161 HD
BRANCH  22  24
HETATM   24  C   UNL     1      26.442  43.855  49.592  1.00  0.00     0.123 C 
BRANCH  24  25
HETATM   25  C   UNL     1      24.980  44.292  49.653  1.00  0.00     0.045 C 
BRANCH  25  26
HETATM   26  C   UNL     1      24.403  44.278  51.060  1.00  0.00     0.165 C 
BRANCH  26  27
HETATM   27  O   UNL     1      24.619  43.008  51.659  1.00  0.00    -0.401 OA
HETATM   28  H   UNL     1      24.902  42.385  50.966  1.00  0.00     0.209 HD
ENDBRANCH  26  27
ENDBRANCH  25  26
ENDBRANCH  24  25
ENDBRANCH  22  24
ENDBRANCH   9  22
TORSDOF 8
ENDMDL
MODEL 5
REMARK VINA RESULT:      -8.0      3.607      7.998
REMARK  8 active torsions:
REMARK  status: ('A' for Active; 'I' for Inactive)
REMARK    1  A    between atoms: C_7  and  N_8 
REMARK    2  A    between atoms: N_8  and  C_9 
REMARK    3  A    between atoms: C_9  and  C_10 
REMARK    4  A    between atoms: C_18  and  N_19 
REMARK    5  A    between atoms: N_19  and  C_20 
REMARK    6  A    between atoms: C_20  and  C_21 
REMARK    7  A    between atoms: C_21  and  C_22 
REMARK    8  A    between atoms: C_22  and  O_23 
ROOT
HETATM    1  C   UNL     1      30.483  45.552  58.109  1.00  0.00     0.001 A 
HETATM    2  C   UNL     1      29.612  45.716  57.029  1.00  0.00     0.017 A 
HETATM    3  C   UNL     1      29.689  44.874  55.895  1.00  0.00     0.036 A 
HETATM    4  C   UNL     1      30.660  43.852  55.904  1.00  0.00     0.048 A 
HETATM    5  N   UNL     1      30.722  43.012  54.867  1.00  0.00    -0.330 N 
HETATM    6  H   UNL     1      31.417  42.278  54.807  1.00  0.00     0.168 HD
HETATM    7  C   UNL     1      29.877  43.114  53.850  1.00  0.00     0.182 A 
HETATM    8  N   UNL     1      28.957  44.078  53.739  1.00  0.00    -0.202 NA
HETATM    9  C   UNL     1      28.863  44.965  54.748  1.00  0.00     0.139 A 
HETATM   10  C   UNL     1      31.539  43.698  56.986  1.00  0.00     0.030 A 
HETATM   11  C   UNL     1      31.447  44.550  58.086  1.00  0.00     0.002 A 
ENDROOT
BRANCH   7  12
HETATM   12  N   UNL     1      29.984  42.169  52.834  1.00  0.00    -0.258 NA
HETATM   13  H   UNL     1      30.008  42.726  51.973  1.00  0.00     0.130 HD
BRANCH  12  14
HETATM   14  C   UNL     1      28.772  41.345  52.773  1.00  0.00     0.134 C 
BRANCH  14  15
HETATM   15  C   UNL     1      28.222  41.365  51.370  1.00  0.00    -0.045 A 
HETATM   16  C   UNL     1      27.512  42.477  50.890  1.00  0.00     0.011 A 
HETATM   17  C   UNL     1      27.009  42.484  49.587  1.00  0.00     0.043 A 
HETATM   18  C   UNL     1      27.205  41.377  48.769  1.00  0.00     0.116 A 
HETATM   19  F   UNL     1      26.724  41.388  47.521  1.00  0.00    -0.206 F 
HETATM   20  C   UNL     1      27.891  40.261  49.230  1.00  0.00     0.043 A 
HETATM   21  C   UNL     1      28.398  40.251  50.530  1.00  0.00     0.011 A 
ENDBRANCH  14  15
ENDBRANCH  12  14
ENDBRANCH   7  12
BRANCH   9  22
HETATM   22  N   UNL     1      27.865  45.938  54.693  1.00  0.00    -0.374 N 
HETATM   23  H   UNL     1      28.217  46.873  54.892  1.00  0.00     0.161 HD
BRANCH  22  24
HETATM   24  C   UNL     1      26.899  45.943  53.594  1.00  0.00     0.123 C 
BRANCH  24  25
HETATM   25  C   UNL     1      25.466  45.757  54.087  1.00  0.00     0.045 C 
BRANCH  25  26
HETATM   26  C   UNL     1      25.147  44.326  54.494  1.00  0.00     0.165 C 
BRANCH  26  27
HETATM   27  O   UNL     1      26.036  43.430  53.843  1.00  0.00    -0.401 OA
HETATM   28  H   UNL     1      26.392  43.869  53.050  1.00  0.00     0.209 HD
ENDBRANCH  26  27
ENDBRANCH  25  26
ENDBRANCH  24  25
ENDBRANCH  22  24
ENDBRANCH   9  22
TORSDOF 8
ENDMDL
MODEL 6
REMARK VINA RESULT:      -8.0      1.385      1.996
REMARK  8 active torsions:
REMARK  status: ('A' for Active; 'I' for Inactive)
REMARK    1  A    between atoms: C_7  and  N_8 
REMARK    2  A    between atoms: N_8  and  C_9 
REMARK    3  A    between atoms: C_9  and  C_10 
REMARK    4  A    between atoms: C_18  and  N_19 
REMARK    5  A    between atoms: N_19  and  C_20 
REMARK    6  A    between atoms: C_20  and  C_21 
REMARK    7  A    between atoms: C_21  and  C_22 
REMARK    8  A    between atoms: C_22  and  O_23 
ROOT
HETATM    1  C   UNL     1      23.841  42.881  49.347  1.00  0.00     0.001 A 
HETATM    2  C   UNL     1      24.857  41.966  49.633  1.00  0.00     0.017 A 
HETATM    3  C   UNL     1      25.722  42.154  50.737  1.00  0.00     0.036 A 
HETATM    4  C   UNL     1      25.506  43.286  51.551  1.00  0.00     0.048 A 
HETATM    5  N   UNL     1      26.275  43.462  52.628  1.00  0.00    -0.330 N 
HETATM    6  H   UNL     1      26.184  44.270  53.230  1.00  0.00     0.168 HD
HETATM    7  C   UNL     1      27.215  42.584  52.950  1.00  0.00     0.182 A 
HETATM    8  N   UNL     1      27.517  41.510  52.213  1.00  0.00    -0.202 NA
HETATM    9  C   UNL     1      26.784  41.293  51.104  1.00  0.00     0.139 A 
HETATM   10  C   UNL     1      24.491  44.207  51.254  1.00  0.00     0.030 A 
HETATM   11  C   UNL     1      23.661  44.002  50.152  1.00  0.00     0.002 A 
ENDROOT
BRANCH   7  12
HETATM   12  N   UNL     1      27.940  42.823  54.114  1.00  0.00    -0.258 NA
HETATM   13  H   UNL     1      27.271  43.287  54.737  1.00  0.00     0.130 HD
BRANCH  12  14
HETATM   14  C   UNL     1      29.018  43.784  53.856  1.00  0.00     0.134 C 
BRANCH  14  15
HETATM   15  C   UNL     1      29.752  44.071  55.140  1.00  0.00    -0.045 A 
HETATM   16  C   UNL     1      30.744  43.198  55.615  1.00  0.00     0.011 A 
HETATM   17  C   UNL     1      31.418  43.477  56.806  1.00  0.00     0.043 A 
HETATM   18  C   UNL     1      31.095  44.620  57.527  1.00  0.00     0.116 A 
HETATM   19  F   UNL     1      31.744  44.886  58.666  1.00  0.00    -0.206 F 
HETATM   20  C   UNL     1      30.107  45.489  57.083  1.00  0.00     0.043 A 
HETATM   21  C   UNL     1      29.433  45.216  55.892  1.00  0.00     0.011 A 
ENDBRANCH  14  15
ENDBRANCH  12  14
ENDBRANCH   7  12
BRANCH   9  22
HETATM   22  N   UNL     1      27.029  40.143  50.354  1.00  0.00    -0.374 N 
HETATM   23  H   UNL     1      26.189  39.780  49.906  1.00  0.00     0.161 HD
BRANCH  22  24
HETATM   24  C   UNL     1      28.191  40.074  49.467  1.00  0.00     0.123 C 
BRANCH  24  25
HETATM   25  C   UNL     1      28.728  38.651  49.332  1.00  0.00     0.045 C 
BRANCH  25  26
HETATM   26  C   UNL     1      29.524  38.187  50.542  1.00  0.00     0.165 C 
BRANCH  26  27
HETATM   27  O   UNL     1      29.461  39.169  51.567  1.00  0.00    -0.401 OA
HETATM   28  H   UNL     1      29.152  38.741  52.385  1.00  0.00     0.209 HD
ENDBRANCH  26  27
ENDBRANCH  25  26
ENDBRANCH  24  25
ENDBRANCH  22  24
ENDBRANCH   9  22
TORSDOF 8
ENDMDL
MODEL 7
REMARK VINA RESULT:      -7.9      3.231      5.032
REMARK  8 active torsions:
REMARK  status: ('A' for Active; 'I' for Inactive)
REMARK    1  A    between atoms: C_7  and  N_8 
REMARK    2  A    between atoms: N_8  and  C_9 
REMARK    3  A    between atoms: C_9  and  C_10 
REMARK    4  A    between atoms: C_18  and  N_19 
REMARK    5  A    between atoms: N_19  and  C_20 
REMARK    6  A    between atoms: C_20  and  C_21 
REMARK    7  A    between atoms: C_21  and  C_22 
REMARK    8  A    between atoms: C_22  and  O_23 
ROOT
HETATM    1  C   UNL     1      25.052  41.192  48.979  1.00  0.00     0.001 A 
HETATM    2  C   UNL     1      24.647  42.377  49.598  1.00  0.00     0.017 A 
HETATM    3  C   UNL     1      25.255  42.822  50.795  1.00  0.00     0.036 A 
HETATM    4  C   UNL     1      26.299  42.038  51.328  1.00  0.00     0.048 A 
HETATM    5  N   UNL     1      26.924  42.459  52.430  1.00  0.00    -0.330 N 
HETATM    6  H   UNL     1      27.660  41.923  52.872  1.00  0.00     0.168 HD
HETATM    7  C   UNL     1      26.593  43.604  53.011  1.00  0.00     0.182 A 
HETATM    8  N   UNL     1      25.589  44.385  52.601  1.00  0.00    -0.202 NA
HETATM    9  C   UNL     1      24.911  43.999  51.503  1.00  0.00     0.139 A 
HETATM   10  C   UNL     1      26.696  40.843  50.709  1.00  0.00     0.030 A 
HETATM   11  C   UNL     1      26.070  40.424  49.535  1.00  0.00     0.002 A 
ENDROOT
BRANCH   7  12
HETATM   12  N   UNL     1      27.327  43.988  54.130  1.00  0.00    -0.258 NA
HETATM   13  H   UNL     1      26.950  44.911  54.374  1.00  0.00     0.130 HD
BRANCH  12  14
HETATM   14  C   UNL     1      28.736  44.185  53.773  1.00  0.00     0.134 C 
BRANCH  14  15
HETATM   15  C   UNL     1      29.560  44.303  55.030  1.00  0.00    -0.045 A 
HETATM   16  C   UNL     1      30.491  43.311  55.377  1.00  0.00     0.011 A 
HETATM   17  C   UNL     1      31.249  43.434  56.543  1.00  0.00     0.043 A 
HETATM   18  C   UNL     1      31.071  44.539  57.367  1.00  0.00     0.116 A 
HETATM   19  F   UNL     1      31.801  44.655  58.482  1.00  0.00    -0.206 F 
HETATM   20  C   UNL     1      30.145  45.524  57.049  1.00  0.00     0.043 A 
HETATM   21  C   UNL     1      29.387  45.407  55.884  1.00  0.00     0.011 A 
ENDBRANCH  14  15
ENDBRANCH  12  14
ENDBRANCH   7  12
BRANCH   9  22
HETATM   22  N   UNL     1      23.905  44.830  51.009  1.00  0.00    -0.374 N 
HETATM   23  H   UNL     1      23.302  45.197  51.744  1.00  0.00     0.161 HD
BRANCH  22  24
HETATM   24  C   UNL     1      24.215  45.846  50.003  1.00  0.00     0.123 C 
BRANCH  24  25
HETATM   25  C   UNL     1      25.710  46.149  49.934  1.00  0.00     0.045 C 
BRANCH  25  26
HETATM   26  C   UNL     1      26.107  47.408  50.688  1.00  0.00     0.165 C 
BRANCH  26  27
HETATM   27  O   UNL     1      25.345  47.516  51.883  1.00  0.00    -0.401 OA
HETATM   28  H   UNL     1      24.488  47.922  51.666  1.00  0.00     0.209 HD
ENDBRANCH  26  27
ENDBRANCH  25  26
ENDBRANCH  24  25
ENDBRANCH  22  24
ENDBRANCH   9  22
TORSDOF 8
ENDMDL
MODEL 8
REMARK VINA RESULT:      -7.9      2.508      4.157
REMARK  8 active torsions:
REMARK  status: ('A' for Active; 'I' for Inactive)
REMARK    1  A    between atoms: C_7  and  N_8 
REMARK    2  A    between atoms: N_8  and  C_9 
REMARK    3  A    between atoms: C_9  and  C_10 
REMARK    4  A    between atoms: C_18  and  N_19 
REMARK    5  A    between atoms: N_19  and  C_20 
REMARK    6  A    between atoms: C_20  and  C_21 
REMARK    7  A    between atoms: C_21  and  C_22 
REMARK    8  A    between atoms: C_22  and  O_23 
ROOT
HETATM    1  C   UNL     1      26.791  38.915  48.679  1.00  0.00     0.001 A 
HETATM    2  C   UNL     1      26.288  39.969  49.444  1.00  0.00     0.017 A 
HETATM    3  C   UNL     1      27.058  40.559  50.473  1.00  0.00     0.036 A 
HETATM    4  C   UNL     1      28.361  40.059  50.683  1.00  0.00     0.048 A 
HETATM    5  N   UNL     1      29.128  40.630  51.614  1.00  0.00    -0.330 N 
HETATM    6  H   UNL     1      30.059  40.294  51.827  1.00  0.00     0.168 HD
HETATM    7  C   UNL     1      28.694  41.663  52.323  1.00  0.00     0.182 A 
HETATM    8  N   UNL     1      27.461  42.171  52.221  1.00  0.00    -0.202 NA
HETATM    9  C   UNL     1      26.637  41.622  51.309  1.00  0.00     0.139 A 
HETATM   10  C   UNL     1      28.858  38.994  49.919  1.00  0.00     0.030 A 
HETATM   11  C   UNL     1      28.071  38.424  48.918  1.00  0.00     0.002 A 
ENDROOT
BRANCH   7  12
HETATM   12  N   UNL     1      29.576  42.225  53.241  1.00  0.00    -0.258 NA
HETATM   13  H   UNL     1      29.502  41.619  54.065  1.00  0.00     0.130 HD
BRANCH  12  14
HETATM   14  C   UNL     1      29.111  43.555  53.648  1.00  0.00     0.134 C 
BRANCH  14  15
HETATM   15  C   UNL     1      29.761  43.936  54.954  1.00  0.00    -0.045 A 
HETATM   16  C   UNL     1      29.421  45.132  55.606  1.00  0.00     0.011 A 
HETATM   17  C   UNL     1      30.029  45.471  56.817  1.00  0.00     0.043 A 
HETATM   18  C   UNL     1      30.982  44.624  57.369  1.00  0.00     0.116 A 
HETATM   19  F   UNL     1      31.560  44.951  58.531  1.00  0.00    -0.206 F 
HETATM   20  C   UNL     1      31.343  43.444  56.733  1.00  0.00     0.043 A 
HETATM   21  C   UNL     1      30.737  43.099  55.525  1.00  0.00     0.011 A 
ENDBRANCH  14  15
ENDBRANCH  12  14
ENDBRANCH   7  12
BRANCH   9  22
HETATM   22  N   UNL     1      25.369  42.177  51.130  1.00  0.00    -0.374 N 
HETATM   23  H   UNL     1      24.668  41.760  51.741  1.00  0.00     0.161 HD
BRANCH  22  24
HETATM   24  C   UNL     1      25.208  43.627  51.027  1.00  0.00     0.123 C 
BRANCH  24  25
HETATM   25  C   UNL     1      26.040  44.219  49.893  1.00  0.00     0.045 C 
BRANCH  25  26
HETATM   26  C   UNL     1      26.891  45.405  50.322  1.00  0.00     0.165 C 
BRANCH  26  27
HETATM   27  O   UNL     1      27.420  46.060  49.178  1.00  0.00    -0.401 OA
HETATM   28  H   UNL     1      27.432  45.427  48.438  1.00  0.00     0.209 HD
ENDBRANCH  26  27
ENDBRANCH  25  26
ENDBRANCH  24  25
ENDBRANCH  22  24
ENDBRANCH   9  22
TORSDOF 8
ENDMDL
MODEL 9
REMARK VINA RESULT:      -7.9      3.761      7.953
REMARK  8 active torsions:
REMARK  status: ('A' for Active; 'I' for Inactive)
REMARK    1  A    between atoms: C_7  and  N_8 
REMARK    2  A    between atoms: N_8  and  C_9 
REMARK    3  A    between atoms: C_9  and  C_10 
REMARK    4  A    between atoms: C_18  and  N_19 
REMARK    5  A    between atoms: N_19  and  C_20 
REMARK    6  A    between atoms: C_20  and  C_21 
REMARK    7  A    between atoms: C_21  and  C_22 
REMARK    8  A    between atoms: C_22  and  O_23 
ROOT
HETATM    1  C   UNL     1      29.830  45.417  56.285  1.00  0.00     0.001 A 
HETATM    2  C   UNL     1      28.837  45.336  55.307  1.00  0.00     0.017 A 
HETATM    3  C   UNL     1      28.828  44.287  54.359  1.00  0.00     0.036 A 
HETATM    4  C   UNL     1      29.845  43.314  54.451  1.00  0.00     0.048 A 
HETATM    5  N   UNL     1      29.833  42.285  53.600  1.00  0.00    -0.330 N 
HETATM    6  H   UNL     1      30.553  41.574  53.602  1.00  0.00     0.168 HD
HETATM    7  C   UNL     1      28.875  42.157  52.692  1.00  0.00     0.182 A 
HETATM    8  N   UNL     1      27.901  43.053  52.506  1.00  0.00    -0.202 NA
HETATM    9  C   UNL     1      27.875  44.122  53.325  1.00  0.00     0.139 A 
HETATM   10  C   UNL     1      30.847  43.405  55.429  1.00  0.00     0.030 A 
HETATM   11  C   UNL     1      30.836  44.457  56.344  1.00  0.00     0.002 A 
ENDROOT
BRANCH   7  12
HETATM   12  N   UNL     1      28.915  41.031  51.876  1.00  0.00    -0.258 NA
HETATM   13  H   UNL     1      29.875  41.016  51.513  1.00  0.00     0.130 HD
BRANCH  12  14
HETATM   14  C   UNL     1      28.027  41.205  50.721  1.00  0.00     0.134 C 
BRANCH  14  15
HETATM   15  C   UNL     1      28.291  40.114  49.716  1.00  0.00    -0.045 A 
HETATM   16  C   UNL     1      27.910  40.264  48.372  1.00  0.00     0.011 A 
HETATM   17  C   UNL     1      28.162  39.246  47.451  1.00  0.00     0.043 A 
HETATM   18  C   UNL     1      28.784  38.076  47.871  1.00  0.00     0.116 A 
HETATM   19  F   UNL     1      29.027  37.104  46.984  1.00  0.00    -0.206 F 
HETATM   20  C   UNL     1      29.156  37.902  49.197  1.00  0.00     0.043 A 
HETATM   21  C   UNL     1      28.908  38.917  50.121  1.00  0.00     0.011 A 
ENDBRANCH  14  15
ENDBRANCH  12  14
ENDBRANCH   7  12
BRANCH   9  22
HETATM   22  N   UNL     1      26.828  45.037  53.201  1.00  0.00    -0.374 N 
HETATM   23  H   UNL     1      26.863  45.771  53.905  1.00  0.00     0.161 HD
BRANCH  22  24
HETATM   24  C   UNL     1      26.461  45.561  51.885  1.00  0.00     0.123 C 
BRANCH  24  25
HETATM   25  C   UNL     1      24.977  45.367  51.583  1.00  0.00     0.045 C 
BRANCH  25  26
HETATM   26  C   UNL     1      24.646  43.984  51.042  1.00  0.00     0.165 C 
BRANCH  26  27
HETATM   27  O   UNL     1      24.753  43.021  52.080  1.00  0.00    -0.401 OA
HETATM   28  H   UNL     1      25.294  43.398  52.796  1.00  0.00     0.209 HD
ENDBRANCH  26  27
ENDBRANCH  25  26
ENDBRANCH  24  25
ENDBRANCH  22  24
ENDBRANCH   9  22
TORSDOF 8
ENDMDL
MODEL 10
REMARK VINA RESULT:      -7.8      3.024      5.492
REMARK  8 active torsions:
REMARK  status: ('A' for Active; 'I' for Inactive)
REMARK    1  A    between atoms: C_7  and  N_8 
REMARK    2  A    between atoms: N_8  and  C_9 
REMARK    3  A    between atoms: C_9  and  C_10 
REMARK    4  A    between atoms: C_18  and  N_19 
REMARK    5  A    between atoms: N_19  and  C_20 
REMARK    6  A    between atoms: C_20  and  C_21 
REMARK    7  A    between atoms: C_21  and  C_22 
REMARK    8  A    between atoms: C_22  and  O_23 
ROOT
HETATM    1  C   UNL     1      30.425  43.136  54.181  1.00  0.00     0.001 A 
HETATM    2  C   UNL     1      29.952  42.373  53.111  1.00  0.00     0.017 A 
HETATM    3  C   UNL     1      28.596  42.433  52.712  1.00  0.00     0.036 A 
HETATM    4  C   UNL     1      27.745  43.308  53.420  1.00  0.00     0.048 A 
HETATM    5  N   UNL     1      26.472  43.422  53.035  1.00  0.00    -0.330 N 
HETATM    6  H   UNL     1      25.810  44.012  53.523  1.00  0.00     0.168 HD
HETATM    7  C   UNL     1      26.008  42.745  51.992  1.00  0.00     0.182 A 
HETATM    8  N   UNL     1      26.730  41.863  51.294  1.00  0.00    -0.202 NA
HETATM    9  C   UNL     1      28.018  41.695  51.652  1.00  0.00     0.139 A 
HETATM   10  C   UNL     1      28.222  44.065  54.501  1.00  0.00     0.030 A 
HETATM   11  C   UNL     1      29.562  43.976  54.878  1.00  0.00     0.002 A 
ENDROOT
BRANCH   7  12
HETATM   12  N   UNL     1      24.680  42.958  51.633  1.00  0.00    -0.258 NA
HETATM   13  H   UNL     1      24.264  42.021  51.637  1.00  0.00     0.130 HD
BRANCH  12  14
HETATM   14  C   UNL     1      24.598  43.454  50.254  1.00  0.00     0.134 C 
BRANCH  14  15
HETATM   15  C   UNL     1      25.152  44.855  50.191  1.00  0.00    -0.045 A 
HETATM   16  C   UNL     1      24.395  45.949  50.640  1.00  0.00     0.011 A 
HETATM   17  C   UNL     1      24.921  47.242  50.577  1.00  0.00     0.043 A 
HETATM   18  C   UNL     1      26.194  47.442  50.058  1.00  0.00     0.116 A 
HETATM   19  F   UNL     1      26.696  48.681  50.002  1.00  0.00    -0.206 F 
HETATM   20  C   UNL     1      26.953  46.375  49.595  1.00  0.00     0.043 A 
HETATM   21  C   UNL     1      26.433  45.082  49.658  1.00  0.00     0.011 A 
ENDBRANCH  14  15
ENDBRANCH  12  14
ENDBRANCH   7  12
BRANCH   9  22
HETATM   22  N   UNL     1      28.816  40.834  50.897  1.00  0.00    -0.374 N 
HETATM   23  H   UNL     1      29.626  40.496  51.413  1.00  0.00     0.161 HD
BRANCH  22  24
HETATM   24  C   UNL     1      28.203  39.776  50.092  1.00  0.00     0.123 C 
BRANCH  24  25
HETATM   25  C   UNL     1      29.246  38.858  49.459  1.00  0.00     0.045 C 
BRANCH  25  26
HETATM   26  C   UNL     1      29.579  37.644  50.312  1.00  0.00     0.165 C 
BRANCH  26  27
HETATM   27  O   UNL     1      29.573  38.002  51.686  1.00  0.00    -0.401 OA
HETATM   28  H   UNL     1      30.492  38.019  52.005  1.00  0.00     0.209 HD
ENDBRANCH  26  27
ENDBRANCH  25  26
ENDBRANCH  24  25
ENDBRANCH  22  24
ENDBRANCH   9  22
TORSDOF 8
ENDMDL
