MODEL 1
REMARK VINA RESULT:     -10.9      0.000      0.000
REMARK  7 active torsions:
REMARK  status: ('A' for Active; 'I' for Inactive)
REMARK    1  A    between atoms: C_3  and  C_4 
REMARK    2  A    between atoms: C_4  and  S_5 
REMARK    3  A    between atoms: S_5  and  C_6 
REMARK    4  A    between atoms: C_6  and  C_7 
REMARK    5  A    between atoms: C_16  and  C_17 
REMARK       I    between atoms: C_17  and  N_18 
REMARK    6  A    between atoms: N_18  and  C_19 
REMARK    7  A    between atoms: C_19  and  C_20 
ROOT
HETATM    1  C   UNL     1      25.882  45.339  52.160  1.00  0.00     0.162 C 
HETATM    2  N   UNL     1      26.616  46.215  51.214  1.00  0.00    -0.277 NA
HETATM    3  C   UNL     1      25.777  47.030  50.429  1.00  0.00     0.036 A 
HETATM    4  C   UNL     1      24.447  46.676  50.142  1.00  0.00     0.057 A 
HETATM    5  N   UNL     1      23.926  45.483  50.659  1.00  0.00    -0.324 N 
HETATM    6  C   UNL     1      24.623  44.697  51.544  1.00  0.00     0.240 C 
HETATM    7  O   UNL     1      24.181  43.601  51.885  1.00  0.00    -0.271 OA
HETATM    8  C   UNL     1      26.324  48.152  49.803  1.00  0.00     0.027 A 
HETATM    9  C   UNL     1      25.534  48.958  48.980  1.00  0.00     0.019 A 
HETATM   10  C   UNL     1      24.189  48.635  48.756  1.00  0.00     0.034 A 
HETATM   11  C   UNL     1      23.651  47.469  49.313  1.00  0.00     0.048 A 
HETATM   12  H   UNL     1      27.228  45.671  50.604  1.00  0.00     0.128 HD
HETATM   13  H   UNL     1      23.035  45.125  50.341  1.00  0.00     0.169 HD
ENDROOT
BRANCH  10  14
HETATM   14  C   UNL     1      23.375  49.555  47.913  1.00  0.00     0.252 C 
HETATM   15  N   UNL     1      22.008  49.423  48.015  1.00  0.00    -0.353 N 
HETATM   16  H   UNL     1      21.632  48.904  48.796  1.00  0.00     0.163 HD
HETATM   17  O   UNL     1      23.925  50.402  47.218  1.00  0.00    -0.268 OA
BRANCH  15  18
HETATM   18  C   UNL     1      21.124  50.407  47.429  1.00  0.00     0.163 C 
BRANCH  18  19
HETATM   19  C   UNL     1      19.886  50.610  48.265  1.00  0.00    -0.019 A 
HETATM   20  C   UNL     1      18.831  49.683  48.307  1.00  0.00     0.042 A 
HETATM   21 CL   UNL     1      18.862  48.228  47.373  1.00  0.00    -0.084 Cl
HETATM   22  C   UNL     1      17.705  49.917  49.103  1.00  0.00     0.024 A 
HETATM   23  C   UNL     1      17.619  51.079  49.870  1.00  0.00     0.002 A 
HETATM   24  C   UNL     1      18.654  52.008  49.839  1.00  0.00     0.001 A 
HETATM   25  C   UNL     1      19.777  51.778  49.042  1.00  0.00     0.010 A 
ENDBRANCH  18  19
ENDBRANCH  15  18
ENDBRANCH  10  14
BRANCH   1  26
HETATM   26  C   UNL     1      26.792  44.245  52.746  1.00  0.00     0.103 C 
BRANCH  26  27
HETATM   27  S   UNL     1      27.041  44.304  54.564  1.00  0.00    -0.162 SA
BRANCH  27  28
HETATM   28  C   UNL     1      28.500  45.390  54.640  1.00  0.00     0.112 C 
BRANCH  28  29
HETATM   29  C   UNL     1      29.514  44.910  55.653  1.00  0.00    -0.043 A 
HETATM   30  C   UNL     1      30.330  43.779  55.426  1.00  0.00    -0.055 A 
HETATM   31  C   UNL     1      30.256  42.979  54.153  1.00  0.00     0.049 C 
HETATM   32  C   UNL     1      31.279  43.414  56.396  1.00  0.00     0.007 A 
HETATM   33  C   UNL     1      31.404  44.131  57.584  1.00  0.00     0.001 A 
HETATM   34  C   UNL     1      30.582  45.227  57.823  1.00  0.00     0.001 A 
HETATM   35  C   UNL     1      29.644  45.613  56.866  1.00  0.00     0.008 A 
ENDBRANCH  28  29
ENDBRANCH  27  28
ENDBRANCH  26  27
ENDBRANCH   1  26
TORSDOF 7
ENDMDL
MODEL 2
REMARK VINA RESULT:     -10.7      0.816      1.373
REMARK  7 active torsions:
REMARK  status: ('A' for Active; 'I' for Inactive)
REMARK    1  A    between atoms: C_3  and  C_4 
REMARK    2  A    between atoms: C_4  and  S_5 
REMARK    3  A    between atoms: S_5  and  C_6 
REMARK    4  A    between atoms: C_6  and  C_7 
REMARK    5  A    between atoms: C_16  and  C_17 
REMARK       I    between atoms: C_17  and  N_18 
REMARK    6  A    between atoms: N_18  and  C_19 
REMARK    7  A    between atoms: C_19  and  C_20 
ROOT
HETATM    1  C   UNL     1      25.730  44.537  51.789  1.00  0.00     0.162 C 
HETATM    2  N   UNL     1      26.496  45.490  50.949  1.00  0.00    -0.277 NA
HETATM    3  C   UNL     1      25.695  46.473  50.333  1.00  0.00     0.036 A 
HETATM    4  C   UNL     1      24.332  46.261  50.060  1.00  0.00     0.057 A 
HETATM    5  N   UNL     1      23.738  45.044  50.419  1.00  0.00    -0.324 N 
HETATM    6  C   UNL     1      24.404  44.086  51.144  1.00  0.00     0.240 C 
HETATM    7  O   UNL     1      23.890  42.986  51.341  1.00  0.00    -0.271 OA
HETATM    8  C   UNL     1      26.305  47.634  49.855  1.00  0.00     0.027 A 
HETATM    9  C   UNL     1      25.550  48.609  49.198  1.00  0.00     0.019 A 
HETATM   10  C   UNL     1      24.177  48.421  48.992  1.00  0.00     0.034 A 
HETATM   11  C   UNL     1      23.571  47.225  49.395  1.00  0.00     0.048 A 
HETATM   12  H   UNL     1      27.041  45.003  50.238  1.00  0.00     0.128 HD
HETATM   13  H   UNL     1      22.812  44.803  50.094  1.00  0.00     0.169 HD
ENDROOT
BRANCH  10  14
HETATM   14  C   UNL     1      23.408  49.513  48.333  1.00  0.00     0.252 C 
HETATM   15  N   UNL     1      22.235  49.888  48.950  1.00  0.00    -0.353 N 
HETATM   16  H   UNL     1      22.077  49.591  49.903  1.00  0.00     0.163 HD
HETATM   17  O   UNL     1      23.849  50.057  47.328  1.00  0.00    -0.268 OA
BRANCH  15  18
HETATM   18  C   UNL     1      21.531  51.082  48.537  1.00  0.00     0.163 C 
BRANCH  18  19
HETATM   19  C   UNL     1      20.045  50.956  48.758  1.00  0.00    -0.019 A 
HETATM   20  C   UNL     1      19.266  49.950  48.160  1.00  0.00     0.042 A 
HETATM   21 CL   UNL     1      19.959  48.776  47.096  1.00  0.00    -0.084 Cl
HETATM   22  C   UNL     1      17.891  49.874  48.401  1.00  0.00     0.024 A 
HETATM   23  C   UNL     1      17.274  50.799  49.242  1.00  0.00     0.002 A 
HETATM   24  C   UNL     1      18.030  51.803  49.840  1.00  0.00     0.001 A 
HETATM   25  C   UNL     1      19.403  51.883  49.598  1.00  0.00     0.010 A 
ENDBRANCH  18  19
ENDBRANCH  15  18
ENDBRANCH  10  14
BRANCH   1  26
HETATM   26  C   UNL     1      26.573  43.305  52.164  1.00  0.00     0.103 C 
BRANCH  26  27
HETATM   27  S   UNL     1      27.202  43.264  53.888  1.00  0.00    -0.162 SA
BRANCH  27  28
HETATM   28  C   UNL     1      28.640  44.367  53.717  1.00  0.00     0.112 C 
BRANCH  28  29
HETATM   29  C   UNL     1      29.498  44.379  54.962  1.00  0.00    -0.043 A 
HETATM   30  C   UNL     1      29.453  45.436  55.899  1.00  0.00    -0.055 A 
HETATM   31  C   UNL     1      28.538  46.620  55.729  1.00  0.00     0.049 C 
HETATM   32  C   UNL     1      30.249  45.362  57.054  1.00  0.00     0.007 A 
HETATM   33  C   UNL     1      31.099  44.278  57.272  1.00  0.00     0.001 A 
HETATM   34  C   UNL     1      31.167  43.251  56.337  1.00  0.00     0.001 A 
HETATM   35  C   UNL     1      30.373  43.301  55.191  1.00  0.00     0.008 A 
ENDBRANCH  28  29
ENDBRANCH  27  28
ENDBRANCH  26  27
ENDBRANCH   1  26
TORSDOF 7
ENDMDL
MODEL 3
REMARK VINA RESULT:     -10.2      4.026     11.218
REMARK  7 active torsions:
REMARK  status: ('A' for Active; 'I' for Inactive)
REMARK    1  A    between atoms: C_3  and  C_4 
REMARK    2  A    between atoms: C_4  and  S_5 
REMARK    3  A    between atoms: S_5  and  C_6 
REMARK    4  A    between atoms: C_6  and  C_7 
REMARK    5  A    between atoms: C_16  and  C_17 
REMARK       I    between atoms: C_17  and  N_18 
REMARK    6  A    between atoms: N_18  and  C_19 
REMARK    7  A    between atoms: C_19  and  C_20 
ROOT
HETATM    1  C   UNL     1      23.355  45.679  49.141  1.00  0.00     0.162 C 
HETATM    2  N   UNL     1      23.962  46.427  50.269  1.00  0.00    -0.277 NA
HETATM    3  C   UNL     1      24.880  45.670  51.023  1.00  0.00     0.036 A 
HETATM    4  C   UNL     1      24.815  44.267  51.088  1.00  0.00     0.057 A 
HETATM    5  N   UNL     1      23.817  43.590  50.376  1.00  0.00    -0.324 N 
HETATM    6  C   UNL     1      22.968  44.232  49.508  1.00  0.00     0.240 C 
HETATM    7  O   UNL     1      22.033  43.625  48.990  1.00  0.00    -0.271 OA
HETATM    8  C   UNL     1      25.794  46.340  51.839  1.00  0.00     0.027 A 
HETATM    9  C   UNL     1      26.689  45.622  52.635  1.00  0.00     0.019 A 
HETATM   10  C   UNL     1      26.663  44.221  52.641  1.00  0.00     0.034 A 
HETATM   11  C   UNL     1      25.698  43.540  51.889  1.00  0.00     0.048 A 
HETATM   12  H   UNL     1      23.246  46.807  50.890  1.00  0.00     0.128 HD
HETATM   13  H   UNL     1      23.647  42.605  50.530  1.00  0.00     0.169 HD
ENDROOT
BRANCH  10  14
HETATM   14  C   UNL     1      27.673  43.501  53.467  1.00  0.00     0.252 C 
HETATM   15  N   UNL     1      28.891  44.127  53.618  1.00  0.00    -0.353 N 
HETATM   16  H   UNL     1      28.962  45.106  53.379  1.00  0.00     0.163 HD
HETATM   17  O   UNL     1      27.384  42.440  54.007  1.00  0.00    -0.268 OA
BRANCH  15  18
HETATM   18  C   UNL     1      29.857  43.642  54.580  1.00  0.00     0.163 C 
BRANCH  18  19
HETATM   19  C   UNL     1      29.862  44.481  55.833  1.00  0.00    -0.019 A 
HETATM   20  C   UNL     1      30.783  44.290  56.877  1.00  0.00     0.042 A 
HETATM   21 CL   UNL     1      31.984  43.047  56.813  1.00  0.00    -0.084 Cl
HETATM   22  C   UNL     1      30.748  45.099  58.017  1.00  0.00     0.024 A 
HETATM   23  C   UNL     1      29.795  46.110  58.129  1.00  0.00     0.002 A 
HETATM   24  C   UNL     1      28.874  46.312  57.105  1.00  0.00     0.001 A 
HETATM   25  C   UNL     1      28.905  45.503  55.968  1.00  0.00     0.010 A 
ENDBRANCH  18  19
ENDBRANCH  15  18
ENDBRANCH  10  14
BRANCH   1  26
HETATM   26  C   UNL     1      22.134  46.415  48.562  1.00  0.00     0.103 C 
BRANCH  26  27
HETATM   27  S   UNL     1      22.194  48.248  48.648  1.00  0.00    -0.162 SA
BRANCH  27  28
HETATM   28  C   UNL     1      20.624  48.646  47.814  1.00  0.00     0.112 C 
BRANCH  28  29
HETATM   29  C   UNL     1      19.914  49.811  48.466  1.00  0.00    -0.043 A 
HETATM   30  C   UNL     1      19.053  49.645  49.574  1.00  0.00    -0.055 A 
HETATM   31  C   UNL     1      18.790  48.297  50.191  1.00  0.00     0.049 C 
HETATM   32  C   UNL     1      18.458  50.778  50.154  1.00  0.00     0.007 A 
HETATM   33  C   UNL     1      18.682  52.052  49.635  1.00  0.00     0.001 A 
HETATM   34  C   UNL     1      19.507  52.215  48.527  1.00  0.00     0.001 A 
HETATM   35  C   UNL     1      20.117  51.103  47.947  1.00  0.00     0.008 A 
ENDBRANCH  28  29
ENDBRANCH  27  28
ENDBRANCH  26  27
ENDBRANCH   1  26
TORSDOF 7
ENDMDL
MODEL 4
REMARK VINA RESULT:     -10.2      1.998      2.684
REMARK  7 active torsions:
REMARK  status: ('A' for Active; 'I' for Inactive)
REMARK    1  A    between atoms: C_3  and  C_4 
REMARK    2  A    between atoms: C_4  and  S_5 
REMARK    3  A    between atoms: S_5  and  C_6 
REMARK    4  A    between atoms: C_6  and  C_7 
REMARK    5  A    between atoms: C_16  and  C_17 
REMARK       I    between atoms: C_17  and  N_18 
REMARK    6  A    between atoms: N_18  and  C_19 
REMARK    7  A    between atoms: C_19  and  C_20 
ROOT
HETATM    1  C   UNL     1      26.317  43.036  51.724  1.00  0.00     0.162 C 
HETATM    2  N   UNL     1      26.453  44.420  51.207  1.00  0.00    -0.277 NA
HETATM    3  C   UNL     1      25.332  44.867  50.479  1.00  0.00     0.036 A 
HETATM    4  C   UNL     1      24.462  43.975  49.827  1.00  0.00     0.057 A 
HETATM    5  N   UNL     1      24.701  42.597  49.907  1.00  0.00    -0.324 N 
HETATM    6  C   UNL     1      25.685  42.066  50.705  1.00  0.00     0.240 C 
HETATM    7  O   UNL     1      25.940  40.864  50.661  1.00  0.00    -0.271 OA
HETATM    8  C   UNL     1      25.160  46.239  50.284  1.00  0.00     0.027 A 
HETATM    9  C   UNL     1      24.086  46.716  49.529  1.00  0.00     0.019 A 
HETATM   10  C   UNL     1      23.184  45.820  48.940  1.00  0.00     0.034 A 
HETATM   11  C   UNL     1      23.392  44.442  49.061  1.00  0.00     0.048 A 
HETATM   12  H   UNL     1      27.292  44.522  50.635  1.00  0.00     0.128 HD
HETATM   13  H   UNL     1      24.194  41.948  49.321  1.00  0.00     0.169 HD
ENDROOT
BRANCH  10  14
HETATM   14  C   UNL     1      22.026  46.381  48.188  1.00  0.00     0.252 C 
HETATM   15  N   UNL     1      20.884  46.619  48.920  1.00  0.00    -0.353 N 
HETATM   16  H   UNL     1      20.953  46.633  49.928  1.00  0.00     0.163 HD
HETATM   17  O   UNL     1      22.136  46.649  46.997  1.00  0.00    -0.268 OA
BRANCH  15  18
HETATM   18  C   UNL     1      19.786  47.373  48.354  1.00  0.00     0.163 C 
BRANCH  18  19
HETATM   19  C   UNL     1      19.883  48.838  48.696  1.00  0.00    -0.019 A 
HETATM   20  C   UNL     1      19.393  49.377  49.897  1.00  0.00     0.042 A 
HETATM   21 CL   UNL     1      18.612  48.391  51.084  1.00  0.00    -0.084 Cl
HETATM   22  C   UNL     1      19.512  50.744  50.168  1.00  0.00     0.024 A 
HETATM   23  C   UNL     1      20.124  51.590  49.244  1.00  0.00     0.002 A 
HETATM   24  C   UNL     1      20.613  51.073  48.048  1.00  0.00     0.001 A 
HETATM   25  C   UNL     1      20.491  49.710  47.775  1.00  0.00     0.010 A 
ENDBRANCH  18  19
ENDBRANCH  15  18
ENDBRANCH  10  14
BRANCH   1  26
HETATM   26  C   UNL     1      27.665  42.476  52.211  1.00  0.00     0.103 C 
BRANCH  26  27
HETATM   27  S   UNL     1      28.014  42.687  54.001  1.00  0.00    -0.162 SA
BRANCH  27  28
HETATM   28  C   UNL     1      29.509  43.722  53.902  1.00  0.00     0.112 C 
BRANCH  28  29
HETATM   29  C   UNL     1      30.055  44.064  55.270  1.00  0.00    -0.043 A 
HETATM   30  C   UNL     1      29.711  45.258  55.943  1.00  0.00    -0.055 A 
HETATM   31  C   UNL     1      28.766  46.270  55.349  1.00  0.00     0.049 C 
HETATM   32  C   UNL     1      30.224  45.492  57.230  1.00  0.00     0.007 A 
HETATM   33  C   UNL     1      31.087  44.579  57.835  1.00  0.00     0.001 A 
HETATM   34  C   UNL     1      31.450  43.417  57.162  1.00  0.00     0.001 A 
HETATM   35  C   UNL     1      30.939  43.162  55.890  1.00  0.00     0.008 A 
ENDBRANCH  28  29
ENDBRANCH  27  28
ENDBRANCH  26  27
ENDBRANCH   1  26
TORSDOF 7
ENDMDL
MODEL 5
REMARK VINA RESULT:      -9.9      3.953     11.001
REMARK  7 active torsions:
REMARK  status: ('A' for Active; 'I' for Inactive)
REMARK    1  A    between atoms: C_3  and  C_4 
REMARK    2  A    between atoms: C_4  and  S_5 
REMARK    3  A    between atoms: S_5  and  C_6 
REMARK    4  A    between atoms: C_6  and  C_7 
REMARK    5  A    between atoms: C_16  and  C_17 
REMARK       I    between atoms: C_17  and  N_18 
REMARK    6  A    between atoms: N_18  and  C_19 
REMARK    7  A    between atoms: C_19  and  C_20 
ROOT
HETATM    1  C   UNL     1      23.910  45.732  49.538  1.00  0.00     0.162 C 
HETATM    2  N   UNL     1      24.815  44.664  49.047  1.00  0.00    -0.277 NA
HETATM    3  C   UNL     1      25.742  44.218  50.010  1.00  0.00     0.036 A 
HETATM    4  C   UNL     1      26.161  45.035  51.076  1.00  0.00     0.057 A 
HETATM    5  N   UNL     1      25.637  46.328  51.200  1.00  0.00    -0.324 N 
HETATM    6  C   UNL     1      24.630  46.795  50.392  1.00  0.00     0.240 C 
HETATM    7  O   UNL     1      24.277  47.971  50.455  1.00  0.00    -0.271 OA
HETATM    8  C   UNL     1      26.366  42.984  49.822  1.00  0.00     0.027 A 
HETATM    9  C   UNL     1      27.324  42.531  50.732  1.00  0.00     0.019 A 
HETATM   10  C   UNL     1      27.685  43.321  51.831  1.00  0.00     0.034 A 
HETATM   11  C   UNL     1      27.125  44.595  51.985  1.00  0.00     0.048 A 
HETATM   12  H   UNL     1      25.315  44.958  48.207  1.00  0.00     0.128 HD
HETATM   13  H   UNL     1      26.036  46.988  51.854  1.00  0.00     0.169 HD
ENDROOT
BRANCH  10  14
HETATM   14  C   UNL     1      28.673  42.770  52.801  1.00  0.00     0.252 C 
HETATM   15  N   UNL     1      29.449  43.693  53.467  1.00  0.00    -0.353 N 
HETATM   16  H   UNL     1      29.163  44.662  53.452  1.00  0.00     0.163 HD
HETATM   17  O   UNL     1      28.730  41.564  53.004  1.00  0.00    -0.268 OA
BRANCH  15  18
HETATM   18  C   UNL     1      30.269  43.296  54.591  1.00  0.00     0.163 C 
BRANCH  18  19
HETATM   19  C   UNL     1      30.123  44.248  55.751  1.00  0.00    -0.019 A 
HETATM   20  C   UNL     1      30.903  44.159  56.916  1.00  0.00     0.042 A 
HETATM   21 CL   UNL     1      32.093  42.923  57.121  1.00  0.00    -0.084 Cl
HETATM   22  C   UNL     1      30.729  45.071  57.962  1.00  0.00     0.024 A 
HETATM   23  C   UNL     1      29.777  46.084  57.858  1.00  0.00     0.002 A 
HETATM   24  C   UNL     1      28.995  46.185  56.712  1.00  0.00     0.001 A 
HETATM   25  C   UNL     1      29.163  45.273  55.668  1.00  0.00     0.010 A 
ENDBRANCH  18  19
ENDBRANCH  15  18
ENDBRANCH  10  14
BRANCH   1  26
HETATM   26  C   UNL     1      23.156  46.414  48.383  1.00  0.00     0.103 C 
BRANCH  26  27
HETATM   27  S   UNL     1      21.329  46.235  48.409  1.00  0.00    -0.162 SA
BRANCH  27  28
HETATM   28  C   UNL     1      20.857  47.769  47.548  1.00  0.00     0.112 C 
BRANCH  28  29
HETATM   29  C   UNL     1      20.633  48.914  48.510  1.00  0.00    -0.043 A 
HETATM   30  C   UNL     1      21.512  50.017  48.588  1.00  0.00    -0.055 A 
HETATM   31  C   UNL     1      22.730  50.136  47.710  1.00  0.00     0.049 C 
HETATM   32  C   UNL     1      21.220  51.065  49.477  1.00  0.00     0.007 A 
HETATM   33  C   UNL     1      20.095  51.016  50.299  1.00  0.00     0.001 A 
HETATM   34  C   UNL     1      19.243  49.917  50.245  1.00  0.00     0.001 A 
HETATM   35  C   UNL     1      19.511  48.875  49.358  1.00  0.00     0.008 A 
ENDBRANCH  28  29
ENDBRANCH  27  28
ENDBRANCH  26  27
ENDBRANCH   1  26
TORSDOF 7
ENDMDL
MODEL 6
REMARK VINA RESULT:      -9.9      3.639     11.493
REMARK  7 active torsions:
REMARK  status: ('A' for Active; 'I' for Inactive)
REMARK    1  A    between atoms: C_3  and  C_4 
REMARK    2  A    between atoms: C_4  and  S_5 
REMARK    3  A    between atoms: S_5  and  C_6 
REMARK    4  A    between atoms: C_6  and  C_7 
REMARK    5  A    between atoms: C_16  and  C_17 
REMARK       I    between atoms: C_17  and  N_18 
REMARK    6  A    between atoms: N_18  and  C_19 
REMARK    7  A    between atoms: C_19  and  C_20 
ROOT
HETATM    1  C   UNL     1      21.949  48.614  47.875  1.00  0.00     0.162 C 
HETATM    2  N   UNL     1      23.128  49.145  48.604  1.00  0.00    -0.277 NA
HETATM    3  C   UNL     1      24.007  48.146  49.064  1.00  0.00     0.036 A 
HETATM    4  C   UNL     1      23.574  46.834  49.327  1.00  0.00     0.057 A 
HETATM    5  N   UNL     1      22.231  46.496  49.115  1.00  0.00    -0.324 N 
HETATM    6  C   UNL     1      21.336  47.364  48.539  1.00  0.00     0.240 C 
HETATM    7  O   UNL     1      20.143  47.075  48.474  1.00  0.00    -0.271 OA
HETATM    8  C   UNL     1      25.314  48.504  49.403  1.00  0.00     0.027 A 
HETATM    9  C   UNL     1      26.200  47.548  49.906  1.00  0.00     0.019 A 
HETATM   10  C   UNL     1      25.779  46.226  50.099  1.00  0.00     0.034 A 
HETATM   11  C   UNL     1      24.449  45.874  49.840  1.00  0.00     0.048 A 
HETATM   12  H   UNL     1      22.845  49.735  49.387  1.00  0.00     0.128 HD
HETATM   13  H   UNL     1      21.860  45.616  49.444  1.00  0.00     0.169 HD
ENDROOT
BRANCH  10  14
HETATM   14  C   UNL     1      26.777  45.234  50.589  1.00  0.00     0.252 C 
HETATM   15  N   UNL     1      26.764  44.978  51.943  1.00  0.00    -0.353 N 
HETATM   16  H   UNL     1      25.960  45.273  52.480  1.00  0.00     0.163 HD
HETATM   17  O   UNL     1      27.518  44.662  49.798  1.00  0.00    -0.268 OA
BRANCH  15  18
HETATM   18  C   UNL     1      27.518  43.873  52.494  1.00  0.00     0.163 C 
BRANCH  18  19
HETATM   19  C   UNL     1      28.300  44.288  53.715  1.00  0.00    -0.019 A 
HETATM   20  C   UNL     1      29.526  43.703  54.072  1.00  0.00     0.042 A 
HETATM   21 CL   UNL     1      30.232  42.430  53.139  1.00  0.00    -0.084 Cl
HETATM   22  C   UNL     1      30.214  44.127  55.214  1.00  0.00     0.024 A 
HETATM   23  C   UNL     1      29.688  45.143  56.011  1.00  0.00     0.002 A 
HETATM   24  C   UNL     1      28.474  45.732  55.672  1.00  0.00     0.001 A 
HETATM   25  C   UNL     1      27.784  45.307  54.536  1.00  0.00     0.010 A 
ENDBRANCH  18  19
ENDBRANCH  15  18
ENDBRANCH  10  14
BRANCH   1  26
HETATM   26  C   UNL     1      20.865  49.690  47.688  1.00  0.00     0.103 C 
BRANCH  26  27
HETATM   27  S   UNL     1      20.431  50.655  49.188  1.00  0.00    -0.162 SA
BRANCH  27  28
HETATM   28  C   UNL     1      19.748  52.151  48.406  1.00  0.00     0.112 C 
BRANCH  28  29
HETATM   29  C   UNL     1      18.244  52.224  48.537  1.00  0.00    -0.043 A 
HETATM   30  C   UNL     1      17.377  51.925  47.462  1.00  0.00    -0.055 A 
HETATM   31  C   UNL     1      17.891  51.501  46.112  1.00  0.00     0.049 C 
HETATM   32  C   UNL     1      15.988  51.976  47.668  1.00  0.00     0.007 A 
HETATM   33  C   UNL     1      15.458  52.343  48.904  1.00  0.00     0.001 A 
HETATM   34  C   UNL     1      16.310  52.666  49.955  1.00  0.00     0.001 A 
HETATM   35  C   UNL     1      17.691  52.608  49.773  1.00  0.00     0.008 A 
ENDBRANCH  28  29
ENDBRANCH  27  28
ENDBRANCH  26  27
ENDBRANCH   1  26
TORSDOF 7
ENDMDL
MODEL 7
REMARK VINA RESULT:      -9.7      1.618      2.249
REMARK  7 active torsions:
REMARK  status: ('A' for Active; 'I' for Inactive)
REMARK    1  A    between atoms: C_3  and  C_4 
REMARK    2  A    between atoms: C_4  and  S_5 
REMARK    3  A    between atoms: S_5  and  C_6 
REMARK    4  A    between atoms: C_6  and  C_7 
REMARK    5  A    between atoms: C_16  and  C_17 
REMARK       I    between atoms: C_17  and  N_18 
REMARK    6  A    between atoms: N_18  and  C_19 
REMARK    7  A    between atoms: C_19  and  C_20 
ROOT
HETATM    1  C   UNL     1      26.144  43.717  51.252  1.00  0.00     0.162 C 
HETATM    2  N   UNL     1      26.831  44.849  50.582  1.00  0.00    -0.277 NA
HETATM    3  C   UNL     1      25.972  45.912  50.241  1.00  0.00     0.036 A 
HETATM    4  C   UNL     1      24.596  45.719  50.021  1.00  0.00     0.057 A 
HETATM    5  N   UNL     1      24.051  44.436  50.155  1.00  0.00    -0.324 N 
HETATM    6  C   UNL     1      24.783  43.369  50.616  1.00  0.00     0.240 C 
HETATM    7  O   UNL     1      24.304  42.237  50.610  1.00  0.00    -0.271 OA
HETATM    8  C   UNL     1      26.525  47.166  49.978  1.00  0.00     0.027 A 
HETATM    9  C   UNL     1      25.709  48.233  49.593  1.00  0.00     0.019 A 
HETATM   10  C   UNL     1      24.328  48.048  49.444  1.00  0.00     0.034 A 
HETATM   11  C   UNL     1      23.773  46.776  49.626  1.00  0.00     0.048 A 
HETATM   12  H   UNL     1      27.332  44.538  49.749  1.00  0.00     0.128 HD
HETATM   13  H   UNL     1      23.108  44.238  49.848  1.00  0.00     0.169 HD
ENDROOT
BRANCH  10  14
HETATM   14  C   UNL     1      23.495  49.228  49.082  1.00  0.00     0.252 C 
HETATM   15  N   UNL     1      22.278  49.332  49.721  1.00  0.00    -0.353 N 
HETATM   16  H   UNL     1      22.118  48.767  50.543  1.00  0.00     0.163 HD
HETATM   17  O   UNL     1      23.921  50.065  48.294  1.00  0.00    -0.268 OA
BRANCH  15  18
HETATM   18  C   UNL     1      21.495  50.545  49.627  1.00  0.00     0.163 C 
BRANCH  18  19
HETATM   19  C   UNL     1      20.267  50.349  48.775  1.00  0.00    -0.019 A 
HETATM   20  C   UNL     1      19.046  49.884  49.290  1.00  0.00     0.042 A 
HETATM   21 CL   UNL     1      18.860  49.475  50.960  1.00  0.00    -0.084 Cl
HETATM   22  C   UNL     1      17.934  49.723  48.456  1.00  0.00     0.024 A 
HETATM   23  C   UNL     1      18.027  50.026  47.098  1.00  0.00     0.002 A 
HETATM   24  C   UNL     1      19.230  50.486  46.572  1.00  0.00     0.001 A 
HETATM   25  C   UNL     1      20.341  50.644  47.401  1.00  0.00     0.010 A 
ENDBRANCH  18  19
ENDBRANCH  15  18
ENDBRANCH  10  14
BRANCH   1  26
HETATM   26  C   UNL     1      27.033  42.462  51.302  1.00  0.00     0.103 C 
BRANCH  26  27
HETATM   27  S   UNL     1      28.661  42.670  52.124  1.00  0.00    -0.162 SA
BRANCH  27  28
HETATM   28  C   UNL     1      28.127  42.681  53.865  1.00  0.00     0.112 C 
BRANCH  28  29
HETATM   29  C   UNL     1      28.311  44.037  54.507  1.00  0.00    -0.043 A 
HETATM   30  C   UNL     1      29.474  44.376  55.235  1.00  0.00    -0.055 A 
HETATM   31  C   UNL     1      30.618  43.412  55.412  1.00  0.00     0.049 C 
HETATM   32  C   UNL     1      29.596  45.669  55.771  1.00  0.00     0.007 A 
HETATM   33  C   UNL     1      28.575  46.607  55.620  1.00  0.00     0.001 A 
HETATM   34  C   UNL     1      27.417  46.267  54.929  1.00  0.00     0.001 A 
HETATM   35  C   UNL     1      27.286  44.992  54.378  1.00  0.00     0.008 A 
ENDBRANCH  28  29
ENDBRANCH  27  28
ENDBRANCH  26  27
ENDBRANCH   1  26
TORSDOF 7
ENDMDL
MODEL 8
REMARK VINA RESULT:      -9.5      2.039      2.836
REMARK  7 active torsions:
REMARK  status: ('A' for Active; 'I' for Inactive)
REMARK    1  A    between atoms: C_3  and  C_4 
REMARK    2  A    between atoms: C_4  and  S_5 
REMARK    3  A    between atoms: S_5  and  C_6 
REMARK    4  A    between atoms: C_6  and  C_7 
REMARK    5  A    between atoms: C_16  and  C_17 
REMARK       I    between atoms: C_17  and  N_18 
REMARK    6  A    between atoms: N_18  and  C_19 
REMARK    7  A    between atoms: C_19  and  C_20 
ROOT
HETATM    1  C   UNL     1      26.237  45.614  50.357  1.00  0.00     0.162 C 
HETATM    2  N   UNL     1      25.219  44.681  49.813  1.00  0.00    -0.277 NA
HETATM    3  C   UNL     1      24.171  45.323  49.125  1.00  0.00     0.036 A 
HETATM    4  C   UNL     1      23.805  46.654  49.396  1.00  0.00     0.057 A 
HETATM    5  N   UNL     1      24.505  47.376  50.371  1.00  0.00    -0.324 N 
HETATM    6  C   UNL     1      25.624  46.879  50.992  1.00  0.00     0.240 C 
HETATM    7  O   UNL     1      26.143  47.493  51.922  1.00  0.00    -0.271 OA
HETATM    8  C   UNL     1      23.385  44.574  48.247  1.00  0.00     0.027 A 
HETATM    9  C   UNL     1      22.309  45.166  47.582  1.00  0.00     0.019 A 
HETATM   10  C   UNL     1      21.993  46.513  47.806  1.00  0.00     0.034 A 
HETATM   11  C   UNL     1      22.724  47.252  48.744  1.00  0.00     0.048 A 
HETATM   12  H   UNL     1      24.829  44.089  50.547  1.00  0.00     0.128 HD
HETATM   13  H   UNL     1      24.164  48.270  50.698  1.00  0.00     0.169 HD
ENDROOT
BRANCH  10  14
HETATM   14  C   UNL     1      20.869  47.111  47.033  1.00  0.00     0.252 C 
HETATM   15  N   UNL     1      20.167  48.117  47.661  1.00  0.00    -0.353 N 
HETATM   16  H   UNL     1      20.576  48.551  48.477  1.00  0.00     0.163 HD
HETATM   17  O   UNL     1      20.641  46.738  45.888  1.00  0.00    -0.268 OA
BRANCH  15  18
HETATM   18  C   UNL     1      19.216  48.924  46.928  1.00  0.00     0.163 C 
BRANCH  18  19
HETATM   19  C   UNL     1      18.780  50.128  47.723  1.00  0.00    -0.019 A 
HETATM   20  C   UNL     1      17.531  50.213  48.360  1.00  0.00     0.042 A 
HETATM   21 CL   UNL     1      16.373  48.932  48.262  1.00  0.00    -0.084 Cl
HETATM   22  C   UNL     1      17.176  51.352  49.089  1.00  0.00     0.024 A 
HETATM   23  C   UNL     1      18.065  52.421  49.195  1.00  0.00     0.002 A 
HETATM   24  C   UNL     1      19.306  52.354  48.568  1.00  0.00     0.001 A 
HETATM   25  C   UNL     1      19.660  51.220  47.837  1.00  0.00     0.010 A 
ENDBRANCH  18  19
ENDBRANCH  15  18
ENDBRANCH  10  14
BRANCH   1  26
HETATM   26  C   UNL     1      27.163  44.918  51.370  1.00  0.00     0.103 C 
BRANCH  26  27
HETATM   27  S   UNL     1      26.336  43.803  52.570  1.00  0.00    -0.162 SA
BRANCH  27  28
HETATM   28  C   UNL     1      26.687  44.700  54.116  1.00  0.00     0.112 C 
BRANCH  28  29
HETATM   29  C   UNL     1      28.091  44.444  54.615  1.00  0.00    -0.043 A 
HETATM   30  C   UNL     1      28.788  45.375  55.418  1.00  0.00    -0.055 A 
HETATM   31  C   UNL     1      28.176  46.683  55.844  1.00  0.00     0.049 C 
HETATM   32  C   UNL     1      30.075  45.053  55.879  1.00  0.00     0.007 A 
HETATM   33  C   UNL     1      30.682  43.847  55.532  1.00  0.00     0.001 A 
HETATM   34  C   UNL     1      30.009  42.942  54.717  1.00  0.00     0.001 A 
HETATM   35  C   UNL     1      28.725  43.238  54.262  1.00  0.00     0.008 A 
ENDBRANCH  28  29
ENDBRANCH  27  28
ENDBRANCH  26  27
ENDBRANCH   1  26
TORSDOF 7
ENDMDL
MODEL 9
REMARK VINA RESULT:      -9.3      6.361      9.611
REMARK  7 active torsions:
REMARK  status: ('A' for Active; 'I' for Inactive)
REMARK    1  A    between atoms: C_3  and  C_4 
REMARK    2  A    between atoms: C_4  and  S_5 
REMARK    3  A    between atoms: S_5  and  C_6 
REMARK    4  A    between atoms: C_6  and  C_7 
REMARK    5  A    between atoms: C_16  and  C_17 
REMARK       I    between atoms: C_17  and  N_18 
REMARK    6  A    between atoms: N_18  and  C_19 
REMARK    7  A    between atoms: C_19  and  C_20 
ROOT
HETATM    1  C   UNL     1      26.563  44.159  52.083  1.00  0.00     0.162 C 
HETATM    2  N   UNL     1      27.503  43.056  52.401  1.00  0.00    -0.277 NA
HETATM    3  C   UNL     1      27.385  41.944  51.544  1.00  0.00     0.036 A 
HETATM    4  C   UNL     1      26.190  41.650  50.864  1.00  0.00     0.057 A 
HETATM    5  N   UNL     1      25.080  42.489  51.027  1.00  0.00    -0.324 N 
HETATM    6  C   UNL     1      25.145  43.666  51.731  1.00  0.00     0.240 C 
HETATM    7  O   UNL     1      24.124  44.317  51.950  1.00  0.00    -0.271 OA
HETATM    8  C   UNL     1      28.440  41.032  51.477  1.00  0.00     0.027 A 
HETATM    9  C   UNL     1      28.339  39.894  50.673  1.00  0.00     0.019 A 
HETATM   10  C   UNL     1      27.169  39.645  49.943  1.00  0.00     0.034 A 
HETATM   11  C   UNL     1      26.076  40.510  50.066  1.00  0.00     0.048 A 
HETATM   12  H   UNL     1      27.401  42.750  53.370  1.00  0.00     0.128 HD
HETATM   13  H   UNL     1      24.169  42.216  50.684  1.00  0.00     0.169 HD
ENDROOT
BRANCH  10  14
HETATM   14  C   UNL     1      27.132  38.445  49.061  1.00  0.00     0.252 C 
HETATM   15  N   UNL     1      26.801  38.671  47.742  1.00  0.00    -0.353 N 
HETATM   16  H   UNL     1      26.834  39.619  47.394  1.00  0.00     0.163 HD
HETATM   17  O   UNL     1      27.434  37.344  49.505  1.00  0.00    -0.268 OA
BRANCH  15  18
HETATM   18  C   UNL     1      26.960  37.629  46.751  1.00  0.00     0.163 C 
BRANCH  18  19
HETATM   19  C   UNL     1      27.835  38.078  45.609  1.00  0.00    -0.019 A 
HETATM   20  C   UNL     1      28.752  37.228  44.968  1.00  0.00     0.042 A 
HETATM   21 CL   UNL     1      28.964  35.584  45.460  1.00  0.00    -0.084 Cl
HETATM   22  C   UNL     1      29.538  37.694  43.909  1.00  0.00     0.024 A 
HETATM   23  C   UNL     1      29.418  39.013  43.475  1.00  0.00     0.002 A 
HETATM   24  C   UNL     1      28.517  39.869  44.100  1.00  0.00     0.001 A 
HETATM   25  C   UNL     1      27.734  39.408  45.160  1.00  0.00     0.010 A 
ENDBRANCH  18  19
ENDBRANCH  15  18
ENDBRANCH  10  14
BRANCH   1  26
HETATM   26  C   UNL     1      26.490  45.191  53.222  1.00  0.00     0.103 C 
BRANCH  26  27
HETATM   27  S   UNL     1      27.172  44.645  54.836  1.00  0.00    -0.162 SA
BRANCH  27  28
HETATM   28  C   UNL     1      28.757  45.541  54.819  1.00  0.00     0.112 C 
BRANCH  28  29
HETATM   29  C   UNL     1      29.716  45.019  55.865  1.00  0.00    -0.043 A 
HETATM   30  C   UNL     1      30.510  43.870  55.654  1.00  0.00    -0.055 A 
HETATM   31  C   UNL     1      30.467  43.090  54.367  1.00  0.00     0.049 C 
HETATM   32  C   UNL     1      31.409  43.465  56.655  1.00  0.00     0.007 A 
HETATM   33  C   UNL     1      31.505  44.162  57.859  1.00  0.00     0.001 A 
HETATM   34  C   UNL     1      30.703  45.277  58.080  1.00  0.00     0.001 A 
HETATM   35  C   UNL     1      29.815  45.701  57.092  1.00  0.00     0.008 A 
ENDBRANCH  28  29
ENDBRANCH  27  28
ENDBRANCH  26  27
ENDBRANCH   1  26
TORSDOF 7
ENDMDL
MODEL 10
REMARK VINA RESULT:      -9.3      3.740     11.104
REMARK  7 active torsions:
REMARK  status: ('A' for Active; 'I' for Inactive)
REMARK    1  A    between atoms: C_3  and  C_4 
REMARK    2  A    between atoms: C_4  and  S_5 
REMARK    3  A    between atoms: S_5  and  C_6 
REMARK    4  A    between atoms: C_6  and  C_7 
REMARK    5  A    between atoms: C_16  and  C_17 
REMARK       I    between atoms: C_17  and  N_18 
REMARK    6  A    between atoms: N_18  and  C_19 
REMARK    7  A    between atoms: C_19  and  C_20 
ROOT
HETATM    1  C   UNL     1      21.988  46.328  47.672  1.00  0.00     0.162 C 
HETATM    2  N   UNL     1      22.713  47.177  48.651  1.00  0.00    -0.277 NA
HETATM    3  C   UNL     1      23.716  46.490  49.363  1.00  0.00     0.036 A 
HETATM    4  C   UNL     1      23.668  45.099  49.565  1.00  0.00     0.057 A 
HETATM    5  N   UNL     1      22.601  44.362  49.036  1.00  0.00    -0.324 N 
HETATM    6  C   UNL     1      21.655  44.924  48.214  1.00  0.00     0.240 C 
HETATM    7  O   UNL     1      20.671  44.274  47.864  1.00  0.00    -0.271 OA
HETATM    8  C   UNL     1      24.711  47.230  50.004  1.00  0.00     0.027 A 
HETATM    9  C   UNL     1      25.696  46.585  50.757  1.00  0.00     0.019 A 
HETATM   10  C   UNL     1      25.680  45.191  50.896  1.00  0.00     0.034 A 
HETATM   11  C   UNL     1      24.641  44.447  50.325  1.00  0.00     0.048 A 
HETATM   12  H   UNL     1      22.069  47.616  49.310  1.00  0.00     0.128 HD
HETATM   13  H   UNL     1      22.456  43.397  49.300  1.00  0.00     0.169 HD
ENDROOT
BRANCH  10  14
HETATM   14  C   UNL     1      26.782  44.548  51.667  1.00  0.00     0.252 C 
HETATM   15  N   UNL     1      26.518  44.276  52.991  1.00  0.00    -0.353 N 
HETATM   16  H   UNL     1      25.557  44.299  53.305  1.00  0.00     0.163 HD
HETATM   17  O   UNL     1      27.830  44.248  51.109  1.00  0.00    -0.268 OA
BRANCH  15  18
HETATM   18  C   UNL     1      27.415  43.450  53.770  1.00  0.00     0.163 C 
BRANCH  18  19
HETATM   19  C   UNL     1      28.278  44.278  54.687  1.00  0.00    -0.019 A 
HETATM   20  C   UNL     1      29.648  44.030  54.878  1.00  0.00     0.042 A 
HETATM   21 CL   UNL     1      30.455  42.726  54.080  1.00  0.00    -0.084 Cl
HETATM   22  C   UNL     1      30.405  44.831  55.738  1.00  0.00     0.024 A 
HETATM   23  C   UNL     1      29.806  45.892  56.417  1.00  0.00     0.002 A 
HETATM   24  C   UNL     1      28.450  46.149  56.241  1.00  0.00     0.001 A 
HETATM   25  C   UNL     1      27.692  45.349  55.386  1.00  0.00     0.010 A 
ENDBRANCH  18  19
ENDBRANCH  15  18
ENDBRANCH  10  14
BRANCH   1  26
HETATM   26  C   UNL     1      20.704  47.012  47.169  1.00  0.00     0.103 C 
BRANCH  26  27
HETATM   27  S   UNL     1      19.705  47.871  48.447  1.00  0.00    -0.162 SA
BRANCH  27  28
HETATM   28  C   UNL     1      18.921  49.151  47.415  1.00  0.00     0.112 C 
BRANCH  28  29
HETATM   29  C   UNL     1      18.388  50.299  48.242  1.00  0.00    -0.043 A 
HETATM   30  C   UNL     1      19.224  51.322  48.740  1.00  0.00    -0.055 A 
HETATM   31  C   UNL     1      20.706  51.348  48.473  1.00  0.00     0.049 C 
HETATM   32  C   UNL     1      18.654  52.380  49.468  1.00  0.00     0.007 A 
HETATM   33  C   UNL     1      17.285  52.417  49.727  1.00  0.00     0.001 A 
HETATM   34  C   UNL     1      16.463  51.395  49.263  1.00  0.00     0.001 A 
HETATM   35  C   UNL     1      17.010  50.344  48.527  1.00  0.00     0.008 A 
ENDBRANCH  28  29
ENDBRANCH  27  28
ENDBRANCH  26  27
ENDBRANCH   1  26
TORSDOF 7
ENDMDL
