MODEL 1
REMARK VINA RESULT:      -9.6      0.000      0.000
REMARK  5 active torsions:
REMARK  status: ('A' for Active; 'I' for Inactive)
REMARK    1  A    between atoms: C_8  and  N_9 
REMARK    2  A    between atoms: C_12  and  N_13 
REMARK    3  A    between atoms: N_13  and  C_15 
REMARK    4  A    between atoms: C_15  and  C_16 
REMARK    5  A    between atoms: C_20  and  C_21 
ROOT
HETATM    1  N   UNL     1      26.415  42.625  50.956  1.00  0.00    -0.065 N 
HETATM    2  H   UNL     1      27.093  43.367  50.763  1.00  0.00     0.280 HD
HETATM    3  C   UNL     1      26.270  41.810  49.684  1.00  0.00     0.270 C 
ENDROOT
BRANCH   1   4
HETATM    4  C   UNL     1      25.082  43.270  51.393  1.00  0.00     0.191 C 
HETATM    5  C   UNL     1      25.272  44.512  52.276  1.00  0.00     0.053 C 
HETATM    6  C   UNL     1      25.773  45.725  51.496  1.00  0.00     0.126 C 
HETATM    7  N   UNL     1      24.850  45.987  50.387  1.00  0.00    -0.366 N 
HETATM    8  C   UNL     1      24.702  44.885  49.432  1.00  0.00     0.126 C 
HETATM    9  C   UNL     1      24.211  43.644  50.175  1.00  0.00     0.053 C 
BRANCH   7  10
HETATM   10  C   UNL     1      24.963  47.262  49.818  1.00  0.00     0.129 A 
HETATM   11  N   UNL     1      23.874  47.865  49.308  1.00  0.00    -0.218 NA
HETATM   12  C   UNL     1      24.037  49.062  48.688  1.00  0.00     0.102 A 
HETATM   13  N   UNL     1      25.227  49.661  48.552  1.00  0.00    -0.348 N 
HETATM   14  C   UNL     1      22.833  49.717  48.091  1.00  0.00     0.091 C 
HETATM   15  C   UNL     1      26.331  49.088  49.054  1.00  0.00     0.010 A 
HETATM   16  H   UNL     1      25.287  50.548  48.054  1.00  0.00     0.167 HD
HETATM   17  C   UNL     1      27.652  49.760  48.865  1.00  0.00     0.068 C 
HETATM   18  C   UNL     1      26.214  47.860  49.707  1.00  0.00     0.075 A 
ENDBRANCH   7  10
ENDBRANCH   1   4
BRANCH   1  19
HETATM   19  C   UNL     1      27.095  41.737  52.020  1.00  0.00     0.295 C 
BRANCH  19  20
HETATM   20  C   UNL     1      28.230  42.327  52.800  1.00  0.00     0.082 A 
HETATM   21  N   UNL     1      29.471  42.364  52.298  1.00  0.00    -0.177 NA
HETATM   22  N   UNL     1      30.208  42.921  53.282  1.00  0.00    -0.277 N 
HETATM   23  H   UNL     1      31.203  43.061  53.133  1.00  0.00     0.189 HD
HETATM   24  C   UNL     1      29.482  43.253  54.397  1.00  0.00     0.062 A 
HETATM   25  C   UNL     1      28.184  42.888  54.098  1.00  0.00     0.062 A 
BRANCH  24  26
HETATM   26  C   UNL     1      30.069  43.869  55.585  1.00  0.00    -0.008 A 
HETATM   27  C   UNL     1      29.660  45.144  55.997  1.00  0.00     0.014 A 
HETATM   28  C   UNL     1      30.222  45.741  57.128  1.00  0.00     0.001 A 
HETATM   29  C   UNL     1      31.194  45.068  57.863  1.00  0.00     0.000 A 
HETATM   30  C   UNL     1      31.604  43.796  57.471  1.00  0.00     0.001 A 
HETATM   31  C   UNL     1      31.045  43.199  56.337  1.00  0.00     0.014 A 
ENDBRANCH  24  26
ENDBRANCH  19  20
ENDBRANCH   1  19
TORSDOF 5
ENDMDL
MODEL 2
REMARK VINA RESULT:      -9.3      2.912      9.268
REMARK  5 active torsions:
REMARK  status: ('A' for Active; 'I' for Inactive)
REMARK    1  A    between atoms: C_8  and  N_9 
REMARK    2  A    between atoms: C_12  and  N_13 
REMARK    3  A    between atoms: N_13  and  C_15 
REMARK    4  A    between atoms: C_15  and  C_16 
REMARK    5  A    between atoms: C_20  and  C_21 
ROOT
HETATM    1  N   UNL     1      23.446  45.066  49.869  1.00  0.00    -0.065 N 
HETATM    2  H   UNL     1      23.340  45.670  50.688  1.00  0.00     0.280 HD
HETATM    3  C   UNL     1      22.401  43.973  49.981  1.00  0.00     0.270 C 
ENDROOT
BRANCH   1   4
HETATM    4  C   UNL     1      24.884  44.502  49.850  1.00  0.00     0.191 C 
HETATM    5  C   UNL     1      25.963  45.595  49.867  1.00  0.00     0.053 C 
HETATM    6  C   UNL     1      26.092  46.280  51.224  1.00  0.00     0.126 C 
HETATM    7  N   UNL     1      26.342  45.259  52.247  1.00  0.00    -0.366 N 
HETATM    8  C   UNL     1      25.295  44.241  52.371  1.00  0.00     0.126 C 
HETATM    9  C   UNL     1      25.124  43.535  51.028  1.00  0.00     0.053 C 
BRANCH   7  10
HETATM   10  C   UNL     1      26.846  45.752  53.458  1.00  0.00     0.129 A 
HETATM   11  N   UNL     1      26.327  46.874  53.989  1.00  0.00    -0.218 NA
HETATM   12  C   UNL     1      26.896  47.369  55.117  1.00  0.00     0.102 A 
HETATM   13  N   UNL     1      27.951  46.801  55.717  1.00  0.00    -0.348 N 
HETATM   14  C   UNL     1      26.343  48.636  55.690  1.00  0.00     0.091 C 
HETATM   15  C   UNL     1      28.487  45.679  55.215  1.00  0.00     0.010 A 
HETATM   16  H   UNL     1      28.348  47.236  56.549  1.00  0.00     0.167 HD
HETATM   17  C   UNL     1      29.681  45.079  55.883  1.00  0.00     0.068 C 
HETATM   18  C   UNL     1      27.933  45.127  54.059  1.00  0.00     0.075 A 
ENDBRANCH   7  10
ENDBRANCH   1   4
BRANCH   1  19
HETATM   19  C   UNL     1      23.076  45.963  48.668  1.00  0.00     0.295 C 
BRANCH  19  20
HETATM   20  C   UNL     1      22.592  47.351  48.957  1.00  0.00     0.082 A 
HETATM   21  N   UNL     1      23.387  48.254  49.545  1.00  0.00    -0.177 NA
HETATM   22  N   UNL     1      22.606  49.348  49.670  1.00  0.00    -0.277 N 
HETATM   23  H   UNL     1      22.997  50.185  50.092  1.00  0.00     0.189 HD
HETATM   24  C   UNL     1      21.339  49.184  49.173  1.00  0.00     0.062 A 
HETATM   25  C   UNL     1      21.312  47.891  48.687  1.00  0.00     0.062 A 
BRANCH  24  26
HETATM   26  C   UNL     1      20.323  50.233  49.197  1.00  0.00    -0.008 A 
HETATM   27  C   UNL     1      19.193  50.106  50.016  1.00  0.00     0.014 A 
HETATM   28  C   UNL     1      18.215  51.103  50.038  1.00  0.00     0.001 A 
HETATM   29  C   UNL     1      18.358  52.241  49.248  1.00  0.00     0.000 A 
HETATM   30  C   UNL     1      19.480  52.385  48.436  1.00  0.00     0.001 A 
HETATM   31  C   UNL     1      20.458  51.386  48.410  1.00  0.00     0.014 A 
ENDBRANCH  24  26
ENDBRANCH  19  20
ENDBRANCH   1  19
TORSDOF 5
ENDMDL
MODEL 3
REMARK VINA RESULT:      -9.1      1.125      2.246
REMARK  5 active torsions:
REMARK  status: ('A' for Active; 'I' for Inactive)
REMARK    1  A    between atoms: C_8  and  N_9 
REMARK    2  A    between atoms: C_12  and  N_13 
REMARK    3  A    between atoms: N_13  and  C_15 
REMARK    4  A    between atoms: C_15  and  C_16 
REMARK    5  A    between atoms: C_20  and  C_21 
ROOT
HETATM    1  N   UNL     1      25.452  42.858  50.078  1.00  0.00    -0.065 N 
HETATM    2  H   UNL     1      26.216  43.533  49.991  1.00  0.00     0.280 HD
HETATM    3  C   UNL     1      25.118  42.377  48.678  1.00  0.00     0.270 C 
ENDROOT
BRANCH   1   4
HETATM    4  C   UNL     1      24.251  43.552  50.760  1.00  0.00     0.191 C 
HETATM    5  C   UNL     1      24.665  44.711  51.679  1.00  0.00     0.053 C 
HETATM    6  C   UNL     1      25.129  45.944  50.908  1.00  0.00     0.126 C 
HETATM    7  N   UNL     1      24.069  46.345  49.977  1.00  0.00    -0.366 N 
HETATM    8  C   UNL     1      23.697  45.328  48.989  1.00  0.00     0.126 C 
HETATM    9  C   UNL     1      23.235  44.068  49.720  1.00  0.00     0.053 C 
BRANCH   7  10
HETATM   10  C   UNL     1      24.188  47.649  49.479  1.00  0.00     0.129 A 
HETATM   11  N   UNL     1      25.403  48.139  49.175  1.00  0.00    -0.218 NA
HETATM   12  C   UNL     1      25.488  49.434  48.776  1.00  0.00     0.102 A 
HETATM   13  N   UNL     1      24.425  50.244  48.683  1.00  0.00    -0.348 N 
HETATM   14  C   UNL     1      26.843  49.991  48.471  1.00  0.00     0.091 C 
HETATM   15  C   UNL     1      23.200  49.783  48.973  1.00  0.00     0.010 A 
HETATM   16  H   UNL     1      24.559  51.214  48.401  1.00  0.00     0.167 HD
HETATM   17  C   UNL     1      22.033  50.713  48.890  1.00  0.00     0.068 C 
HETATM   18  C   UNL     1      23.059  48.456  49.381  1.00  0.00     0.075 A 
ENDBRANCH   7  10
ENDBRANCH   1   4
BRANCH   1  19
HETATM   19  C   UNL     1      26.058  41.674  50.861  1.00  0.00     0.295 C 
BRANCH  19  20
HETATM   20  C   UNL     1      27.194  41.963  51.794  1.00  0.00     0.082 A 
HETATM   21  N   UNL     1      28.224  41.116  51.914  1.00  0.00    -0.177 NA
HETATM   22  N   UNL     1      29.010  41.685  52.852  1.00  0.00    -0.277 N 
HETATM   23  H   UNL     1      29.875  41.221  53.117  1.00  0.00     0.189 HD
HETATM   24  C   UNL     1      28.527  42.873  53.334  1.00  0.00     0.062 A 
HETATM   25  C   UNL     1      27.348  43.083  52.645  1.00  0.00     0.062 A 
BRANCH  24  26
HETATM   26  C   UNL     1      29.210  43.667  54.352  1.00  0.00    -0.008 A 
HETATM   27  C   UNL     1      30.399  43.204  54.931  1.00  0.00     0.014 A 
HETATM   28  C   UNL     1      31.053  43.955  55.910  1.00  0.00     0.001 A 
HETATM   29  C   UNL     1      30.530  45.180  56.318  1.00  0.00     0.000 A 
HETATM   30  C   UNL     1      29.353  45.656  55.746  1.00  0.00     0.001 A 
HETATM   31  C   UNL     1      28.696  44.903  54.768  1.00  0.00     0.014 A 
ENDBRANCH  24  26
ENDBRANCH  19  20
ENDBRANCH   1  19
TORSDOF 5
ENDMDL
MODEL 4
REMARK VINA RESULT:      -9.1      3.243      6.858
REMARK  5 active torsions:
REMARK  status: ('A' for Active; 'I' for Inactive)
REMARK    1  A    between atoms: C_8  and  N_9 
REMARK    2  A    between atoms: C_12  and  N_13 
REMARK    3  A    between atoms: N_13  and  C_15 
REMARK    4  A    between atoms: C_15  and  C_16 
REMARK    5  A    between atoms: C_20  and  C_21 
ROOT
HETATM    1  N   UNL     1      24.385  43.558  50.485  1.00  0.00    -0.065 N 
HETATM    2  H   UNL     1      24.564  42.746  51.082  1.00  0.00     0.280 HD
HETATM    3  C   UNL     1      22.899  43.570  50.180  1.00  0.00     0.270 C 
ENDROOT
BRANCH   1   4
HETATM    4  C   UNL     1      25.244  43.436  49.207  1.00  0.00     0.191 C 
HETATM    5  C   UNL     1      26.739  43.239  49.500  1.00  0.00     0.053 C 
HETATM    6  C   UNL     1      27.062  41.844  50.028  1.00  0.00     0.126 C 
HETATM    7  N   UNL     1      26.564  40.850  49.072  1.00  0.00    -0.366 N 
HETATM    8  C   UNL     1      25.119  40.899  48.826  1.00  0.00     0.126 C 
HETATM    9  C   UNL     1      24.749  42.286  48.305  1.00  0.00     0.053 C 
BRANCH   7  10
HETATM   10  C   UNL     1      27.102  39.565  49.226  1.00  0.00     0.129 A 
HETATM   11  N   UNL     1      28.216  39.392  49.960  1.00  0.00    -0.218 NA
HETATM   12  C   UNL     1      28.757  38.149  50.017  1.00  0.00     0.102 A 
HETATM   13  N   UNL     1      28.242  37.095  49.370  1.00  0.00    -0.348 N 
HETATM   14  C   UNL     1      30.015  37.962  50.803  1.00  0.00     0.091 C 
HETATM   15  C   UNL     1      27.128  37.234  48.635  1.00  0.00     0.010 A 
HETATM   16  H   UNL     1      28.709  36.191  49.433  1.00  0.00     0.167 HD
HETATM   17  C   UNL     1      26.588  36.051  47.899  1.00  0.00     0.068 C 
HETATM   18  C   UNL     1      26.531  38.492  48.551  1.00  0.00     0.075 A 
ENDBRANCH   7  10
ENDBRANCH   1   4
BRANCH   1  19
HETATM   19  C   UNL     1      24.702  44.778  51.376  1.00  0.00     0.295 C 
BRANCH  19  20
HETATM   20  C   UNL     1      25.556  44.555  52.587  1.00  0.00     0.082 A 
HETATM   21  N   UNL     1      25.018  44.181  53.755  1.00  0.00    -0.177 NA
HETATM   22  N   UNL     1      26.071  44.119  54.597  1.00  0.00    -0.277 N 
HETATM   23  H   UNL     1      25.913  43.845  55.563  1.00  0.00     0.189 HD
HETATM   24  C   UNL     1      27.269  44.430  54.010  1.00  0.00     0.062 A 
HETATM   25  C   UNL     1      26.959  44.703  52.692  1.00  0.00     0.062 A 
BRANCH  24  26
HETATM   26  C   UNL     1      28.542  44.427  54.727  1.00  0.00    -0.008 A 
HETATM   27  C   UNL     1      29.394  43.317  54.654  1.00  0.00     0.014 A 
HETATM   28  C   UNL     1      30.609  43.305  55.343  1.00  0.00     0.001 A 
HETATM   29  C   UNL     1      30.989  44.405  56.108  1.00  0.00     0.000 A 
HETATM   30  C   UNL     1      30.157  45.519  56.183  1.00  0.00     0.001 A 
HETATM   31  C   UNL     1      28.939  45.530  55.496  1.00  0.00     0.014 A 
ENDBRANCH  24  26
ENDBRANCH  19  20
ENDBRANCH   1  19
TORSDOF 5
ENDMDL
MODEL 5
REMARK VINA RESULT:      -9.0      3.410      6.672
REMARK  5 active torsions:
REMARK  status: ('A' for Active; 'I' for Inactive)
REMARK    1  A    between atoms: C_8  and  N_9 
REMARK    2  A    between atoms: C_12  and  N_13 
REMARK    3  A    between atoms: N_13  and  C_15 
REMARK    4  A    between atoms: C_15  and  C_16 
REMARK    5  A    between atoms: C_20  and  C_21 
ROOT
HETATM    1  N   UNL     1      25.720  43.619  51.931  1.00  0.00    -0.065 N 
HETATM    2  H   UNL     1      25.825  42.764  52.483  1.00  0.00     0.280 HD
HETATM    3  C   UNL     1      24.485  43.445  51.068  1.00  0.00     0.270 C 
ENDROOT
BRANCH   1   4
HETATM    4  C   UNL     1      26.998  43.827  51.087  1.00  0.00     0.191 C 
HETATM    5  C   UNL     1      28.236  43.144  51.688  1.00  0.00     0.053 C 
HETATM    6  C   UNL     1      28.207  41.625  51.540  1.00  0.00     0.126 C 
HETATM    7  N   UNL     1      28.042  41.292  50.121  1.00  0.00    -0.366 N 
HETATM    8  C   UNL     1      26.819  41.813  49.503  1.00  0.00     0.126 C 
HETATM    9  C   UNL     1      26.801  43.335  49.638  1.00  0.00     0.053 C 
BRANCH   7  10
HETATM   10  C   UNL     1      28.366  39.971  49.786  1.00  0.00     0.129 A 
HETATM   11  N   UNL     1      28.910  39.161  50.714  1.00  0.00    -0.218 NA
HETATM   12  C   UNL     1      29.290  37.916  50.331  1.00  0.00     0.102 A 
HETATM   13  N   UNL     1      29.159  37.462  49.078  1.00  0.00    -0.348 N 
HETATM   14  C   UNL     1      29.926  37.027  51.353  1.00  0.00     0.091 C 
HETATM   15  C   UNL     1      28.616  38.243  48.132  1.00  0.00     0.010 A 
HETATM   16  H   UNL     1      29.487  36.525  48.848  1.00  0.00     0.167 HD
HETATM   17  C   UNL     1      28.507  37.726  46.734  1.00  0.00     0.068 C 
HETATM   18  C   UNL     1      28.203  39.530  48.478  1.00  0.00     0.075 A 
ENDBRANCH   7  10
ENDBRANCH   1   4
BRANCH   1  19
HETATM   19  C   UNL     1      25.431  44.725  52.967  1.00  0.00     0.295 C 
BRANCH  19  20
HETATM   20  C   UNL     1      26.567  45.193  53.825  1.00  0.00     0.082 A 
HETATM   21  N   UNL     1      26.960  46.473  53.816  1.00  0.00    -0.177 NA
HETATM   22  N   UNL     1      28.007  46.501  54.668  1.00  0.00    -0.277 N 
HETATM   23  H   UNL     1      28.482  47.384  54.835  1.00  0.00     0.189 HD
HETATM   24  C   UNL     1      28.295  45.286  55.232  1.00  0.00     0.062 A 
HETATM   25  C   UNL     1      27.356  44.419  54.708  1.00  0.00     0.062 A 
BRANCH  24  26
HETATM   26  C   UNL     1      29.384  45.078  56.184  1.00  0.00    -0.008 A 
HETATM   27  C   UNL     1      29.458  45.844  57.355  1.00  0.00     0.014 A 
HETATM   28  C   UNL     1      30.500  45.654  58.264  1.00  0.00     0.001 A 
HETATM   29  C   UNL     1      31.477  44.693  58.018  1.00  0.00     0.000 A 
HETATM   30  C   UNL     1      31.412  43.918  56.863  1.00  0.00     0.001 A 
HETATM   31  C   UNL     1      30.371  44.109  55.950  1.00  0.00     0.014 A 
ENDBRANCH  24  26
ENDBRANCH  19  20
ENDBRANCH   1  19
TORSDOF 5
ENDMDL
MODEL 6
REMARK VINA RESULT:      -8.9      1.978      3.674
REMARK  5 active torsions:
REMARK  status: ('A' for Active; 'I' for Inactive)
REMARK    1  A    between atoms: C_8  and  N_9 
REMARK    2  A    between atoms: C_12  and  N_13 
REMARK    3  A    between atoms: N_13  and  C_15 
REMARK    4  A    between atoms: C_15  and  C_16 
REMARK    5  A    between atoms: C_20  and  C_21 
ROOT
HETATM    1  N   UNL     1      25.449  46.077  51.805  1.00  0.00    -0.065 N 
HETATM    2  H   UNL     1      24.441  46.217  51.917  1.00  0.00     0.280 HD
HETATM    3  C   UNL     1      26.144  47.120  52.659  1.00  0.00     0.270 C 
ENDROOT
BRANCH   1   4
HETATM    4  C   UNL     1      25.807  46.213  50.308  1.00  0.00     0.191 C 
HETATM    5  C   UNL     1      24.862  45.428  49.387  1.00  0.00     0.053 C 
HETATM    6  C   UNL     1      23.481  46.068  49.267  1.00  0.00     0.126 C 
HETATM    7  N   UNL     1      23.642  47.456  48.819  1.00  0.00    -0.366 N 
HETATM    8  C   UNL     1      24.439  48.304  49.711  1.00  0.00     0.126 C 
HETATM    9  C   UNL     1      25.830  47.692  49.868  1.00  0.00     0.053 C 
BRANCH   7  10
HETATM   10  C   UNL     1      22.477  48.048  48.313  1.00  0.00     0.129 A 
HETATM   11  N   UNL     1      22.199  49.331  48.606  1.00  0.00    -0.218 NA
HETATM   12  C   UNL     1      21.021  49.845  48.170  1.00  0.00     0.102 A 
HETATM   13  N   UNL     1      20.124  49.134  47.473  1.00  0.00    -0.348 N 
HETATM   14  C   UNL     1      20.694  51.261  48.525  1.00  0.00     0.091 C 
HETATM   15  C   UNL     1      20.375  47.855  47.160  1.00  0.00     0.010 A 
HETATM   16  H   UNL     1      19.246  49.572  47.195  1.00  0.00     0.167 HD
HETATM   17  C   UNL     1      19.347  47.073  46.407  1.00  0.00     0.068 C 
HETATM   18  C   UNL     1      21.576  47.283  47.580  1.00  0.00     0.075 A 
ENDBRANCH   7  10
ENDBRANCH   1   4
BRANCH   1  19
HETATM   19  C   UNL     1      25.724  44.689  52.422  1.00  0.00     0.295 C 
BRANCH  19  20
HETATM   20  C   UNL     1      27.068  44.455  53.043  1.00  0.00     0.082 A 
HETATM   21  N   UNL     1      28.067  43.902  52.344  1.00  0.00    -0.177 NA
HETATM   22  N   UNL     1      29.083  43.821  53.229  1.00  0.00    -0.277 N 
HETATM   23  H   UNL     1      29.970  43.431  52.925  1.00  0.00     0.189 HD
HETATM   24  C   UNL     1      28.775  44.311  54.471  1.00  0.00     0.062 A 
HETATM   25  C   UNL     1      27.468  44.746  54.369  1.00  0.00     0.062 A 
BRANCH  24  26
HETATM   26  C   UNL     1      29.719  44.328  55.586  1.00  0.00    -0.008 A 
HETATM   27  C   UNL     1      30.690  43.326  55.708  1.00  0.00     0.014 A 
HETATM   28  C   UNL     1      31.590  43.333  56.775  1.00  0.00     0.001 A 
HETATM   29  C   UNL     1      31.535  44.345  57.730  1.00  0.00     0.000 A 
HETATM   30  C   UNL     1      30.580  45.352  57.618  1.00  0.00     0.001 A 
HETATM   31  C   UNL     1      29.676  45.344  56.552  1.00  0.00     0.014 A 
ENDBRANCH  24  26
ENDBRANCH  19  20
ENDBRANCH   1  19
TORSDOF 5
ENDMDL
MODEL 7
REMARK VINA RESULT:      -8.8      1.544      2.486
REMARK  5 active torsions:
REMARK  status: ('A' for Active; 'I' for Inactive)
REMARK    1  A    between atoms: C_8  and  N_9 
REMARK    2  A    between atoms: C_12  and  N_13 
REMARK    3  A    between atoms: N_13  and  C_15 
REMARK    4  A    between atoms: C_15  and  C_16 
REMARK    5  A    between atoms: C_20  and  C_21 
ROOT
HETATM    1  N   UNL     1      26.037  43.806  51.740  1.00  0.00    -0.065 N 
HETATM    2  H   UNL     1      25.421  43.424  51.018  1.00  0.00     0.280 HD
HETATM    3  C   UNL     1      25.170  44.138  52.939  1.00  0.00     0.270 C 
ENDROOT
BRANCH   1   4
HETATM    4  C   UNL     1      26.755  45.051  51.174  1.00  0.00     0.191 C 
HETATM    5  C   UNL     1      26.661  45.160  49.644  1.00  0.00     0.053 C 
HETATM    6  C   UNL     1      25.269  45.560  49.162  1.00  0.00     0.126 C 
HETATM    7  N   UNL     1      24.885  46.815  49.818  1.00  0.00    -0.366 N 
HETATM    8  C   UNL     1      24.839  46.758  51.282  1.00  0.00     0.126 C 
HETATM    9  C   UNL     1      26.214  46.349  51.808  1.00  0.00     0.053 C 
BRANCH   7  10
HETATM   10  C   UNL     1      23.819  47.493  49.211  1.00  0.00     0.129 A 
HETATM   11  N   UNL     1      22.872  46.796  48.556  1.00  0.00    -0.218 NA
HETATM   12  C   UNL     1      21.902  47.490  47.908  1.00  0.00     0.102 A 
HETATM   13  N   UNL     1      21.851  48.829  47.881  1.00  0.00    -0.348 N 
HETATM   14  C   UNL     1      20.868  46.719  47.151  1.00  0.00     0.091 C 
HETATM   15  C   UNL     1      22.778  49.551  48.529  1.00  0.00     0.010 A 
HETATM   16  H   UNL     1      21.110  49.291  47.356  1.00  0.00     0.167 HD
HETATM   17  C   UNL     1      22.718  51.042  48.461  1.00  0.00     0.068 C 
HETATM   18  C   UNL     1      23.792  48.883  49.216  1.00  0.00     0.075 A 
ENDBRANCH   7  10
ENDBRANCH   1   4
BRANCH   1  19
HETATM   19  C   UNL     1      26.963  42.634  52.127  1.00  0.00     0.295 C 
BRANCH  19  20
HETATM   20  C   UNL     1      28.175  42.944  52.953  1.00  0.00     0.082 A 
HETATM   21  N   UNL     1      29.407  42.684  52.500  1.00  0.00    -0.177 NA
HETATM   22  N   UNL     1      30.216  43.057  53.514  1.00  0.00    -0.277 N 
HETATM   23  H   UNL     1      31.221  42.958  53.404  1.00  0.00     0.189 HD
HETATM   24  C   UNL     1      29.548  43.556  54.601  1.00  0.00     0.062 A 
HETATM   25  C   UNL     1      28.212  43.507  54.251  1.00  0.00     0.062 A 
BRANCH  24  26
HETATM   26  C   UNL     1      30.216  44.023  55.813  1.00  0.00    -0.008 A 
HETATM   27  C   UNL     1      31.212  43.245  56.418  1.00  0.00     0.014 A 
HETATM   28  C   UNL     1      31.850  43.683  57.580  1.00  0.00     0.001 A 
HETATM   29  C   UNL     1      31.505  44.907  58.149  1.00  0.00     0.000 A 
HETATM   30  C   UNL     1      30.523  45.695  57.554  1.00  0.00     0.001 A 
HETATM   31  C   UNL     1      29.881  45.256  56.392  1.00  0.00     0.014 A 
ENDBRANCH  24  26
ENDBRANCH  19  20
ENDBRANCH   1  19
TORSDOF 5
ENDMDL
MODEL 8
REMARK VINA RESULT:      -8.6      2.890      4.827
REMARK  5 active torsions:
REMARK  status: ('A' for Active; 'I' for Inactive)
REMARK    1  A    between atoms: C_8  and  N_9 
REMARK    2  A    between atoms: C_12  and  N_13 
REMARK    3  A    between atoms: N_13  and  C_15 
REMARK    4  A    between atoms: C_15  and  C_16 
REMARK    5  A    between atoms: C_20  and  C_21 
ROOT
HETATM    1  N   UNL     1      24.223  46.214  50.669  1.00  0.00    -0.065 N 
HETATM    2  H   UNL     1      23.289  46.251  51.085  1.00  0.00     0.280 HD
HETATM    3  C   UNL     1      25.115  47.125  51.491  1.00  0.00     0.270 C 
ENDROOT
BRANCH   1   4
HETATM    4  C   UNL     1      24.129  46.664  49.194  1.00  0.00     0.191 C 
HETATM    5  C   UNL     1      22.908  46.086  48.463  1.00  0.00     0.053 C 
HETATM    6  C   UNL     1      21.595  46.732  48.897  1.00  0.00     0.126 C 
HETATM    7  N   UNL     1      21.698  48.183  48.711  1.00  0.00    -0.366 N 
HETATM    8  C   UNL     1      22.774  48.828  49.472  1.00  0.00     0.126 C 
HETATM    9  C   UNL     1      24.110  48.202  49.075  1.00  0.00     0.053 C 
BRANCH   7  10
HETATM   10  C   UNL     1      20.474  48.864  48.711  1.00  0.00     0.129 A 
HETATM   11  N   UNL     1      19.323  48.168  48.708  1.00  0.00    -0.218 NA
HETATM   12  C   UNL     1      18.158  48.858  48.621  1.00  0.00     0.102 A 
HETATM   13  N   UNL     1      18.103  50.194  48.526  1.00  0.00    -0.348 N 
HETATM   14  C   UNL     1      16.879  48.084  48.582  1.00  0.00     0.091 C 
HETATM   15  C   UNL     1      19.233  50.917  48.532  1.00  0.00     0.010 A 
HETATM   16  H   UNL     1      17.197  50.652  48.439  1.00  0.00     0.167 HD
HETATM   17  C   UNL     1      19.148  52.402  48.397  1.00  0.00     0.068 C 
HETATM   18  C   UNL     1      20.456  50.252  48.628  1.00  0.00     0.075 A 
ENDBRANCH   7  10
ENDBRANCH   1   4
BRANCH   1  19
HETATM   19  C   UNL     1      24.692  44.760  50.884  1.00  0.00     0.295 C 
BRANCH  19  20
HETATM   20  C   UNL     1      25.494  44.459  52.114  1.00  0.00     0.082 A 
HETATM   21  N   UNL     1      24.903  44.039  53.240  1.00  0.00    -0.177 NA
HETATM   22  N   UNL     1      25.921  43.913  54.118  1.00  0.00    -0.277 N 
HETATM   23  H   UNL     1      25.720  43.595  55.062  1.00  0.00     0.189 HD
HETATM   24  C   UNL     1      27.147  44.227  53.593  1.00  0.00     0.062 A 
HETATM   25  C   UNL     1      26.895  44.572  52.280  1.00  0.00     0.062 A 
BRANCH  24  26
HETATM   26  C   UNL     1      28.391  44.161  54.357  1.00  0.00    -0.008 A 
HETATM   27  C   UNL     1      29.252  43.065  54.216  1.00  0.00     0.014 A 
HETATM   28  C   UNL     1      30.439  42.994  54.949  1.00  0.00     0.001 A 
HETATM   29  C   UNL     1      30.781  44.019  55.827  1.00  0.00     0.000 A 
HETATM   30  C   UNL     1      29.939  45.118  55.972  1.00  0.00     0.001 A 
HETATM   31  C   UNL     1      28.749  45.189  55.241  1.00  0.00     0.014 A 
ENDBRANCH  24  26
ENDBRANCH  19  20
ENDBRANCH   1  19
TORSDOF 5
ENDMDL
MODEL 9
REMARK VINA RESULT:      -8.6      2.472      9.115
REMARK  5 active torsions:
REMARK  status: ('A' for Active; 'I' for Inactive)
REMARK    1  A    between atoms: C_8  and  N_9 
REMARK    2  A    between atoms: C_12  and  N_13 
REMARK    3  A    between atoms: N_13  and  C_15 
REMARK    4  A    between atoms: C_15  and  C_16 
REMARK    5  A    between atoms: C_20  and  C_21 
ROOT
HETATM    1  N   UNL     1      23.709  44.379  49.729  1.00  0.00    -0.065 N 
HETATM    2  H   UNL     1      23.647  44.985  50.551  1.00  0.00     0.280 HD
HETATM    3  C   UNL     1      22.640  43.313  49.878  1.00  0.00     0.270 C 
ENDROOT
BRANCH   1   4
HETATM    4  C   UNL     1      25.130  43.777  49.662  1.00  0.00     0.191 C 
HETATM    5  C   UNL     1      26.233  44.841  49.559  1.00  0.00     0.053 C 
HETATM    6  C   UNL     1      26.455  45.595  50.867  1.00  0.00     0.126 C 
HETATM    7  N   UNL     1      26.739  44.624  51.929  1.00  0.00    -0.366 N 
HETATM    8  C   UNL     1      25.678  43.641  52.168  1.00  0.00     0.126 C 
HETATM    9  C   UNL     1      25.415  42.869  50.876  1.00  0.00     0.053 C 
BRANCH   7  10
HETATM   10  C   UNL     1      27.322  45.168  53.082  1.00  0.00     0.129 A 
HETATM   11  N   UNL     1      28.340  44.526  53.682  1.00  0.00    -0.218 NA
HETATM   12  C   UNL     1      28.822  45.037  54.843  1.00  0.00     0.102 A 
HETATM   13  N   UNL     1      28.327  46.140  55.420  1.00  0.00    -0.348 N 
HETATM   14  C   UNL     1      29.930  44.305  55.531  1.00  0.00     0.091 C 
HETATM   15  C   UNL     1      27.316  46.806  54.843  1.00  0.00     0.010 A 
HETATM   16  H   UNL     1      28.717  46.460  56.306  1.00  0.00     0.167 HD
HETATM   17  C   UNL     1      26.761  48.017  55.520  1.00  0.00     0.068 C 
HETATM   18  C   UNL     1      26.790  46.324  53.644  1.00  0.00     0.075 A 
ENDBRANCH   7  10
ENDBRANCH   1   4
BRANCH   1  19
HETATM   19  C   UNL     1      23.322  45.284  48.541  1.00  0.00     0.295 C 
BRANCH  19  20
HETATM   20  C   UNL     1      22.907  46.692  48.842  1.00  0.00     0.082 A 
HETATM   21  N   UNL     1      23.605  47.453  49.694  1.00  0.00    -0.177 NA
HETATM   22  N   UNL     1      22.919  48.615  49.736  1.00  0.00    -0.277 N 
HETATM   23  H   UNL     1      23.264  49.369  50.323  1.00  0.00     0.189 HD
HETATM   24  C   UNL     1      21.809  48.632  48.932  1.00  0.00     0.062 A 
HETATM   25  C   UNL     1      21.790  47.391  48.326  1.00  0.00     0.062 A 
BRANCH  24  26
HETATM   26  C   UNL     1      20.917  49.783  48.816  1.00  0.00    -0.008 A 
HETATM   27  C   UNL     1      20.584  50.539  49.947  1.00  0.00     0.014 A 
HETATM   28  C   UNL     1      19.726  51.636  49.843  1.00  0.00     0.001 A 
HETATM   29  C   UNL     1      19.197  51.995  48.605  1.00  0.00     0.000 A 
HETATM   30  C   UNL     1      19.526  51.258  47.471  1.00  0.00     0.001 A 
HETATM   31  C   UNL     1      20.382  50.157  47.575  1.00  0.00     0.014 A 
ENDBRANCH  24  26
ENDBRANCH  19  20
ENDBRANCH   1  19
TORSDOF 5
ENDMDL
MODEL 10
REMARK VINA RESULT:      -8.5      2.246      3.601
REMARK  5 active torsions:
REMARK  status: ('A' for Active; 'I' for Inactive)
REMARK    1  A    between atoms: C_8  and  N_9 
REMARK    2  A    between atoms: C_12  and  N_13 
REMARK    3  A    between atoms: N_13  and  C_15 
REMARK    4  A    between atoms: C_15  and  C_16 
REMARK    5  A    between atoms: C_20  and  C_21 
ROOT
HETATM    1  N   UNL     1      25.810  45.092  51.762  1.00  0.00    -0.065 N 
HETATM    2  H   UNL     1      26.541  44.454  52.088  1.00  0.00     0.280 HD
HETATM    3  C   UNL     1      24.508  44.314  51.751  1.00  0.00     0.270 C 
ENDROOT
BRANCH   1   4
HETATM    4  C   UNL     1      26.193  45.611  50.358  1.00  0.00     0.191 C 
HETATM    5  C   UNL     1      25.324  45.022  49.237  1.00  0.00     0.053 C 
HETATM    6  C   UNL     1      23.908  45.591  49.223  1.00  0.00     0.126 C 
HETATM    7  N   UNL     1      23.987  47.053  49.133  1.00  0.00    -0.366 N 
HETATM    8  C   UNL     1      24.706  47.701  50.234  1.00  0.00     0.126 C 
HETATM    9  C   UNL     1      26.130  47.151  50.292  1.00  0.00     0.053 C 
BRANCH   7  10
HETATM   10  C   UNL     1      22.798  47.682  48.740  1.00  0.00     0.129 A 
HETATM   11  N   UNL     1      21.936  47.037  47.934  1.00  0.00    -0.218 NA
HETATM   12  C   UNL     1      20.837  47.708  47.506  1.00  0.00     0.102 A 
HETATM   13  N   UNL     1      20.579  48.980  47.837  1.00  0.00    -0.348 N 
HETATM   14  C   UNL     1      19.895  47.004  46.582  1.00  0.00     0.091 C 
HETATM   15  C   UNL     1      21.417  49.649  48.643  1.00  0.00     0.010 A 
HETATM   16  H   UNL     1      19.749  49.437  47.462  1.00  0.00     0.167 HD
HETATM   17  C   UNL     1      21.124  51.076  48.976  1.00  0.00     0.068 C 
HETATM   18  C   UNL     1      22.558  48.999  49.116  1.00  0.00     0.075 A 
ENDBRANCH   7  10
ENDBRANCH   1   4
BRANCH   1  19
HETATM   19  C   UNL     1      25.714  46.174  52.859  1.00  0.00     0.295 C 
BRANCH  19  20
HETATM   20  C   UNL     1      26.837  46.267  53.847  1.00  0.00     0.082 A 
HETATM   21  N   UNL     1      27.292  47.454  54.267  1.00  0.00    -0.177 NA
HETATM   22  N   UNL     1      28.305  47.141  55.103  1.00  0.00    -0.277 N 
HETATM   23  H   UNL     1      28.815  47.891  55.561  1.00  0.00     0.189 HD
HETATM   24  C   UNL     1      28.511  45.794  55.243  1.00  0.00     0.062 A 
HETATM   25  C   UNL     1      27.552  45.202  54.443  1.00  0.00     0.062 A 
BRANCH  24  26
HETATM   26  C   UNL     1      29.549  45.222  56.097  1.00  0.00    -0.008 A 
HETATM   27  C   UNL     1      30.313  44.135  55.653  1.00  0.00     0.014 A 
HETATM   28  C   UNL     1      31.303  43.580  56.467  1.00  0.00     0.001 A 
HETATM   29  C   UNL     1      31.545  44.110  57.732  1.00  0.00     0.000 A 
HETATM   30  C   UNL     1      30.799  45.196  58.184  1.00  0.00     0.001 A 
HETATM   31  C   UNL     1      29.806  45.750  57.370  1.00  0.00     0.014 A 
ENDBRANCH  24  26
ENDBRANCH  19  20
ENDBRANCH   1  19
TORSDOF 5
ENDMDL
