MODEL 1
REMARK VINA RESULT:      -9.9      0.000      0.000
REMARK  9 active torsions:
REMARK  status: ('A' for Active; 'I' for Inactive)
REMARK    1  A    between atoms: O_2  and  C_3 
REMARK    2  A    between atoms: C_6  and  N_7 
REMARK    3  A    between atoms: N_10  and  C_12 
REMARK    4  A    between atoms: C_12  and  C_13 
REMARK    5  A    between atoms: C_13  and  C_14 
REMARK    6  A    between atoms: C_14  and  N_15 
REMARK       I    between atoms: N_15  and  C_16 
REMARK    7  A    between atoms: C_16  and  C_17 
REMARK    8  A    between atoms: C_17  and  C_18 
REMARK    9  A    between atoms: C_18  and  C_19 
ROOT
HETATM    1  N   UNL     1      24.966  48.959  48.981  1.00  0.00    -0.361 N 
HETATM    2  C   UNL     1      24.957  49.952  48.022  1.00  0.00     0.217 C 
HETATM    3  O   UNL     1      25.953  50.264  47.374  1.00  0.00    -0.274 OA
HETATM    4  H   UNL     1      24.172  48.913  49.611  1.00  0.00     0.162 HD
ENDROOT
BRANCH   1   5
HETATM    5  C   UNL     1      26.223  48.429  49.468  1.00  0.00     0.124 C 
BRANCH   5   6
HETATM    6  C   UNL     1      26.025  47.348  50.530  1.00  0.00     0.047 C 
BRANCH   6   7
HETATM    7  C   UNL     1      25.691  46.015  49.875  1.00  0.00     0.236 C 
BRANCH   7   8
HETATM    8  N   UNL     1      25.759  44.897  50.893  1.00  0.00    -0.068 N 
HETATM    9  C   UNL     1      26.995  43.998  50.725  1.00  0.00     0.254 C 
HETATM   10  C   UNL     1      26.976  42.860  51.770  1.00  0.00     0.150 C 
HETATM   11  N   UNL     1      26.841  43.384  53.142  1.00  0.00    -0.378 N 
HETATM   12  C   UNL     1      25.673  44.268  53.339  1.00  0.00     0.150 C 
HETATM   13  C   UNL     1      25.696  45.435  52.329  1.00  0.00     0.254 C 
HETATM   14  H   UNL     1      24.932  44.299  50.768  1.00  0.00     0.280 HD
BRANCH  11  15
HETATM   15  C   UNL     1      27.971  43.645  53.920  1.00  0.00     0.030 A 
HETATM   16  C   UNL     1      29.077  42.789  53.987  1.00  0.00     0.032 A 
HETATM   17  C   UNL     1      30.194  43.094  54.779  1.00  0.00     0.039 A 
HETATM   18  C   UNL     1      30.236  44.257  55.542  1.00  0.00     0.068 A 
HETATM   19  C   UNL     1      29.137  45.105  55.523  1.00  0.00     0.039 A 
HETATM   20  C   UNL     1      28.023  44.795  54.728  1.00  0.00     0.032 A 
BRANCH  18  21
HETATM   21  O   UNL     1      31.384  44.435  56.259  1.00  0.00    -0.356 OA
HETATM   22  C   UNL     1      31.769  43.381  57.134  1.00  0.00     0.210 C 
ENDBRANCH  18  21
ENDBRANCH  11  15
ENDBRANCH   7   8
ENDBRANCH   6   7
ENDBRANCH   5   6
ENDBRANCH   1   5
BRANCH   2  23
HETATM   23  C   UNL     1      23.629  50.660  47.859  1.00  0.00     0.105 C 
BRANCH  23  24
HETATM   24  C   UNL     1      22.957  51.021  49.190  1.00  0.00     0.046 C 
BRANCH  24  25
HETATM   25  C   UNL     1      21.596  50.373  49.455  1.00  0.00     0.203 A 
HETATM   26  N   UNL     1      21.650  48.913  49.230  1.00  0.00    -0.257 NA
HETATM   27  C   UNL     1      20.685  48.684  48.391  1.00  0.00     0.147 A 
HETATM   28  N   UNL     1      19.960  49.751  47.942  1.00  0.00    -0.239 N 
HETATM   29  C   UNL     1      20.344  47.347  47.896  1.00  0.00     0.037 A 
HETATM   30  C   UNL     1      18.936  49.664  46.994  1.00  0.00     0.187 A 
HETATM   31  C   UNL     1      20.481  50.873  48.555  1.00  0.00     0.257 A 
HETATM   32  S   UNL     1      18.062  50.928  46.322  1.00  0.00    -0.040 SA
HETATM   33  N   UNL     1      18.622  48.394  46.563  1.00  0.00    -0.332 N 
HETATM   34  C   UNL     1      19.295  47.242  46.986  1.00  0.00     0.048 A 
HETATM   35  H   UNL     1      17.866  48.309  45.892  1.00  0.00     0.168 HD
HETATM   36  C   UNL     1      18.921  45.993  46.494  1.00  0.00     0.030 A 
HETATM   37  C   UNL     1      19.605  44.852  46.921  1.00  0.00     0.002 A 
HETATM   38  C   UNL     1      20.658  44.960  47.832  1.00  0.00     0.001 A 
HETATM   39  C   UNL     1      21.031  46.210  48.324  1.00  0.00     0.017 A 
HETATM   40  O   UNL     1      20.184  52.052  48.429  1.00  0.00    -0.270 OA
ENDBRANCH  24  25
ENDBRANCH  23  24
ENDBRANCH   2  23
TORSDOF 9
ENDMDL
MODEL 2
REMARK VINA RESULT:      -9.8      3.420     11.611
REMARK  9 active torsions:
REMARK  status: ('A' for Active; 'I' for Inactive)
REMARK    1  A    between atoms: O_2  and  C_3 
REMARK    2  A    between atoms: C_6  and  N_7 
REMARK    3  A    between atoms: N_10  and  C_12 
REMARK    4  A    between atoms: C_12  and  C_13 
REMARK    5  A    between atoms: C_13  and  C_14 
REMARK    6  A    between atoms: C_14  and  N_15 
REMARK       I    between atoms: N_15  and  C_16 
REMARK    7  A    between atoms: C_16  and  C_17 
REMARK    8  A    between atoms: C_17  and  C_18 
REMARK    9  A    between atoms: C_18  and  C_19 
ROOT
HETATM    1  N   UNL     1      25.397  48.436  49.610  1.00  0.00    -0.361 N 
HETATM    2  C   UNL     1      26.543  47.667  49.561  1.00  0.00     0.217 C 
HETATM    3  O   UNL     1      27.491  47.928  48.823  1.00  0.00    -0.274 OA
HETATM    4  H   UNL     1      24.590  48.038  50.077  1.00  0.00     0.162 HD
ENDROOT
BRANCH   1   5
HETATM    5  C   UNL     1      25.143  49.430  48.588  1.00  0.00     0.124 C 
BRANCH   5   6
HETATM    6  C   UNL     1      23.683  49.440  48.138  1.00  0.00     0.047 C 
BRANCH   6   7
HETATM    7  C   UNL     1      22.913  48.310  48.807  1.00  0.00     0.236 C 
BRANCH   7   8
HETATM    8  N   UNL     1      21.727  48.861  49.571  1.00  0.00    -0.068 N 
HETATM    9  C   UNL     1      21.606  50.391  49.480  1.00  0.00     0.254 C 
HETATM   10  C   UNL     1      20.401  50.883  50.312  1.00  0.00     0.150 C 
HETATM   11  N   UNL     1      19.155  50.193  49.925  1.00  0.00    -0.378 N 
HETATM   12  C   UNL     1      19.238  48.719  49.982  1.00  0.00     0.150 C 
HETATM   13  C   UNL     1      20.414  48.206  49.123  1.00  0.00     0.254 C 
HETATM   14  H   UNL     1      21.848  48.626  50.564  1.00  0.00     0.280 HD
BRANCH  11  15
HETATM   15  C   UNL     1      18.305  50.743  48.963  1.00  0.00     0.030 A 
HETATM   16  C   UNL     1      17.014  50.262  48.708  1.00  0.00     0.032 A 
HETATM   17  C   UNL     1      16.192  50.849  47.735  1.00  0.00     0.039 A 
HETATM   18  C   UNL     1      16.638  51.925  46.973  1.00  0.00     0.068 A 
HETATM   19  C   UNL     1      17.927  52.398  47.180  1.00  0.00     0.039 A 
HETATM   20  C   UNL     1      18.744  51.808  48.156  1.00  0.00     0.032 A 
BRANCH  18  21
HETATM   21  O   UNL     1      15.735  52.404  46.069  1.00  0.00    -0.356 OA
HETATM   22  C   UNL     1      14.677  53.209  46.576  1.00  0.00     0.210 C 
ENDBRANCH  18  21
ENDBRANCH  11  15
ENDBRANCH   7   8
ENDBRANCH   6   7
ENDBRANCH   5   6
ENDBRANCH   1   5
BRANCH   2  23
HETATM   23  C   UNL     1      26.524  46.448  50.457  1.00  0.00     0.105 C 
BRANCH  23  24
HETATM   24  C   UNL     1      25.446  46.502  51.547  1.00  0.00     0.046 C 
BRANCH  24  25
HETATM   25  C   UNL     1      25.575  45.474  52.673  1.00  0.00     0.203 A 
HETATM   26  N   UNL     1      26.648  45.850  53.617  1.00  0.00    -0.257 NA
HETATM   27  C   UNL     1      27.410  44.799  53.670  1.00  0.00     0.147 A 
HETATM   28  N   UNL     1      27.080  43.730  52.887  1.00  0.00    -0.239 N 
HETATM   29  C   UNL     1      28.604  44.707  54.515  1.00  0.00     0.037 A 
HETATM   30  C   UNL     1      27.838  42.558  52.795  1.00  0.00     0.187 A 
HETATM   31  C   UNL     1      25.932  44.075  52.204  1.00  0.00     0.257 A 
HETATM   32  S   UNL     1      27.557  41.242  51.795  1.00  0.00    -0.040 SA
HETATM   33  N   UNL     1      28.942  42.490  53.616  1.00  0.00    -0.332 N 
HETATM   34  C   UNL     1      29.342  43.526  54.467  1.00  0.00     0.048 A 
HETATM   35  H   UNL     1      29.492  41.638  53.580  1.00  0.00     0.168 HD
HETATM   36  C   UNL     1      30.478  43.382  55.260  1.00  0.00     0.030 A 
HETATM   37  C   UNL     1      30.869  44.427  56.101  1.00  0.00     0.002 A 
HETATM   38  C   UNL     1      30.129  45.610  56.146  1.00  0.00     0.001 A 
HETATM   39  C   UNL     1      28.991  45.754  55.352  1.00  0.00     0.017 A 
HETATM   40  O   UNL     1      25.297  43.456  51.361  1.00  0.00    -0.270 OA
ENDBRANCH  24  25
ENDBRANCH  23  24
ENDBRANCH   2  23
TORSDOF 9
ENDMDL
MODEL 3
REMARK VINA RESULT:      -9.8      3.733     11.910
REMARK  9 active torsions:
REMARK  status: ('A' for Active; 'I' for Inactive)
REMARK    1  A    between atoms: O_2  and  C_3 
REMARK    2  A    between atoms: C_6  and  N_7 
REMARK    3  A    between atoms: N_10  and  C_12 
REMARK    4  A    between atoms: C_12  and  C_13 
REMARK    5  A    between atoms: C_13  and  C_14 
REMARK    6  A    between atoms: C_14  and  N_15 
REMARK       I    between atoms: N_15  and  C_16 
REMARK    7  A    between atoms: C_16  and  C_17 
REMARK    8  A    between atoms: C_17  and  C_18 
REMARK    9  A    between atoms: C_18  and  C_19 
ROOT
HETATM    1  N   UNL     1      24.057  44.727  49.268  1.00  0.00    -0.361 N 
HETATM    2  C   UNL     1      23.850  43.742  50.212  1.00  0.00     0.217 C 
HETATM    3  O   UNL     1      22.732  43.331  50.514  1.00  0.00    -0.274 OA
HETATM    4  H   UNL     1      24.977  45.153  49.235  1.00  0.00     0.162 HD
ENDROOT
BRANCH   1   5
HETATM    5  C   UNL     1      22.946  45.522  48.790  1.00  0.00     0.124 C 
BRANCH   5   6
HETATM    6  C   UNL     1      23.116  47.007  49.105  1.00  0.00     0.047 C 
BRANCH   6   7
HETATM    7  C   UNL     1      22.034  47.825  48.412  1.00  0.00     0.236 C 
BRANCH   7   8
HETATM    8  N   UNL     1      21.188  48.554  49.434  1.00  0.00    -0.068 N 
HETATM    9  C   UNL     1      21.250  50.083  49.292  1.00  0.00     0.254 C 
HETATM   10  C   UNL     1      20.397  50.758  50.388  1.00  0.00     0.150 C 
HETATM   11  N   UNL     1      19.013  50.247  50.392  1.00  0.00    -0.378 N 
HETATM   12  C   UNL     1      18.912  48.777  50.509  1.00  0.00     0.150 C 
HETATM   13  C   UNL     1      19.727  48.085  49.395  1.00  0.00     0.254 C 
HETATM   14  H   UNL     1      21.545  48.323  50.369  1.00  0.00     0.280 HD
BRANCH  11  15
HETATM   15  C   UNL     1      18.012  50.894  49.665  1.00  0.00     0.030 A 
HETATM   16  C   UNL     1      17.293  50.285  48.628  1.00  0.00     0.032 A 
HETATM   17  C   UNL     1      16.291  50.971  47.927  1.00  0.00     0.039 A 
HETATM   18  C   UNL     1      15.984  52.295  48.228  1.00  0.00     0.068 A 
HETATM   19  C   UNL     1      16.707  52.935  49.226  1.00  0.00     0.039 A 
HETATM   20  C   UNL     1      17.706  52.242  49.925  1.00  0.00     0.032 A 
BRANCH  18  21
HETATM   21  O   UNL     1      14.984  52.840  47.476  1.00  0.00    -0.356 OA
HETATM   22  C   UNL     1      14.295  53.956  48.028  1.00  0.00     0.210 C 
ENDBRANCH  18  21
ENDBRANCH  11  15
ENDBRANCH   7   8
ENDBRANCH   6   7
ENDBRANCH   5   6
ENDBRANCH   1   5
BRANCH   2  23
HETATM   23  C   UNL     1      25.109  43.234  50.882  1.00  0.00     0.105 C 
BRANCH  23  24
HETATM   24  C   UNL     1      25.360  43.848  52.265  1.00  0.00     0.046 C 
BRANCH  24  25
HETATM   25  C   UNL     1      26.588  44.753  52.387  1.00  0.00     0.203 A 
HETATM   26  N   UNL     1      27.697  44.055  53.072  1.00  0.00    -0.257 NA
HETATM   27  C   UNL     1      28.022  44.851  54.046  1.00  0.00     0.147 A 
HETATM   28  N   UNL     1      27.302  46.002  54.198  1.00  0.00    -0.239 N 
HETATM   29  C   UNL     1      29.110  44.574  54.988  1.00  0.00     0.037 A 
HETATM   30  C   UNL     1      27.499  46.921  55.234  1.00  0.00     0.187 A 
HETATM   31  C   UNL     1      26.355  46.016  53.195  1.00  0.00     0.257 A 
HETATM   32  S   UNL     1      26.604  48.304  55.549  1.00  0.00    -0.040 SA
HETATM   33  N   UNL     1      28.541  46.647  56.093  1.00  0.00    -0.332 N 
HETATM   34  C   UNL     1      29.345  45.506  55.997  1.00  0.00     0.048 A 
HETATM   35  H   UNL     1      28.713  47.314  56.837  1.00  0.00     0.168 HD
HETATM   36  C   UNL     1      30.375  45.297  56.912  1.00  0.00     0.030 A 
HETATM   37  C   UNL     1      31.167  44.151  56.809  1.00  0.00     0.002 A 
HETATM   38  C   UNL     1      30.928  43.217  55.797  1.00  0.00     0.001 A 
HETATM   39  C   UNL     1      29.897  43.427  54.881  1.00  0.00     0.017 A 
HETATM   40  O   UNL     1      25.465  46.821  52.960  1.00  0.00    -0.270 OA
ENDBRANCH  24  25
ENDBRANCH  23  24
ENDBRANCH   2  23
TORSDOF 9
ENDMDL
MODEL 4
REMARK VINA RESULT:      -9.7      3.537     11.694
REMARK  9 active torsions:
REMARK  status: ('A' for Active; 'I' for Inactive)
REMARK    1  A    between atoms: O_2  and  C_3 
REMARK    2  A    between atoms: C_6  and  N_7 
REMARK    3  A    between atoms: N_10  and  C_12 
REMARK    4  A    between atoms: C_12  and  C_13 
REMARK    5  A    between atoms: C_13  and  C_14 
REMARK    6  A    between atoms: C_14  and  N_15 
REMARK       I    between atoms: N_15  and  C_16 
REMARK    7  A    between atoms: C_16  and  C_17 
REMARK    8  A    between atoms: C_17  and  C_18 
REMARK    9  A    between atoms: C_18  and  C_19 
ROOT
HETATM    1  N   UNL     1      24.838  48.267  49.531  1.00  0.00    -0.361 N 
HETATM    2  C   UNL     1      26.126  47.962  49.924  1.00  0.00     0.217 C 
HETATM    3  O   UNL     1      27.105  48.613  49.568  1.00  0.00    -0.274 OA
HETATM    4  H   UNL     1      24.124  47.565  49.690  1.00  0.00     0.162 HD
ENDROOT
BRANCH   1   5
HETATM    5  C   UNL     1      24.610  49.204  48.450  1.00  0.00     0.124 C 
BRANCH   5   6
HETATM    6  C   UNL     1      23.858  50.451  48.911  1.00  0.00     0.047 C 
BRANCH   6   7
HETATM    7  C   UNL     1      22.592  50.643  48.087  1.00  0.00     0.236 C 
BRANCH   7   8
HETATM    8  N   UNL     1      21.374  50.651  48.986  1.00  0.00    -0.068 N 
HETATM    9  C   UNL     1      20.271  51.605  48.501  1.00  0.00     0.254 C 
HETATM   10  C   UNL     1      19.079  51.590  49.484  1.00  0.00     0.150 C 
HETATM   11  N   UNL     1      18.582  50.221  49.714  1.00  0.00    -0.378 N 
HETATM   12  C   UNL     1      19.618  49.268  50.164  1.00  0.00     0.150 C 
HETATM   13  C   UNL     1      20.800  49.240  49.171  1.00  0.00     0.254 C 
HETATM   14  H   UNL     1      21.665  50.974  49.917  1.00  0.00     0.280 HD
BRANCH  11  15
HETATM   15  C   UNL     1      17.537  49.703  48.945  1.00  0.00     0.030 A 
HETATM   16  C   UNL     1      16.655  50.500  48.204  1.00  0.00     0.032 A 
HETATM   17  C   UNL     1      15.623  49.936  47.440  1.00  0.00     0.039 A 
HETATM   18  C   UNL     1      15.428  48.559  47.403  1.00  0.00     0.068 A 
HETATM   19  C   UNL     1      16.265  47.748  48.158  1.00  0.00     0.039 A 
HETATM   20  C   UNL     1      17.297  48.318  48.919  1.00  0.00     0.032 A 
BRANCH  18  21
HETATM   21  O   UNL     1      14.394  48.144  46.615  1.00  0.00    -0.356 OA
HETATM   22  C   UNL     1      13.862  49.090  45.695  1.00  0.00     0.210 C 
ENDBRANCH  18  21
ENDBRANCH  11  15
ENDBRANCH   7   8
ENDBRANCH   6   7
ENDBRANCH   5   6
ENDBRANCH   1   5
BRANCH   2  23
HETATM   23  C   UNL     1      26.244  46.731  50.798  1.00  0.00     0.105 C 
BRANCH  23  24
HETATM   24  C   UNL     1      25.394  46.798  52.073  1.00  0.00     0.046 C 
BRANCH  24  25
HETATM   25  C   UNL     1      25.577  45.647  53.065  1.00  0.00     0.203 A 
HETATM   26  N   UNL     1      26.698  45.917  53.990  1.00  0.00    -0.257 NA
HETATM   27  C   UNL     1      27.459  44.869  53.883  1.00  0.00     0.147 A 
HETATM   28  N   UNL     1      27.087  43.895  53.000  1.00  0.00    -0.239 N 
HETATM   29  C   UNL     1      28.694  44.685  54.650  1.00  0.00     0.037 A 
HETATM   30  C   UNL     1      27.837  42.745  52.736  1.00  0.00     0.187 A 
HETATM   31  C   UNL     1      25.907  44.313  52.420  1.00  0.00     0.257 A 
HETATM   32  S   UNL     1      27.503  41.551  51.607  1.00  0.00    -0.040 SA
HETATM   33  N   UNL     1      28.981  42.587  53.487  1.00  0.00    -0.332 N 
HETATM   34  C   UNL     1      29.426  43.520  54.429  1.00  0.00     0.048 A 
HETATM   35  H   UNL     1      29.526  41.747  53.325  1.00  0.00     0.168 HD
HETATM   36  C   UNL     1      30.601  43.289  55.142  1.00  0.00     0.030 A 
HETATM   37  C   UNL     1      31.036  44.232  56.076  1.00  0.00     0.002 A 
HETATM   38  C   UNL     1      30.302  45.400  56.295  1.00  0.00     0.001 A 
HETATM   39  C   UNL     1      29.125  45.631  55.582  1.00  0.00     0.017 A 
HETATM   40  O   UNL     1      25.228  43.793  51.545  1.00  0.00    -0.270 OA
ENDBRANCH  24  25
ENDBRANCH  23  24
ENDBRANCH   2  23
TORSDOF 9
ENDMDL
MODEL 5
REMARK VINA RESULT:      -9.5      3.359     11.023
REMARK  9 active torsions:
REMARK  status: ('A' for Active; 'I' for Inactive)
REMARK    1  A    between atoms: O_2  and  C_3 
REMARK    2  A    between atoms: C_6  and  N_7 
REMARK    3  A    between atoms: N_10  and  C_12 
REMARK    4  A    between atoms: C_12  and  C_13 
REMARK    5  A    between atoms: C_13  and  C_14 
REMARK    6  A    between atoms: C_14  and  N_15 
REMARK       I    between atoms: N_15  and  C_16 
REMARK    7  A    between atoms: C_16  and  C_17 
REMARK    8  A    between atoms: C_17  and  C_18 
REMARK    9  A    between atoms: C_18  and  C_19 
ROOT
HETATM    1  N   UNL     1      26.197  42.482  50.133  1.00  0.00    -0.361 N 
HETATM    2  C   UNL     1      27.307  41.800  49.675  1.00  0.00     0.217 C 
HETATM    3  O   UNL     1      27.599  41.725  48.484  1.00  0.00    -0.274 OA
HETATM    4  H   UNL     1      25.913  42.316  51.093  1.00  0.00     0.162 HD
ENDROOT
BRANCH   1   5
HETATM    5  C   UNL     1      25.169  42.905  49.206  1.00  0.00     0.124 C 
BRANCH   5   6
HETATM    6  C   UNL     1      23.787  42.379  49.592  1.00  0.00     0.047 C 
BRANCH   6   7
HETATM    7  C   UNL     1      22.882  43.526  50.019  1.00  0.00     0.236 C 
BRANCH   7   8
HETATM    8  N   UNL     1      23.140  44.748  49.164  1.00  0.00    -0.068 N 
HETATM    9  C   UNL     1      21.918  45.178  48.337  1.00  0.00     0.254 C 
HETATM   10  C   UNL     1      22.265  46.403  47.463  1.00  0.00     0.150 C 
HETATM   11  N   UNL     1      22.818  47.507  48.270  1.00  0.00    -0.378 N 
HETATM   12  C   UNL     1      23.985  47.129  49.094  1.00  0.00     0.150 C 
HETATM   13  C   UNL     1      23.643  45.930  50.005  1.00  0.00     0.254 C 
HETATM   14  H   UNL     1      23.890  44.522  48.499  1.00  0.00     0.280 HD
BRANCH  11  15
HETATM   15  C   UNL     1      21.985  48.508  48.775  1.00  0.00     0.030 A 
HETATM   16  C   UNL     1      20.606  48.343  48.964  1.00  0.00     0.032 A 
HETATM   17  C   UNL     1      19.808  49.374  49.479  1.00  0.00     0.039 A 
HETATM   18  C   UNL     1      20.357  50.610  49.808  1.00  0.00     0.068 A 
HETATM   19  C   UNL     1      21.714  50.813  49.596  1.00  0.00     0.039 A 
HETATM   20  C   UNL     1      22.508  49.776  49.082  1.00  0.00     0.032 A 
BRANCH  18  21
HETATM   21  O   UNL     1      19.470  51.520  50.306  1.00  0.00    -0.356 OA
HETATM   22  C   UNL     1      18.115  51.395  49.892  1.00  0.00     0.210 C 
ENDBRANCH  18  21
ENDBRANCH  11  15
ENDBRANCH   7   8
ENDBRANCH   6   7
ENDBRANCH   5   6
ENDBRANCH   1   5
BRANCH   2  23
HETATM   23  C   UNL     1      28.116  41.113  50.754  1.00  0.00     0.105 C 
BRANCH  23  24
HETATM   24  C   UNL     1      27.962  41.752  52.139  1.00  0.00     0.046 C 
BRANCH  24  25
HETATM   25  C   UNL     1      28.778  43.023  52.389  1.00  0.00     0.203 A 
HETATM   26  N   UNL     1      29.679  42.857  53.548  1.00  0.00    -0.257 NA
HETATM   27  C   UNL     1      29.394  43.863  54.319  1.00  0.00     0.147 A 
HETATM   28  N   UNL     1      28.405  44.716  53.920  1.00  0.00    -0.239 N 
HETATM   29  C   UNL     1      30.071  44.124  55.593  1.00  0.00     0.037 A 
HETATM   30  C   UNL     1      27.951  45.803  54.674  1.00  0.00     0.187 A 
HETATM   31  C   UNL     1      27.942  44.249  52.707  1.00  0.00     0.257 A 
HETATM   32  S   UNL     1      26.685  46.839  54.304  1.00  0.00    -0.040 SA
HETATM   33  N   UNL     1      28.619  46.037  55.856  1.00  0.00    -0.332 N 
HETATM   34  C   UNL     1      29.660  45.231  56.331  1.00  0.00     0.048 A 
HETATM   35  H   UNL     1      28.319  46.834  56.405  1.00  0.00     0.168 HD
HETATM   36  C   UNL     1      30.279  45.531  57.543  1.00  0.00     0.030 A 
HETATM   37  C   UNL     1      31.313  44.714  58.009  1.00  0.00     0.002 A 
HETATM   38  C   UNL     1      31.723  43.603  57.268  1.00  0.00     0.001 A 
HETATM   39  C   UNL     1      31.103  43.304  56.055  1.00  0.00     0.017 A 
HETATM   40  O   UNL     1      27.036  44.660  51.995  1.00  0.00    -0.270 OA
ENDBRANCH  24  25
ENDBRANCH  23  24
ENDBRANCH   2  23
TORSDOF 9
ENDMDL
MODEL 6
REMARK VINA RESULT:      -9.5      3.505     11.975
REMARK  9 active torsions:
REMARK  status: ('A' for Active; 'I' for Inactive)
REMARK    1  A    between atoms: O_2  and  C_3 
REMARK    2  A    between atoms: C_6  and  N_7 
REMARK    3  A    between atoms: N_10  and  C_12 
REMARK    4  A    between atoms: C_12  and  C_13 
REMARK    5  A    between atoms: C_13  and  C_14 
REMARK    6  A    between atoms: C_14  and  N_15 
REMARK       I    between atoms: N_15  and  C_16 
REMARK    7  A    between atoms: C_16  and  C_17 
REMARK    8  A    between atoms: C_17  and  C_18 
REMARK    9  A    between atoms: C_18  and  C_19 
ROOT
HETATM    1  N   UNL     1      24.013  46.760  50.225  1.00  0.00    -0.361 N 
HETATM    2  C   UNL     1      24.804  45.664  49.949  1.00  0.00     0.217 C 
HETATM    3  O   UNL     1      25.694  45.679  49.102  1.00  0.00    -0.274 OA
HETATM    4  H   UNL     1      23.174  46.603  50.774  1.00  0.00     0.162 HD
ENDROOT
BRANCH   1   5
HETATM    5  C   UNL     1      24.009  47.899  49.330  1.00  0.00     0.124 C 
BRANCH   5   6
HETATM    6  C   UNL     1      22.595  48.373  48.999  1.00  0.00     0.047 C 
BRANCH   6   7
HETATM    7  C   UNL     1      22.383  49.798  49.490  1.00  0.00     0.236 C 
BRANCH   7   8
HETATM    8  N   UNL     1      20.942  50.004  49.906  1.00  0.00    -0.068 N 
HETATM    9  C   UNL     1      20.344  51.321  49.386  1.00  0.00     0.254 C 
HETATM   10  C   UNL     1      18.889  51.481  49.879  1.00  0.00     0.150 C 
HETATM   11  N   UNL     1      18.065  50.309  49.530  1.00  0.00    -0.378 N 
HETATM   12  C   UNL     1      18.616  49.020  49.997  1.00  0.00     0.150 C 
HETATM   13  C   UNL     1      20.058  48.824  49.479  1.00  0.00     0.254 C 
HETATM   14  H   UNL     1      20.906  50.041  50.932  1.00  0.00     0.280 HD
BRANCH  11  15
HETATM   15  C   UNL     1      17.321  50.287  48.348  1.00  0.00     0.030 A 
HETATM   16  C   UNL     1      16.048  49.710  48.246  1.00  0.00     0.032 A 
HETATM   17  C   UNL     1      15.334  49.715  47.040  1.00  0.00     0.039 A 
HETATM   18  C   UNL     1      15.874  50.284  45.890  1.00  0.00     0.068 A 
HETATM   19  C   UNL     1      17.149  50.830  45.953  1.00  0.00     0.039 A 
HETATM   20  C   UNL     1      17.858  50.823  47.164  1.00  0.00     0.032 A 
BRANCH  18  21
HETATM   21  O   UNL     1      15.071  50.228  44.787  1.00  0.00    -0.356 OA
HETATM   22  C   UNL     1      13.713  49.856  44.995  1.00  0.00     0.210 C 
ENDBRANCH  18  21
ENDBRANCH  11  15
ENDBRANCH   7   8
ENDBRANCH   6   7
ENDBRANCH   5   6
ENDBRANCH   1   5
BRANCH   2  23
HETATM   23  C   UNL     1      24.460  44.421  50.743  1.00  0.00     0.105 C 
BRANCH  23  24
HETATM   24  C   UNL     1      25.117  44.376  52.128  1.00  0.00     0.046 C 
BRANCH  24  25
HETATM   25  C   UNL     1      26.378  45.225  52.303  1.00  0.00     0.203 A 
HETATM   26  N   UNL     1      27.471  44.435  52.909  1.00  0.00    -0.257 NA
HETATM   27  C   UNL     1      27.837  45.137  53.940  1.00  0.00     0.147 A 
HETATM   28  N   UNL     1      27.161  46.294  54.199  1.00  0.00    -0.239 N 
HETATM   29  C   UNL     1      28.928  44.745  54.838  1.00  0.00     0.037 A 
HETATM   30  C   UNL     1      27.404  47.117  55.304  1.00  0.00     0.187 A 
HETATM   31  C   UNL     1      26.201  46.424  53.217  1.00  0.00     0.257 A 
HETATM   32  S   UNL     1      26.563  48.498  55.747  1.00  0.00    -0.040 SA
HETATM   33  N   UNL     1      28.448  46.737  56.119  1.00  0.00    -0.332 N 
HETATM   34  C   UNL     1      29.210  45.581  55.916  1.00  0.00     0.048 A 
HETATM   35  H   UNL     1      28.654  47.334  56.913  1.00  0.00     0.168 HD
HETATM   36  C   UNL     1      30.245  45.262  56.792  1.00  0.00     0.030 A 
HETATM   37  C   UNL     1      30.994  44.102  56.581  1.00  0.00     0.002 A 
HETATM   38  C   UNL     1      30.708  43.265  55.501  1.00  0.00     0.001 A 
HETATM   39  C   UNL     1      29.672  43.584  54.623  1.00  0.00     0.017 A 
HETATM   40  O   UNL     1      25.336  47.276  53.064  1.00  0.00    -0.270 OA
ENDBRANCH  24  25
ENDBRANCH  23  24
ENDBRANCH   2  23
TORSDOF 9
ENDMDL
MODEL 7
REMARK VINA RESULT:      -9.4      6.253     10.294
REMARK  9 active torsions:
REMARK  status: ('A' for Active; 'I' for Inactive)
REMARK    1  A    between atoms: O_2  and  C_3 
REMARK    2  A    between atoms: C_6  and  N_7 
REMARK    3  A    between atoms: N_10  and  C_12 
REMARK    4  A    between atoms: C_12  and  C_13 
REMARK    5  A    between atoms: C_13  and  C_14 
REMARK    6  A    between atoms: C_14  and  N_15 
REMARK       I    between atoms: N_15  and  C_16 
REMARK    7  A    between atoms: C_16  and  C_17 
REMARK    8  A    between atoms: C_17  and  C_18 
REMARK    9  A    between atoms: C_18  and  C_19 
ROOT
HETATM    1  N   UNL     1      25.293  42.147  50.340  1.00  0.00    -0.361 N 
HETATM    2  C   UNL     1      26.645  42.230  50.074  1.00  0.00     0.217 C 
HETATM    3  O   UNL     1      27.110  42.956  49.198  1.00  0.00    -0.274 OA
HETATM    4  H   UNL     1      24.979  41.378  50.921  1.00  0.00     0.162 HD
ENDROOT
BRANCH   1   5
HETATM    5  C   UNL     1      24.333  42.702  49.409  1.00  0.00     0.124 C 
BRANCH   5   6
HETATM    6  C   UNL     1      23.742  41.642  48.481  1.00  0.00     0.047 C 
BRANCH   6   7
HETATM    7  C   UNL     1      24.266  41.824  47.064  1.00  0.00     0.236 C 
BRANCH   7   8
HETATM    8  N   UNL     1      25.074  40.615  46.641  1.00  0.00    -0.068 N 
HETATM    9  C   UNL     1      26.588  40.880  46.607  1.00  0.00     0.254 C 
HETATM   10  C   UNL     1      27.342  39.618  46.131  1.00  0.00     0.150 C 
HETATM   11  N   UNL     1      26.992  38.437  46.942  1.00  0.00    -0.378 N 
HETATM   12  C   UNL     1      25.542  38.160  47.014  1.00  0.00     0.150 C 
HETATM   13  C   UNL     1      24.776  39.399  47.527  1.00  0.00     0.254 C 
HETATM   14  H   UNL     1      24.791  40.359  45.686  1.00  0.00     0.280 HD
BRANCH  11  15
HETATM   15  C   UNL     1      27.759  38.083  48.054  1.00  0.00     0.030 A 
HETATM   16  C   UNL     1      27.269  37.313  49.117  1.00  0.00     0.032 A 
HETATM   17  C   UNL     1      28.078  36.977  50.213  1.00  0.00     0.039 A 
HETATM   18  C   UNL     1      29.397  37.412  50.291  1.00  0.00     0.068 A 
HETATM   19  C   UNL     1      29.897  38.208  49.269  1.00  0.00     0.039 A 
HETATM   20  C   UNL     1      29.084  38.539  48.174  1.00  0.00     0.032 A 
BRANCH  18  21
HETATM   21  O   UNL     1      30.073  37.007  51.405  1.00  0.00    -0.356 OA
HETATM   22  C   UNL     1      29.864  35.667  51.837  1.00  0.00     0.210 C 
ENDBRANCH  18  21
ENDBRANCH  11  15
ENDBRANCH   7   8
ENDBRANCH   6   7
ENDBRANCH   5   6
ENDBRANCH   1   5
BRANCH   2  23
HETATM   23  C   UNL     1      27.511  41.321  50.920  1.00  0.00     0.105 C 
BRANCH  23  24
HETATM   24  C   UNL     1      27.681  41.804  52.365  1.00  0.00     0.046 C 
BRANCH  24  25
HETATM   25  C   UNL     1      28.537  43.057  52.560  1.00  0.00     0.203 A 
HETATM   26  N   UNL     1      29.505  42.874  53.663  1.00  0.00    -0.257 NA
HETATM   27  C   UNL     1      29.290  43.887  54.447  1.00  0.00     0.147 A 
HETATM   28  N   UNL     1      28.296  44.760  54.107  1.00  0.00    -0.239 N 
HETATM   29  C   UNL     1      30.049  44.135  55.676  1.00  0.00     0.037 A 
HETATM   30  C   UNL     1      27.913  45.858  54.884  1.00  0.00     0.187 A 
HETATM   31  C   UNL     1      27.750  44.301  52.926  1.00  0.00     0.257 A 
HETATM   32  S   UNL     1      26.649  46.920  54.590  1.00  0.00    -0.040 SA
HETATM   33  N   UNL     1      28.657  46.079  56.022  1.00  0.00    -0.332 N 
HETATM   34  C   UNL     1      29.708  45.252  56.434  1.00  0.00     0.048 A 
HETATM   35  H   UNL     1      28.409  46.884  56.586  1.00  0.00     0.168 HD
HETATM   36  C   UNL     1      30.407  45.540  57.605  1.00  0.00     0.030 A 
HETATM   37  C   UNL     1      31.450  44.703  58.009  1.00  0.00     0.002 A 
HETATM   38  C   UNL     1      31.789  43.582  57.247  1.00  0.00     0.001 A 
HETATM   39  C   UNL     1      31.090  43.294  56.075  1.00  0.00     0.017 A 
HETATM   40  O   UNL     1      26.810  44.731  52.270  1.00  0.00    -0.270 OA
ENDBRANCH  24  25
ENDBRANCH  23  24
ENDBRANCH   2  23
TORSDOF 9
ENDMDL
MODEL 8
REMARK VINA RESULT:      -9.2      3.514     10.998
REMARK  9 active torsions:
REMARK  status: ('A' for Active; 'I' for Inactive)
REMARK    1  A    between atoms: O_2  and  C_3 
REMARK    2  A    between atoms: C_6  and  N_7 
REMARK    3  A    between atoms: N_10  and  C_12 
REMARK    4  A    between atoms: C_12  and  C_13 
REMARK    5  A    between atoms: C_13  and  C_14 
REMARK    6  A    between atoms: C_14  and  N_15 
REMARK       I    between atoms: N_15  and  C_16 
REMARK    7  A    between atoms: C_16  and  C_17 
REMARK    8  A    between atoms: C_17  and  C_18 
REMARK    9  A    between atoms: C_18  and  C_19 
ROOT
HETATM    1  N   UNL     1      26.722  40.397  50.724  1.00  0.00    -0.361 N 
HETATM    2  C   UNL     1      28.079  40.561  50.528  1.00  0.00     0.217 C 
HETATM    3  O   UNL     1      28.565  40.870  49.443  1.00  0.00    -0.274 OA
HETATM    4  H   UNL     1      26.428  39.939  51.579  1.00  0.00     0.162 HD
ENDROOT
BRANCH   1   5
HETATM    5  C   UNL     1      25.829  40.308  49.588  1.00  0.00     0.124 C 
BRANCH   5   6
HETATM    6  C   UNL     1      24.928  41.536  49.459  1.00  0.00     0.047 C 
BRANCH   6   7
HETATM    7  C   UNL     1      24.758  42.213  50.812  1.00  0.00     0.236 C 
BRANCH   7   8
HETATM    8  N   UNL     1      25.195  43.661  50.735  1.00  0.00    -0.068 N 
HETATM    9  C   UNL     1      25.407  44.154  49.295  1.00  0.00     0.254 C 
HETATM   10  C   UNL     1      25.887  45.622  49.296  1.00  0.00     0.150 C 
HETATM   11  N   UNL     1      24.976  46.492  50.064  1.00  0.00    -0.378 N 
HETATM   12  C   UNL     1      24.733  46.040  51.450  1.00  0.00     0.150 C 
HETATM   13  C   UNL     1      24.212  44.587  51.465  1.00  0.00     0.254 C 
HETATM   14  H   UNL     1      26.096  43.749  51.220  1.00  0.00     0.280 HD
BRANCH  11  15
HETATM   15  C   UNL     1      23.935  47.171  49.427  1.00  0.00     0.030 A 
HETATM   16  C   UNL     1      23.049  46.560  48.530  1.00  0.00     0.032 A 
HETATM   17  C   UNL     1      22.013  47.280  47.917  1.00  0.00     0.039 A 
HETATM   18  C   UNL     1      21.837  48.637  48.168  1.00  0.00     0.068 A 
HETATM   19  C   UNL     1      22.724  49.276  49.025  1.00  0.00     0.039 A 
HETATM   20  C   UNL     1      23.757  48.550  49.636  1.00  0.00     0.032 A 
BRANCH  18  21
HETATM   21  O   UNL     1      20.787  49.213  47.514  1.00  0.00    -0.356 OA
HETATM   22  C   UNL     1      19.511  49.127  48.137  1.00  0.00     0.210 C 
ENDBRANCH  18  21
ENDBRANCH  11  15
ENDBRANCH   7   8
ENDBRANCH   6   7
ENDBRANCH   5   6
ENDBRANCH   1   5
BRANCH   2  23
HETATM   23  C   UNL     1      28.931  40.286  51.749  1.00  0.00     0.105 C 
BRANCH  23  24
HETATM   24  C   UNL     1      28.590  41.177  52.950  1.00  0.00     0.046 C 
BRANCH  24  25
HETATM   25  C   UNL     1      29.335  42.511  53.030  1.00  0.00     0.203 A 
HETATM   26  N   UNL     1      30.160  42.587  54.255  1.00  0.00    -0.257 NA
HETATM   27  C   UNL     1      29.782  43.692  54.826  1.00  0.00     0.147 A 
HETATM   28  N   UNL     1      28.790  44.414  54.227  1.00  0.00    -0.239 N 
HETATM   29  C   UNL     1      30.358  44.194  56.076  1.00  0.00     0.037 A 
HETATM   30  C   UNL     1      28.242  45.587  54.757  1.00  0.00     0.187 A 
HETATM   31  C   UNL     1      28.432  43.729  53.084  1.00  0.00     0.257 A 
HETATM   32  S   UNL     1      26.964  46.481  54.139  1.00  0.00    -0.040 SA
HETATM   33  N   UNL     1      28.816  46.047  55.921  1.00  0.00    -0.332 N 
HETATM   34  C   UNL     1      29.852  45.386  56.589  1.00  0.00     0.048 A 
HETATM   35  H   UNL     1      28.447  46.909  56.308  1.00  0.00     0.168 HD
HETATM   36  C   UNL     1      30.374  45.914  57.769  1.00  0.00     0.030 A 
HETATM   37  C   UNL     1      31.404  45.240  58.429  1.00  0.00     0.002 A 
HETATM   38  C   UNL     1      31.909  44.044  57.914  1.00  0.00     0.001 A 
HETATM   39  C   UNL     1      31.387  43.516  56.733  1.00  0.00     0.017 A 
HETATM   40  O   UNL     1      27.562  43.970  52.258  1.00  0.00    -0.270 OA
ENDBRANCH  24  25
ENDBRANCH  23  24
ENDBRANCH   2  23
TORSDOF 9
ENDMDL
MODEL 9
REMARK VINA RESULT:      -9.2      2.009      2.932
REMARK  9 active torsions:
REMARK  status: ('A' for Active; 'I' for Inactive)
REMARK    1  A    between atoms: O_2  and  C_3 
REMARK    2  A    between atoms: C_6  and  N_7 
REMARK    3  A    between atoms: N_10  and  C_12 
REMARK    4  A    between atoms: C_12  and  C_13 
REMARK    5  A    between atoms: C_13  and  C_14 
REMARK    6  A    between atoms: C_14  and  N_15 
REMARK       I    between atoms: N_15  and  C_16 
REMARK    7  A    between atoms: C_16  and  C_17 
REMARK    8  A    between atoms: C_17  and  C_18 
REMARK    9  A    between atoms: C_18  and  C_19 
ROOT
HETATM    1  N   UNL     1      23.755  49.156  49.183  1.00  0.00    -0.361 N 
HETATM    2  C   UNL     1      23.656  50.174  48.256  1.00  0.00     0.217 C 
HETATM    3  O   UNL     1      24.384  50.251  47.268  1.00  0.00    -0.274 OA
HETATM    4  H   UNL     1      23.272  49.282  50.065  1.00  0.00     0.162 HD
ENDROOT
BRANCH   1   5
HETATM    5  C   UNL     1      24.910  48.282  49.184  1.00  0.00     0.124 C 
BRANCH   5   6
HETATM    6  C   UNL     1      24.711  47.058  50.076  1.00  0.00     0.047 C 
BRANCH   6   7
HETATM    7  C   UNL     1      25.843  46.060  49.868  1.00  0.00     0.236 C 
BRANCH   7   8
HETATM    8  N   UNL     1      25.824  45.009  50.957  1.00  0.00    -0.068 N 
HETATM    9  C   UNL     1      26.983  44.004  50.848  1.00  0.00     0.254 C 
HETATM   10  C   UNL     1      26.878  42.942  51.965  1.00  0.00     0.150 C 
HETATM   11  N   UNL     1      26.792  43.563  53.300  1.00  0.00    -0.378 N 
HETATM   12  C   UNL     1      25.701  44.550  53.439  1.00  0.00     0.150 C 
HETATM   13  C   UNL     1      25.813  45.643  52.355  1.00  0.00     0.254 C 
HETATM   14  H   UNL     1      24.952  44.473  50.871  1.00  0.00     0.280 HD
BRANCH  11  15
HETATM   15  C   UNL     1      27.944  43.782  54.060  1.00  0.00     0.030 A 
HETATM   16  C   UNL     1      29.004  42.870  54.135  1.00  0.00     0.032 A 
HETATM   17  C   UNL     1      30.145  43.133  54.907  1.00  0.00     0.039 A 
HETATM   18  C   UNL     1      30.258  44.310  55.642  1.00  0.00     0.068 A 
HETATM   19  C   UNL     1      29.204  45.214  55.615  1.00  0.00     0.039 A 
HETATM   20  C   UNL     1      28.067  44.946  54.839  1.00  0.00     0.032 A 
BRANCH  18  21
HETATM   21  O   UNL     1      31.422  44.443  56.342  1.00  0.00    -0.356 OA
HETATM   22  C   UNL     1      31.835  43.330  57.126  1.00  0.00     0.210 C 
ENDBRANCH  18  21
ENDBRANCH  11  15
ENDBRANCH   7   8
ENDBRANCH   6   7
ENDBRANCH   5   6
ENDBRANCH   1   5
BRANCH   2  23
HETATM   23  C   UNL     1      22.606  51.217  48.573  1.00  0.00     0.105 C 
BRANCH  23  24
HETATM   24  C   UNL     1      21.193  50.641  48.723  1.00  0.00     0.046 C 
BRANCH  24  25
HETATM   25  C   UNL     1      20.636  49.899  47.506  1.00  0.00     0.203 A 
HETATM   26  N   UNL     1      19.308  50.424  47.125  1.00  0.00    -0.257 NA
HETATM   27  C   UNL     1      18.545  49.372  47.098  1.00  0.00     0.147 A 
HETATM   28  N   UNL     1      19.101  48.170  47.433  1.00  0.00    -0.239 N 
HETATM   29  C   UNL     1      17.125  49.412  46.738  1.00  0.00     0.037 A 
HETATM   30  C   UNL     1      18.390  46.968  47.506  1.00  0.00     0.187 A 
HETATM   31  C   UNL     1      20.428  48.411  47.724  1.00  0.00     0.257 A 
HETATM   32  S   UNL     1      18.969  45.472  47.996  1.00  0.00    -0.040 SA
HETATM   33  N   UNL     1      17.062  47.030  47.142  1.00  0.00    -0.332 N 
HETATM   34  C   UNL     1      16.417  48.212  46.763  1.00  0.00     0.048 A 
HETATM   35  H   UNL     1      16.536  46.164  47.167  1.00  0.00     0.168 HD
HETATM   36  C   UNL     1      15.067  48.192  46.416  1.00  0.00     0.030 A 
HETATM   37  C   UNL     1      14.434  49.381  46.045  1.00  0.00     0.002 A 
HETATM   38  C   UNL     1      15.145  50.583  46.023  1.00  0.00     0.001 A 
HETATM   39  C   UNL     1      16.496  50.602  46.369  1.00  0.00     0.017 A 
HETATM   40  O   UNL     1      21.303  47.650  48.111  1.00  0.00    -0.270 OA
ENDBRANCH  24  25
ENDBRANCH  23  24
ENDBRANCH   2  23
TORSDOF 9
ENDMDL
MODEL 10
REMARK VINA RESULT:      -9.1      2.289      3.483
REMARK  9 active torsions:
REMARK  status: ('A' for Active; 'I' for Inactive)
REMARK    1  A    between atoms: O_2  and  C_3 
REMARK    2  A    between atoms: C_6  and  N_7 
REMARK    3  A    between atoms: N_10  and  C_12 
REMARK    4  A    between atoms: C_12  and  C_13 
REMARK    5  A    between atoms: C_13  and  C_14 
REMARK    6  A    between atoms: C_14  and  N_15 
REMARK       I    between atoms: N_15  and  C_16 
REMARK    7  A    between atoms: C_16  and  C_17 
REMARK    8  A    between atoms: C_17  and  C_18 
REMARK    9  A    between atoms: C_18  and  C_19 
ROOT
HETATM    1  N   UNL     1      23.031  48.487  48.831  1.00  0.00    -0.361 N 
HETATM    2  C   UNL     1      22.817  49.641  48.105  1.00  0.00     0.217 C 
HETATM    3  O   UNL     1      23.631  50.081  47.296  1.00  0.00    -0.274 OA
HETATM    4  H   UNL     1      22.417  48.313  49.620  1.00  0.00     0.162 HD
ENDROOT
BRANCH   1   5
HETATM    5  C   UNL     1      24.350  47.892  48.881  1.00  0.00     0.124 C 
BRANCH   5   6
HETATM    6  C   UNL     1      24.492  46.889  50.024  1.00  0.00     0.047 C 
BRANCH   6   7
HETATM    7  C   UNL     1      25.918  46.359  50.092  1.00  0.00     0.236 C 
BRANCH   7   8
HETATM    8  N   UNL     1      25.989  45.150  51.000  1.00  0.00    -0.068 N 
HETATM    9  C   UNL     1      27.254  44.304  50.786  1.00  0.00     0.254 C 
HETATM   10  C   UNL     1      27.239  43.071  51.716  1.00  0.00     0.150 C 
HETATM   11  N   UNL     1      27.050  43.457  53.127  1.00  0.00    -0.378 N 
HETATM   12  C   UNL     1      25.852  44.288  53.372  1.00  0.00     0.150 C 
HETATM   13  C   UNL     1      25.870  45.547  52.478  1.00  0.00     0.254 C 
HETATM   14  H   UNL     1      25.183  44.546  50.794  1.00  0.00     0.280 HD
BRANCH  11  15
HETATM   15  C   UNL     1      28.149  43.672  53.961  1.00  0.00     0.030 A 
HETATM   16  C   UNL     1      29.183  42.741  54.131  1.00  0.00     0.032 A 
HETATM   17  C   UNL     1      30.272  43.001  54.976  1.00  0.00     0.039 A 
HETATM   18  C   UNL     1      30.357  44.192  55.691  1.00  0.00     0.068 A 
HETATM   19  C   UNL     1      29.327  45.115  55.570  1.00  0.00     0.039 A 
HETATM   20  C   UNL     1      28.242  44.851  54.721  1.00  0.00     0.032 A 
BRANCH  18  21
HETATM   21  O   UNL     1      31.472  44.319  56.469  1.00  0.00    -0.356 OA
HETATM   22  C   UNL     1      31.271  44.412  57.874  1.00  0.00     0.210 C 
ENDBRANCH  18  21
ENDBRANCH  11  15
ENDBRANCH   7   8
ENDBRANCH   6   7
ENDBRANCH   5   6
ENDBRANCH   1   5
BRANCH   2  23
HETATM   23  C   UNL     1      21.516  50.350  48.413  1.00  0.00     0.105 C 
BRANCH  23  24
HETATM   24  C   UNL     1      20.525  49.495  49.213  1.00  0.00     0.046 C 
BRANCH  24  25
HETATM   25  C   UNL     1      19.102  49.416  48.656  1.00  0.00     0.203 A 
HETATM   26  N   UNL     1      19.083  49.694  47.204  1.00  0.00    -0.257 NA
HETATM   27  C   UNL     1      18.210  50.647  47.074  1.00  0.00     0.147 A 
HETATM   28  N   UNL     1      17.616  51.130  48.206  1.00  0.00    -0.239 N 
HETATM   29  C   UNL     1      17.839  51.234  45.783  1.00  0.00     0.037 A 
HETATM   30  C   UNL     1      16.707  52.193  48.224  1.00  0.00     0.187 A 
HETATM   31  C   UNL     1      18.136  50.415  49.265  1.00  0.00     0.257 A 
HETATM   32  S   UNL     1      16.005  52.906  49.570  1.00  0.00    -0.040 SA
HETATM   33  N   UNL     1      16.360  52.710  46.995  1.00  0.00    -0.332 N 
HETATM   34  C   UNL     1      16.899  52.262  45.785  1.00  0.00     0.048 A 
HETATM   35  H   UNL     1      15.685  53.466  46.988  1.00  0.00     0.168 HD
HETATM   36  C   UNL     1      16.502  52.845  44.583  1.00  0.00     0.030 A 
HETATM   37  C   UNL     1      17.053  52.392  43.382  1.00  0.00     0.002 A 
HETATM   38  C   UNL     1      17.997  51.362  43.383  1.00  0.00     0.001 A 
HETATM   39  C   UNL     1      18.394  50.778  44.586  1.00  0.00     0.017 A 
HETATM   40  O   UNL     1      17.936  50.525  50.467  1.00  0.00    -0.270 OA
ENDBRANCH  24  25
ENDBRANCH  23  24
ENDBRANCH   2  23
TORSDOF 9
ENDMDL
