MODEL 1
REMARK VINA RESULT:      -8.6      0.000      0.000
REMARK  6 active torsions:
REMARK  status: ('A' for Active; 'I' for Inactive)
REMARK    1  A    between atoms: C_6  and  C_7 
REMARK       I    between atoms: C_7  and  N_8 
REMARK    2  A    between atoms: N_8  and  C_9 
REMARK    3  A    between atoms: C_9  and  C_10 
REMARK    4  A    between atoms: C_10  and  O_11 
REMARK    5  A    between atoms: C_10  and  C_12 
REMARK    6  A    between atoms: C_15  and  O_16 
ROOT
HETATM    1  C   UNL     1      25.992  47.078  50.027  1.00  0.00     0.258 C 
HETATM    2  N   UNL     1      25.476  46.942  51.291  1.00  0.00    -0.350 N 
HETATM    3  O   UNL     1      26.770  46.268  49.533  1.00  0.00    -0.267 OA
HETATM    4  H   UNL     1      24.764  47.605  51.594  1.00  0.00     0.163 HD
ENDROOT
BRANCH   2   5
HETATM    5  C   UNL     1      25.776  45.823  52.176  1.00  0.00     0.114 C 
HETATM    6  C   UNL     1      24.718  44.735  51.981  1.00  0.00     0.035 C 
BRANCH   5   7
HETATM    7  C   UNL     1      25.839  46.275  53.663  1.00  0.00     0.173 C 
BRANCH   7   8
HETATM    8  O   UNL     1      25.631  47.690  53.766  1.00  0.00    -0.389 OA
HETATM    9  H   UNL     1      26.481  48.114  53.553  1.00  0.00     0.210 HD
ENDBRANCH   7   8
BRANCH   7  10
HETATM   10  C   UNL     1      27.131  45.886  54.361  1.00  0.00    -0.028 A 
HETATM   11  C   UNL     1      27.705  44.629  54.128  1.00  0.00     0.012 A 
HETATM   12  C   UNL     1      28.903  44.270  54.752  1.00  0.00     0.037 A 
HETATM   13  C   UNL     1      29.555  45.157  55.610  1.00  0.00     0.068 A 
HETATM   14  C   UNL     1      28.989  46.406  55.855  1.00  0.00     0.037 A 
HETATM   15  C   UNL     1      27.786  46.765  55.237  1.00  0.00     0.012 A 
BRANCH  13  16
HETATM   16  O   UNL     1      30.723  44.685  56.145  1.00  0.00    -0.356 OA
HETATM   17  C   UNL     1      30.963  43.289  56.017  1.00  0.00     0.210 C 
ENDBRANCH  13  16
ENDBRANCH   7  10
ENDBRANCH   5   7
ENDBRANCH   2   5
BRANCH   1  18
HETATM   18  C   UNL     1      25.553  48.267  49.314  1.00  0.00     0.105 A 
HETATM   19  C   UNL     1      26.354  49.331  48.815  1.00  0.00     0.071 A 
HETATM   20  C   UNL     1      27.830  49.477  48.909  1.00  0.00     0.073 C 
HETATM   21  N   UNL     1      25.628  50.276  48.207  1.00  0.00    -0.170 NA
HETATM   22  N   UNL     1      24.353  49.843  48.298  1.00  0.00    -0.225 N 
HETATM   23  C   UNL     1      24.259  48.623  48.974  1.00  0.00     0.168 A 
HETATM   24  C   UNL     1      23.211  50.470  47.809  1.00  0.00     0.122 A 
HETATM   25  N   UNL     1      23.048  48.006  49.188  1.00  0.00    -0.240 NA
HETATM   26  C   UNL     1      22.006  48.620  48.713  1.00  0.00     0.120 A 
HETATM   27  C   UNL     1      22.004  49.914  47.979  1.00  0.00     0.038 A 
ENDBRANCH   1  18
TORSDOF 6
ENDMDL
MODEL 2
REMARK VINA RESULT:      -8.4      3.313      7.765
REMARK  6 active torsions:
REMARK  status: ('A' for Active; 'I' for Inactive)
REMARK    1  A    between atoms: C_6  and  C_7 
REMARK       I    between atoms: C_7  and  N_8 
REMARK    2  A    between atoms: N_8  and  C_9 
REMARK    3  A    between atoms: C_9  and  C_10 
REMARK    4  A    between atoms: C_10  and  O_11 
REMARK    5  A    between atoms: C_10  and  C_12 
REMARK    6  A    between atoms: C_15  and  O_16 
ROOT
HETATM    1  C   UNL     1      26.115  44.274  53.207  1.00  0.00     0.258 C 
HETATM    2  N   UNL     1      26.598  43.728  52.045  1.00  0.00    -0.350 N 
HETATM    3  O   UNL     1      24.940  44.188  53.547  1.00  0.00    -0.267 OA
HETATM    4  H   UNL     1      27.603  43.761  51.879  1.00  0.00     0.163 HD
ENDROOT
BRANCH   2   5
HETATM    5  C   UNL     1      25.782  42.977  51.098  1.00  0.00     0.114 C 
HETATM    6  C   UNL     1      26.259  41.523  51.073  1.00  0.00     0.035 C 
BRANCH   5   7
HETATM    7  C   UNL     1      25.838  43.604  49.677  1.00  0.00     0.173 C 
BRANCH   7   8
HETATM    8  O   UNL     1      27.129  43.396  49.087  1.00  0.00    -0.389 OA
HETATM    9  H   UNL     1      27.342  44.204  48.588  1.00  0.00     0.210 HD
ENDBRANCH   7   8
BRANCH   7  10
HETATM   10  C   UNL     1      25.485  45.081  49.650  1.00  0.00    -0.028 A 
HETATM   11  C   UNL     1      24.148  45.482  49.529  1.00  0.00     0.012 A 
HETATM   12  C   UNL     1      23.812  46.839  49.521  1.00  0.00     0.037 A 
HETATM   13  C   UNL     1      24.799  47.819  49.646  1.00  0.00     0.068 A 
HETATM   14  C   UNL     1      26.132  47.431  49.760  1.00  0.00     0.037 A 
HETATM   15  C   UNL     1      26.471  46.073  49.759  1.00  0.00     0.012 A 
BRANCH  13  16
HETATM   16  O   UNL     1      24.333  49.106  49.636  1.00  0.00    -0.356 OA
HETATM   17  C   UNL     1      24.758  49.928  48.556  1.00  0.00     0.210 C 
ENDBRANCH  13  16
ENDBRANCH   7  10
ENDBRANCH   5   7
ENDBRANCH   2   5
BRANCH   1  18
HETATM   18  C   UNL     1      27.105  44.976  54.009  1.00  0.00     0.105 A 
HETATM   19  C   UNL     1      27.083  46.332  54.432  1.00  0.00     0.071 A 
HETATM   20  C   UNL     1      26.041  47.354  54.150  1.00  0.00     0.073 C 
HETATM   21  N   UNL     1      28.157  46.660  55.159  1.00  0.00    -0.170 NA
HETATM   22  N   UNL     1      28.888  45.527  55.223  1.00  0.00    -0.225 N 
HETATM   23  C   UNL     1      28.288  44.474  54.526  1.00  0.00     0.168 A 
HETATM   24  C   UNL     1      30.102  45.341  55.876  1.00  0.00     0.122 A 
HETATM   25  N   UNL     1      28.870  43.229  54.454  1.00  0.00    -0.240 NA
HETATM   26  C   UNL     1      30.001  43.094  55.081  1.00  0.00     0.120 A 
HETATM   27  C   UNL     1      30.714  44.150  55.849  1.00  0.00     0.038 A 
ENDBRANCH   1  18
TORSDOF 6
ENDMDL
MODEL 3
REMARK VINA RESULT:      -8.0      3.138      7.183
REMARK  6 active torsions:
REMARK  status: ('A' for Active; 'I' for Inactive)
REMARK    1  A    between atoms: C_6  and  C_7 
REMARK       I    between atoms: C_7  and  N_8 
REMARK    2  A    between atoms: N_8  and  C_9 
REMARK    3  A    between atoms: C_9  and  C_10 
REMARK    4  A    between atoms: C_10  and  O_11 
REMARK    5  A    between atoms: C_10  and  C_12 
REMARK    6  A    between atoms: C_15  and  O_16 
ROOT
HETATM    1  C   UNL     1      27.684  42.823  53.225  1.00  0.00     0.258 C 
HETATM    2  N   UNL     1      27.388  43.053  51.905  1.00  0.00    -0.350 N 
HETATM    3  O   UNL     1      27.619  41.711  53.739  1.00  0.00    -0.267 OA
HETATM    4  H   UNL     1      27.557  43.985  51.529  1.00  0.00     0.163 HD
ENDROOT
BRANCH   2   5
HETATM    5  C   UNL     1      26.982  42.011  50.968  1.00  0.00     0.114 C 
HETATM    6  C   UNL     1      28.201  41.158  50.613  1.00  0.00     0.035 C 
BRANCH   5   7
HETATM    7  C   UNL     1      26.336  42.616  49.690  1.00  0.00     0.173 C 
BRANCH   7   8
HETATM    8  O   UNL     1      27.215  42.470  48.566  1.00  0.00    -0.389 OA
HETATM    9  H   UNL     1      26.674  42.142  47.828  1.00  0.00     0.210 HD
ENDBRANCH   7   8
BRANCH   7  10
HETATM   10  C   UNL     1      25.927  44.070  49.847  1.00  0.00    -0.028 A 
HETATM   11  C   UNL     1      24.597  44.398  50.139  1.00  0.00     0.012 A 
HETATM   12  C   UNL     1      24.215  45.733  50.302  1.00  0.00     0.037 A 
HETATM   13  C   UNL     1      25.151  46.762  50.189  1.00  0.00     0.068 A 
HETATM   14  C   UNL     1      26.474  46.447  49.890  1.00  0.00     0.037 A 
HETATM   15  C   UNL     1      26.858  45.112  49.719  1.00  0.00     0.012 A 
BRANCH  13  16
HETATM   16  O   UNL     1      24.648  48.020  50.383  1.00  0.00    -0.356 OA
HETATM   17  C   UNL     1      23.554  48.403  49.558  1.00  0.00     0.210 C 
ENDBRANCH  13  16
ENDBRANCH   7  10
ENDBRANCH   5   7
ENDBRANCH   2   5
BRANCH   1  18
HETATM   18  C   UNL     1      28.076  44.005  53.977  1.00  0.00     0.105 A 
HETATM   19  C   UNL     1      29.246  44.191  54.761  1.00  0.00     0.071 A 
HETATM   20  C   UNL     1      30.345  43.219  54.997  1.00  0.00     0.073 C 
HETATM   21  N   UNL     1      29.297  45.403  55.325  1.00  0.00    -0.170 NA
HETATM   22  N   UNL     1      28.168  46.020  54.917  1.00  0.00    -0.225 N 
HETATM   23  C   UNL     1      27.387  45.200  54.099  1.00  0.00     0.168 A 
HETATM   24  C   UNL     1      27.752  47.311  55.227  1.00  0.00     0.122 A 
HETATM   25  N   UNL     1      26.187  45.628  53.579  1.00  0.00    -0.240 NA
HETATM   26  C   UNL     1      25.835  46.840  53.887  1.00  0.00     0.120 A 
HETATM   27  C   UNL     1      26.597  47.788  54.745  1.00  0.00     0.038 A 
ENDBRANCH   1  18
TORSDOF 6
ENDMDL
MODEL 4
REMARK VINA RESULT:      -7.8      3.202      8.279
REMARK  6 active torsions:
REMARK  status: ('A' for Active; 'I' for Inactive)
REMARK    1  A    between atoms: C_6  and  C_7 
REMARK       I    between atoms: C_7  and  N_8 
REMARK    2  A    between atoms: N_8  and  C_9 
REMARK    3  A    between atoms: C_9  and  C_10 
REMARK    4  A    between atoms: C_10  and  O_11 
REMARK    5  A    between atoms: C_10  and  C_12 
REMARK    6  A    between atoms: C_15  and  O_16 
ROOT
HETATM    1  C   UNL     1      26.548  43.773  53.310  1.00  0.00     0.258 C 
HETATM    2  N   UNL     1      26.597  43.695  51.941  1.00  0.00    -0.350 N 
HETATM    3  O   UNL     1      25.512  43.997  53.928  1.00  0.00    -0.267 OA
HETATM    4  H   UNL     1      27.475  43.413  51.506  1.00  0.00     0.163 HD
ENDROOT
BRANCH   2   5
HETATM    5  C   UNL     1      25.434  43.851  51.074  1.00  0.00     0.114 C 
HETATM    6  C   UNL     1      24.792  42.481  50.850  1.00  0.00     0.035 C 
BRANCH   5   7
HETATM    7  C   UNL     1      25.819  44.512  49.721  1.00  0.00     0.173 C 
BRANCH   7   8
HETATM    8  O   UNL     1      27.235  44.436  49.510  1.00  0.00    -0.389 OA
HETATM    9  H   UNL     1      27.403  43.603  49.036  1.00  0.00     0.210 HD
ENDBRANCH   7   8
BRANCH   7  10
HETATM   10  C   UNL     1      25.350  45.952  49.593  1.00  0.00    -0.028 A 
HETATM   11  C   UNL     1      23.986  46.236  49.449  1.00  0.00     0.012 A 
HETATM   12  C   UNL     1      23.543  47.558  49.348  1.00  0.00     0.037 A 
HETATM   13  C   UNL     1      24.448  48.620  49.402  1.00  0.00     0.068 A 
HETATM   14  C   UNL     1      25.808  48.348  49.538  1.00  0.00     0.037 A 
HETATM   15  C   UNL     1      26.253  47.024  49.631  1.00  0.00     0.012 A 
BRANCH  13  16
HETATM   16  O   UNL     1      23.883  49.862  49.305  1.00  0.00    -0.356 OA
HETATM   17  C   UNL     1      23.831  50.438  48.006  1.00  0.00     0.210 C 
ENDBRANCH  13  16
ENDBRANCH   7  10
ENDBRANCH   5   7
ENDBRANCH   2   5
BRANCH   1  18
HETATM   18  C   UNL     1      27.825  43.577  53.978  1.00  0.00     0.105 A 
HETATM   19  C   UNL     1      28.642  42.415  53.975  1.00  0.00     0.071 A 
HETATM   20  C   UNL     1      28.381  41.123  53.287  1.00  0.00     0.073 C 
HETATM   21  N   UNL     1      29.757  42.570  54.698  1.00  0.00    -0.170 NA
HETATM   22  N   UNL     1      29.683  43.830  55.177  1.00  0.00    -0.225 N 
HETATM   23  C   UNL     1      28.514  44.480  54.770  1.00  0.00     0.168 A 
HETATM   24  C   UNL     1      30.609  44.481  55.986  1.00  0.00     0.122 A 
HETATM   25  N   UNL     1      28.233  45.771  55.154  1.00  0.00    -0.240 NA
HETATM   26  C   UNL     1      29.124  46.347  55.905  1.00  0.00     0.120 A 
HETATM   27  C   UNL     1      30.395  45.741  56.386  1.00  0.00     0.038 A 
ENDBRANCH   1  18
TORSDOF 6
ENDMDL
MODEL 5
REMARK VINA RESULT:      -7.8      3.900      9.279
REMARK  6 active torsions:
REMARK  status: ('A' for Active; 'I' for Inactive)
REMARK    1  A    between atoms: C_6  and  C_7 
REMARK       I    between atoms: C_7  and  N_8 
REMARK    2  A    between atoms: N_8  and  C_9 
REMARK    3  A    between atoms: C_9  and  C_10 
REMARK    4  A    between atoms: C_10  and  O_11 
REMARK    5  A    between atoms: C_10  and  C_12 
REMARK    6  A    between atoms: C_15  and  O_16 
ROOT
HETATM    1  C   UNL     1      22.852  47.497  48.494  1.00  0.00     0.258 C 
HETATM    2  N   UNL     1      22.951  48.729  49.090  1.00  0.00    -0.350 N 
HETATM    3  O   UNL     1      22.358  47.331  47.384  1.00  0.00    -0.267 OA
HETATM    4  H   UNL     1      23.458  48.798  49.971  1.00  0.00     0.163 HD
ENDROOT
BRANCH   2   5
HETATM    5  C   UNL     1      22.499  49.971  48.472  1.00  0.00     0.114 C 
HETATM    6  C   UNL     1      23.668  50.607  47.719  1.00  0.00     0.035 C 
BRANCH   5   7
HETATM    7  C   UNL     1      21.918  50.953  49.528  1.00  0.00     0.173 C 
BRANCH   7   8
HETATM    8  O   UNL     1      22.272  50.532  50.853  1.00  0.00    -0.389 OA
HETATM    9  H   UNL     1      23.171  50.862  51.021  1.00  0.00     0.210 HD
ENDBRANCH   7   8
BRANCH   7  10
HETATM   10  C   UNL     1      20.414  51.138  49.424  1.00  0.00    -0.028 A 
HETATM   11  C   UNL     1      19.554  50.344  50.193  1.00  0.00     0.012 A 
HETATM   12  C   UNL     1      18.169  50.519  50.117  1.00  0.00     0.037 A 
HETATM   13  C   UNL     1      17.618  51.494  49.284  1.00  0.00     0.068 A 
HETATM   14  C   UNL     1      18.464  52.283  48.508  1.00  0.00     0.037 A 
HETATM   15  C   UNL     1      19.850  52.104  48.577  1.00  0.00     0.012 A 
BRANCH  13  16
HETATM   16  O   UNL     1      16.252  51.568  49.313  1.00  0.00    -0.356 OA
HETATM   17  C   UNL     1      15.689  52.734  49.900  1.00  0.00     0.210 C 
ENDBRANCH  13  16
ENDBRANCH   7  10
ENDBRANCH   5   7
ENDBRANCH   2   5
BRANCH   1  18
HETATM   18  C   UNL     1      23.374  46.393  49.285  1.00  0.00     0.105 A 
HETATM   19  C   UNL     1      23.016  45.020  49.208  1.00  0.00     0.071 A 
HETATM   20  C   UNL     1      22.022  44.390  48.300  1.00  0.00     0.073 C 
HETATM   21  N   UNL     1      23.687  44.267  50.086  1.00  0.00    -0.170 NA
HETATM   22  N   UNL     1      24.489  45.132  50.741  1.00  0.00    -0.225 N 
HETATM   23  C   UNL     1      24.324  46.445  50.291  1.00  0.00     0.168 A 
HETATM   24  C   UNL     1      25.396  44.842  51.755  1.00  0.00     0.122 A 
HETATM   25  N   UNL     1      25.038  47.490  50.830  1.00  0.00    -0.240 NA
HETATM   26  C   UNL     1      25.878  47.178  51.771  1.00  0.00     0.120 A 
HETATM   27  C   UNL     1      26.126  45.815  52.314  1.00  0.00     0.038 A 
ENDBRANCH   1  18
TORSDOF 6
ENDMDL
MODEL 6
REMARK VINA RESULT:      -7.7      2.427      3.624
REMARK  6 active torsions:
REMARK  status: ('A' for Active; 'I' for Inactive)
REMARK    1  A    between atoms: C_6  and  C_7 
REMARK       I    between atoms: C_7  and  N_8 
REMARK    2  A    between atoms: N_8  and  C_9 
REMARK    3  A    between atoms: C_9  and  C_10 
REMARK    4  A    between atoms: C_10  and  O_11 
REMARK    5  A    between atoms: C_10  and  C_12 
REMARK    6  A    between atoms: C_15  and  O_16 
ROOT
HETATM    1  C   UNL     1      26.357  44.478  49.996  1.00  0.00     0.258 C 
HETATM    2  N   UNL     1      26.303  43.607  51.054  1.00  0.00    -0.350 N 
HETATM    3  O   UNL     1      27.403  44.981  49.597  1.00  0.00    -0.267 OA
HETATM    4  H   UNL     1      25.412  43.160  51.265  1.00  0.00     0.163 HD
ENDROOT
BRANCH   2   5
HETATM    5  C   UNL     1      27.473  43.170  51.809  1.00  0.00     0.114 C 
HETATM    6  C   UNL     1      27.969  41.843  51.233  1.00  0.00     0.035 C 
BRANCH   5   7
HETATM    7  C   UNL     1      27.154  43.034  53.324  1.00  0.00     0.173 C 
BRANCH   7   8
HETATM    8  O   UNL     1      25.822  43.491  53.599  1.00  0.00    -0.389 OA
HETATM    9  H   UNL     1      25.741  44.374  53.200  1.00  0.00     0.210 HD
ENDBRANCH   7   8
BRANCH   7  10
HETATM   10  C   UNL     1      28.147  43.753  54.221  1.00  0.00    -0.028 A 
HETATM   11  C   UNL     1      27.823  45.000  54.769  1.00  0.00     0.012 A 
HETATM   12  C   UNL     1      28.724  45.661  55.610  1.00  0.00     0.037 A 
HETATM   13  C   UNL     1      29.955  45.086  55.929  1.00  0.00     0.068 A 
HETATM   14  C   UNL     1      30.290  43.849  55.383  1.00  0.00     0.037 A 
HETATM   15  C   UNL     1      29.393  43.190  54.535  1.00  0.00     0.012 A 
BRANCH  13  16
HETATM   16  O   UNL     1      30.735  45.831  56.771  1.00  0.00    -0.356 OA
HETATM   17  C   UNL     1      30.285  45.956  58.114  1.00  0.00     0.210 C 
ENDBRANCH  13  16
ENDBRANCH   7  10
ENDBRANCH   5   7
ENDBRANCH   2   5
BRANCH   1  18
HETATM   18  C   UNL     1      25.071  44.772  49.382  1.00  0.00     0.105 A 
HETATM   19  C   UNL     1      24.231  43.887  48.653  1.00  0.00     0.071 A 
HETATM   20  C   UNL     1      24.472  42.453  48.346  1.00  0.00     0.073 C 
HETATM   21  N   UNL     1      23.115  44.482  48.219  1.00  0.00    -0.170 NA
HETATM   22  N   UNL     1      23.209  45.755  48.659  1.00  0.00    -0.225 N 
HETATM   23  C   UNL     1      24.394  45.979  49.367  1.00  0.00     0.168 A 
HETATM   24  C   UNL     1      22.291  46.783  48.474  1.00  0.00     0.122 A 
HETATM   25  N   UNL     1      24.698  47.212  49.897  1.00  0.00    -0.240 NA
HETATM   26  C   UNL     1      23.813  48.145  49.707  1.00  0.00     0.120 A 
HETATM   27  C   UNL     1      22.527  48.003  48.973  1.00  0.00     0.038 A 
ENDBRANCH   1  18
TORSDOF 6
ENDMDL
MODEL 7
REMARK VINA RESULT:      -7.6      2.997      3.988
REMARK  6 active torsions:
REMARK  status: ('A' for Active; 'I' for Inactive)
REMARK    1  A    between atoms: C_6  and  C_7 
REMARK       I    between atoms: C_7  and  N_8 
REMARK    2  A    between atoms: N_8  and  C_9 
REMARK    3  A    between atoms: C_9  and  C_10 
REMARK    4  A    between atoms: C_10  and  O_11 
REMARK    5  A    between atoms: C_10  and  C_12 
REMARK    6  A    between atoms: C_15  and  O_16 
ROOT
HETATM    1  C   UNL     1      26.383  44.575  50.026  1.00  0.00     0.258 C 
HETATM    2  N   UNL     1      26.340  43.624  51.012  1.00  0.00    -0.350 N 
HETATM    3  O   UNL     1      27.427  45.095  49.643  1.00  0.00    -0.267 OA
HETATM    4  H   UNL     1      25.448  43.172  51.208  1.00  0.00     0.163 HD
ENDROOT
BRANCH   2   5
HETATM    5  C   UNL     1      27.520  43.113  51.702  1.00  0.00     0.114 C 
HETATM    6  C   UNL     1      27.969  41.815  51.027  1.00  0.00     0.035 C 
BRANCH   5   7
HETATM    7  C   UNL     1      27.240  42.884  53.214  1.00  0.00     0.173 C 
BRANCH   7   8
HETATM    8  O   UNL     1      25.888  43.243  53.534  1.00  0.00    -0.389 OA
HETATM    9  H   UNL     1      25.745  44.138  53.180  1.00  0.00     0.210 HD
ENDBRANCH   7   8
BRANCH   7  10
HETATM   10  C   UNL     1      28.205  43.620  54.128  1.00  0.00    -0.028 A 
HETATM   11  C   UNL     1      27.842  44.853  54.685  1.00  0.00     0.012 A 
HETATM   12  C   UNL     1      28.717  45.529  55.542  1.00  0.00     0.037 A 
HETATM   13  C   UNL     1      29.960  44.983  55.868  1.00  0.00     0.068 A 
HETATM   14  C   UNL     1      30.332  43.761  55.314  1.00  0.00     0.037 A 
HETATM   15  C   UNL     1      29.462  43.087  54.450  1.00  0.00     0.012 A 
BRANCH  13  16
HETATM   16  O   UNL     1      30.711  45.741  56.725  1.00  0.00    -0.356 OA
HETATM   17  C   UNL     1      30.209  45.896  58.046  1.00  0.00     0.210 C 
ENDBRANCH  13  16
ENDBRANCH   7  10
ENDBRANCH   5   7
ENDBRANCH   2   5
BRANCH   1  18
HETATM   18  C   UNL     1      25.088  44.933  49.467  1.00  0.00     0.105 A 
HETATM   19  C   UNL     1      24.395  46.167  49.593  1.00  0.00     0.071 A 
HETATM   20  C   UNL     1      24.831  47.383  50.329  1.00  0.00     0.073 C 
HETATM   21  N   UNL     1      23.220  46.162  48.954  1.00  0.00    -0.170 NA
HETATM   22  N   UNL     1      23.132  44.932  48.404  1.00  0.00    -0.225 N 
HETATM   23  C   UNL     1      24.249  44.144  48.699  1.00  0.00     0.168 A 
HETATM   24  C   UNL     1      22.095  44.426  47.627  1.00  0.00     0.122 A 
HETATM   25  N   UNL     1      24.362  42.850  48.245  1.00  0.00    -0.240 NA
HETATM   26  C   UNL     1      23.375  42.415  47.519  1.00  0.00     0.120 A 
HETATM   27  C   UNL     1      22.151  43.176  47.149  1.00  0.00     0.038 A 
ENDBRANCH   1  18
TORSDOF 6
ENDMDL
MODEL 8
REMARK VINA RESULT:      -7.6      3.310      8.158
REMARK  6 active torsions:
REMARK  status: ('A' for Active; 'I' for Inactive)
REMARK    1  A    between atoms: C_6  and  C_7 
REMARK       I    between atoms: C_7  and  N_8 
REMARK    2  A    between atoms: N_8  and  C_9 
REMARK    3  A    between atoms: C_9  and  C_10 
REMARK    4  A    between atoms: C_10  and  O_11 
REMARK    5  A    between atoms: C_10  and  C_12 
REMARK    6  A    between atoms: C_15  and  O_16 
ROOT
HETATM    1  C   UNL     1      26.247  44.362  53.108  1.00  0.00     0.258 C 
HETATM    2  N   UNL     1      26.791  43.828  51.968  1.00  0.00    -0.350 N 
HETATM    3  O   UNL     1      25.041  44.366  53.333  1.00  0.00    -0.267 OA
HETATM    4  H   UNL     1      27.807  43.778  51.896  1.00  0.00     0.163 HD
ENDROOT
BRANCH   2   5
HETATM    5  C   UNL     1      26.009  43.196  50.911  1.00  0.00     0.114 C 
HETATM    6  C   UNL     1      26.461  41.743  50.757  1.00  0.00     0.035 C 
BRANCH   5   7
HETATM    7  C   UNL     1      26.144  43.965  49.566  1.00  0.00     0.173 C 
BRANCH   7   8
HETATM    8  O   UNL     1      27.430  44.593  49.474  1.00  0.00    -0.389 OA
HETATM    9  H   UNL     1      28.022  44.107  50.074  1.00  0.00     0.210 HD
ENDBRANCH   7   8
BRANCH   7  10
HETATM   10  C   UNL     1      25.046  44.991  49.340  1.00  0.00    -0.028 A 
HETATM   11  C   UNL     1      23.835  44.606  48.752  1.00  0.00     0.012 A 
HETATM   12  C   UNL     1      22.813  45.540  48.556  1.00  0.00     0.037 A 
HETATM   13  C   UNL     1      22.974  46.868  48.953  1.00  0.00     0.068 A 
HETATM   14  C   UNL     1      24.178  47.263  49.533  1.00  0.00     0.037 A 
HETATM   15  C   UNL     1      25.205  46.332  49.722  1.00  0.00     0.012 A 
BRANCH  13  16
HETATM   16  O   UNL     1      21.894  47.674  48.715  1.00  0.00    -0.356 OA
HETATM   17  C   UNL     1      22.059  49.059  48.992  1.00  0.00     0.210 C 
ENDBRANCH  13  16
ENDBRANCH   7  10
ENDBRANCH   5   7
ENDBRANCH   2   5
BRANCH   1  18
HETATM   18  C   UNL     1      27.212  44.935  54.034  1.00  0.00     0.105 A 
HETATM   19  C   UNL     1      27.158  46.202  54.676  1.00  0.00     0.071 A 
HETATM   20  C   UNL     1      26.103  47.241  54.549  1.00  0.00     0.073 C 
HETATM   21  N   UNL     1      28.214  46.420  55.467  1.00  0.00    -0.170 NA
HETATM   22  N   UNL     1      28.965  45.303  55.355  1.00  0.00    -0.225 N 
HETATM   23  C   UNL     1      28.395  44.372  54.482  1.00  0.00     0.168 A 
HETATM   24  C   UNL     1      30.171  45.029  55.991  1.00  0.00     0.122 A 
HETATM   25  N   UNL     1      29.000  43.166  54.215  1.00  0.00    -0.240 NA
HETATM   26  C   UNL     1      30.122  42.945  54.831  1.00  0.00     0.120 A 
HETATM   27  C   UNL     1      30.805  43.869  55.777  1.00  0.00     0.038 A 
ENDBRANCH   1  18
TORSDOF 6
ENDMDL
MODEL 9
REMARK VINA RESULT:      -7.4      4.595      9.954
REMARK  6 active torsions:
REMARK  status: ('A' for Active; 'I' for Inactive)
REMARK    1  A    between atoms: C_6  and  C_7 
REMARK       I    between atoms: C_7  and  N_8 
REMARK    2  A    between atoms: N_8  and  C_9 
REMARK    3  A    between atoms: C_9  and  C_10 
REMARK    4  A    between atoms: C_10  and  O_11 
REMARK    5  A    between atoms: C_10  and  C_12 
REMARK    6  A    between atoms: C_15  and  O_16 
ROOT
HETATM    1  C   UNL     1      22.366  47.706  48.488  1.00  0.00     0.258 C 
HETATM    2  N   UNL     1      21.784  48.477  49.462  1.00  0.00    -0.350 N 
HETATM    3  O   UNL     1      22.251  47.945  47.290  1.00  0.00    -0.267 OA
HETATM    4  H   UNL     1      22.003  48.269  50.436  1.00  0.00     0.163 HD
ENDROOT
BRANCH   2   5
HETATM    5  C   UNL     1      20.984  49.666  49.190  1.00  0.00     0.114 C 
HETATM    6  C   UNL     1      21.895  50.894  49.205  1.00  0.00     0.035 C 
BRANCH   5   7
HETATM    7  C   UNL     1      19.827  49.820  50.216  1.00  0.00     0.173 C 
BRANCH   7   8
HETATM    8  O   UNL     1      19.393  48.534  50.681  1.00  0.00    -0.389 OA
HETATM    9  H   UNL     1      19.997  48.278  51.399  1.00  0.00     0.210 HD
ENDBRANCH   7   8
BRANCH   7  10
HETATM   10  C   UNL     1      18.642  50.608  49.683  1.00  0.00    -0.028 A 
HETATM   11  C   UNL     1      17.617  49.951  48.990  1.00  0.00     0.012 A 
HETATM   12  C   UNL     1      16.514  50.666  48.511  1.00  0.00     0.037 A 
HETATM   13  C   UNL     1      16.408  52.041  48.723  1.00  0.00     0.068 A 
HETATM   14  C   UNL     1      17.426  52.705  49.404  1.00  0.00     0.037 A 
HETATM   15  C   UNL     1      18.534  51.993  49.878  1.00  0.00     0.012 A 
BRANCH  13  16
HETATM   16  O   UNL     1      15.275  52.614  48.214  1.00  0.00    -0.356 OA
HETATM   17  C   UNL     1      15.201  52.731  46.798  1.00  0.00     0.210 C 
ENDBRANCH  13  16
ENDBRANCH   7  10
ENDBRANCH   5   7
ENDBRANCH   2   5
BRANCH   1  18
HETATM   18  C   UNL     1      23.129  46.571  48.983  1.00  0.00     0.105 A 
HETATM   19  C   UNL     1      22.987  45.203  48.627  1.00  0.00     0.071 A 
HETATM   20  C   UNL     1      22.022  44.611  47.663  1.00  0.00     0.073 C 
HETATM   21  N   UNL     1      23.850  44.413  49.274  1.00  0.00    -0.170 NA
HETATM   22  N   UNL     1      24.565  45.250  50.055  1.00  0.00    -0.225 N 
HETATM   23  C   UNL     1      24.152  46.578  49.917  1.00  0.00     0.168 A 
HETATM   24  C   UNL     1      25.599  44.919  50.924  1.00  0.00     0.122 A 
HETATM   25  N   UNL     1      24.740  47.597  50.629  1.00  0.00    -0.240 NA
HETATM   26  C   UNL     1      25.706  47.248  51.426  1.00  0.00     0.120 A 
HETATM   27  C   UNL     1      26.217  45.867  51.639  1.00  0.00     0.038 A 
ENDBRANCH   1  18
TORSDOF 6
ENDMDL
MODEL 10
REMARK VINA RESULT:      -7.4      1.593      2.474
REMARK  6 active torsions:
REMARK  status: ('A' for Active; 'I' for Inactive)
REMARK    1  A    between atoms: C_6  and  C_7 
REMARK       I    between atoms: C_7  and  N_8 
REMARK    2  A    between atoms: N_8  and  C_9 
REMARK    3  A    between atoms: C_9  and  C_10 
REMARK    4  A    between atoms: C_10  and  O_11 
REMARK    5  A    between atoms: C_10  and  C_12 
REMARK    6  A    between atoms: C_15  and  O_16 
ROOT
HETATM    1  C   UNL     1      25.183  47.029  49.858  1.00  0.00     0.258 C 
HETATM    2  N   UNL     1      25.264  45.960  50.713  1.00  0.00    -0.350 N 
HETATM    3  O   UNL     1      26.158  47.701  49.536  1.00  0.00    -0.267 OA
HETATM    4  H   UNL     1      24.428  45.394  50.857  1.00  0.00     0.163 HD
ENDROOT
BRANCH   2   5
HETATM    5  C   UNL     1      26.506  45.493  51.319  1.00  0.00     0.114 C 
HETATM    6  C   UNL     1      27.251  44.614  50.313  1.00  0.00     0.035 C 
BRANCH   5   7
HETATM    7  C   UNL     1      26.239  44.720  52.641  1.00  0.00     0.173 C 
BRANCH   7   8
HETATM    8  O   UNL     1      24.974  45.103  53.199  1.00  0.00    -0.389 OA
HETATM    9  H   UNL     1      24.578  44.298  53.575  1.00  0.00     0.210 HD
ENDBRANCH   7   8
BRANCH   7  10
HETATM   10  C   UNL     1      27.337  44.889  53.676  1.00  0.00    -0.028 A 
HETATM   11  C   UNL     1      28.294  43.882  53.855  1.00  0.00     0.012 A 
HETATM   12  C   UNL     1      29.320  44.037  54.793  1.00  0.00     0.037 A 
HETATM   13  C   UNL     1      29.417  45.200  55.559  1.00  0.00     0.068 A 
HETATM   14  C   UNL     1      28.466  46.203  55.395  1.00  0.00     0.037 A 
HETATM   15  C   UNL     1      27.434  46.048  54.462  1.00  0.00     0.012 A 
BRANCH  13  16
HETATM   16  O   UNL     1      30.472  45.227  56.429  1.00  0.00    -0.356 OA
HETATM   17  C   UNL     1      31.236  44.032  56.543  1.00  0.00     0.210 C 
ENDBRANCH  13  16
ENDBRANCH   7  10
ENDBRANCH   5   7
ENDBRANCH   2   5
BRANCH   1  18
HETATM   18  C   UNL     1      23.846  47.316  49.363  1.00  0.00     0.105 A 
HETATM   19  C   UNL     1      22.893  46.398  48.844  1.00  0.00     0.071 A 
HETATM   20  C   UNL     1      23.041  44.928  48.684  1.00  0.00     0.073 C 
HETATM   21  N   UNL     1      21.756  46.996  48.473  1.00  0.00    -0.170 NA
HETATM   22  N   UNL     1      21.949  48.304  48.745  1.00  0.00    -0.225 N 
HETATM   23  C   UNL     1      23.216  48.546  49.283  1.00  0.00     0.168 A 
HETATM   24  C   UNL     1      21.054  49.350  48.546  1.00  0.00     0.122 A 
HETATM   25  N   UNL     1      23.627  49.814  49.625  1.00  0.00    -0.240 NA
HETATM   26  C   UNL     1      22.761  50.764  49.427  1.00  0.00     0.120 A 
HETATM   27  C   UNL     1      21.392  50.605  48.866  1.00  0.00     0.038 A 
ENDBRANCH   1  18
TORSDOF 6
ENDMDL
