MODEL 1
REMARK VINA RESULT:     -10.6      0.000      0.000
REMARK  9 active torsions:
REMARK  status: ('A' for Active; 'I' for Inactive)
REMARK    1  A    between atoms: C_7  and  O_8 
REMARK    2  A    between atoms: O_8  and  C_9 
REMARK    3  A    between atoms: C_10  and  N_11 
REMARK    4  A    between atoms: N_11  and  C_12 
REMARK    5  A    between atoms: C_14  and  C_15 
REMARK       I    between atoms: C_15  and  N_16 
REMARK    6  A    between atoms: N_16  and  C_17 
REMARK    7  A    between atoms: C_17  and  C_18 
REMARK    8  A    between atoms: C_18  and  N_19 
REMARK    9  A    between atoms: N_29  and  C_30 
ROOT
HETATM    1  C   UNL     1      25.602  45.726  52.522  1.00  0.00     0.122 C 
HETATM    2  C   UNL     1      25.735  44.457  52.942  1.00  0.00     0.119 C 
HETATM    3  C   UNL     1      26.824  44.126  53.938  1.00  0.00     0.293 C 
HETATM    4  O   UNL     1      26.836  42.973  54.380  1.00  0.00    -0.264 OA
HETATM    5  N   UNL     1      27.684  45.161  54.299  1.00  0.00    -0.195 N 
HETATM    6  N   UNL     1      27.395  46.484  54.045  1.00  0.00    -0.174 NA
HETATM    7  C   UNL     1      26.427  46.727  53.229  1.00  0.00     0.178 C 
ENDROOT
BRANCH   2   8
HETATM    8  N   UNL     1      24.984  43.347  52.519  1.00  0.00    -0.253 NA
HETATM    9  H   UNL     1      24.009  43.495  52.819  1.00  0.00     0.134 HD
BRANCH   8  10
HETATM   10  C   UNL     1      24.953  42.863  51.183  1.00  0.00     0.014 A 
HETATM   11  C   UNL     1      26.131  42.317  50.652  1.00  0.00     0.040 A 
HETATM   12  C   UNL     1      26.160  41.824  49.342  1.00  0.00     0.033 A 
HETATM   13  C   UNL     1      25.005  41.841  48.555  1.00  0.00     0.017 A 
HETATM   14  C   UNL     1      23.828  42.366  49.079  1.00  0.00     0.003 A 
HETATM   15  C   UNL     1      23.806  42.879  50.379  1.00  0.00     0.024 A 
BRANCH  12  16
HETATM   16  C   UNL     1      27.430  41.269  48.815  1.00  0.00     0.251 C 
HETATM   17  N   UNL     1      28.130  40.428  49.660  1.00  0.00    -0.355 N 
HETATM   18  H   UNL     1      27.616  40.120  50.482  1.00  0.00     0.162 HD
HETATM   19  O   UNL     1      27.847  41.571  47.704  1.00  0.00    -0.268 OA
BRANCH  17  20
HETATM   20  C   UNL     1      29.133  39.485  49.168  1.00  0.00     0.150 C 
BRANCH  20  21
HETATM   21  C   UNL     1      29.105  38.047  49.730  1.00  0.00     0.253 C 
BRANCH  21  22
HETATM   22  N   UNL     1      28.208  37.129  48.925  1.00  0.00    -0.077 N 
HETATM   23  H   UNL     1      28.680  36.211  48.988  1.00  0.00     0.279 HD
HETATM   24  C   UNL     1      26.820  37.000  49.463  1.00  0.00     0.269 C 
HETATM   25  C   UNL     1      28.222  37.474  47.466  1.00  0.00     0.269 C 
ENDBRANCH  21  22
ENDBRANCH  20  21
ENDBRANCH  17  20
ENDBRANCH  12  16
ENDBRANCH   8  10
ENDBRANCH   2   8
BRANCH   1  26
HETATM   26  O   UNL     1      24.654  46.077  51.564  1.00  0.00    -0.307 OA
BRANCH  26  27
HETATM   27  C   UNL     1      24.943  47.061  50.652  1.00  0.00     0.076 A 
HETATM   28  C   UNL     1      23.869  47.640  49.984  1.00  0.00     0.039 A 
HETATM   29  C   UNL     1      24.097  48.652  49.053  1.00  0.00     0.027 A 
HETATM   30  C   UNL     1      25.402  49.078  48.784  1.00  0.00     0.040 A 
HETATM   31  C   UNL     1      26.498  48.475  49.423  1.00  0.00    -0.038 A 
HETATM   32 CL   UNL     1      25.609  50.362  47.648  1.00  0.00    -0.084 Cl
HETATM   33  C   UNL     1      27.909  48.927  49.171  1.00  0.00     0.050 C 
HETATM   34  C   UNL     1      26.254  47.448  50.352  1.00  0.00     0.045 A 
ENDBRANCH  26  27
ENDBRANCH   1  26
BRANCH   5  35
HETATM   35  C   UNL     1      28.804  44.965  55.171  1.00  0.00     0.084 A 
HETATM   36  C   UNL     1      29.818  44.015  54.941  1.00  0.00     0.063 A 
HETATM   37 CL   UNL     1      30.007  43.166  53.440  1.00  0.00    -0.082 Cl
HETATM   38  C   UNL     1      30.852  43.838  55.874  1.00  0.00     0.026 A 
HETATM   39  C   UNL     1      30.910  44.622  57.026  1.00  0.00     0.002 A 
HETATM   40  C   UNL     1      29.951  45.603  57.239  1.00  0.00     0.002 A 
HETATM   41  C   UNL     1      28.915  45.778  56.318  1.00  0.00     0.033 A 
ENDBRANCH   5  35
TORSDOF 9
ENDMDL
MODEL 2
REMARK VINA RESULT:     -10.4      2.622      5.219
REMARK  9 active torsions:
REMARK  status: ('A' for Active; 'I' for Inactive)
REMARK    1  A    between atoms: C_7  and  O_8 
REMARK    2  A    between atoms: O_8  and  C_9 
REMARK    3  A    between atoms: C_10  and  N_11 
REMARK    4  A    between atoms: N_11  and  C_12 
REMARK    5  A    between atoms: C_14  and  C_15 
REMARK       I    between atoms: C_15  and  N_16 
REMARK    6  A    between atoms: N_16  and  C_17 
REMARK    7  A    between atoms: C_17  and  C_18 
REMARK    8  A    between atoms: C_18  and  N_19 
REMARK    9  A    between atoms: N_29  and  C_30 
ROOT
HETATM    1  C   UNL     1      25.619  45.851  52.600  1.00  0.00     0.122 C 
HETATM    2  C   UNL     1      25.737  44.557  52.942  1.00  0.00     0.119 C 
HETATM    3  C   UNL     1      26.849  44.147  53.882  1.00  0.00     0.293 C 
HETATM    4  O   UNL     1      26.849  42.971  54.257  1.00  0.00    -0.264 OA
HETATM    5  N   UNL     1      27.742  45.142  54.275  1.00  0.00    -0.195 N 
HETATM    6  N   UNL     1      27.476  46.482  54.105  1.00  0.00    -0.174 NA
HETATM    7  C   UNL     1      26.488  46.792  53.336  1.00  0.00     0.178 C 
ENDROOT
BRANCH   2   8
HETATM    8  N   UNL     1      24.949  43.489  52.481  1.00  0.00    -0.253 NA
HETATM    9  H   UNL     1      24.030  43.554  52.944  1.00  0.00     0.134 HD
BRANCH   8  10
HETATM   10  C   UNL     1      24.719  43.197  51.109  1.00  0.00     0.014 A 
HETATM   11  C   UNL     1      23.536  43.671  50.522  1.00  0.00     0.040 A 
HETATM   12  C   UNL     1      23.258  43.414  49.175  1.00  0.00     0.033 A 
HETATM   13  C   UNL     1      24.170  42.706  48.386  1.00  0.00     0.017 A 
HETATM   14  C   UNL     1      25.353  42.246  48.957  1.00  0.00     0.003 A 
HETATM   15  C   UNL     1      25.621  42.483  50.308  1.00  0.00     0.024 A 
BRANCH  12  16
HETATM   16  C   UNL     1      21.989  43.920  48.597  1.00  0.00     0.251 C 
HETATM   17  N   UNL     1      21.309  44.863  49.344  1.00  0.00    -0.355 N 
HETATM   18  H   UNL     1      21.835  45.258  50.120  1.00  0.00     0.162 HD
HETATM   19  O   UNL     1      21.557  43.496  47.533  1.00  0.00    -0.268 OA
BRANCH  17  20
HETATM   20  C   UNL     1      20.312  45.755  48.754  1.00  0.00     0.150 C 
BRANCH  20  21
HETATM   21  C   UNL     1      20.724  47.220  48.491  1.00  0.00     0.253 C 
BRANCH  21  22
HETATM   22  N   UNL     1      20.245  48.160  49.577  1.00  0.00    -0.077 N 
HETATM   23  H   UNL     1      20.723  47.814  50.427  1.00  0.00     0.279 HD
HETATM   24  C   UNL     1      20.617  49.591  49.359  1.00  0.00     0.269 C 
HETATM   25  C   UNL     1      18.782  47.989  49.857  1.00  0.00     0.269 C 
ENDBRANCH  21  22
ENDBRANCH  20  21
ENDBRANCH  17  20
ENDBRANCH  12  16
ENDBRANCH   8  10
ENDBRANCH   2   8
BRANCH   1  26
HETATM   26  O   UNL     1      24.651  46.276  51.695  1.00  0.00    -0.307 OA
BRANCH  26  27
HETATM   27  C   UNL     1      24.978  47.201  50.736  1.00  0.00     0.076 A 
HETATM   28  C   UNL     1      23.929  47.759  50.010  1.00  0.00     0.039 A 
HETATM   29  C   UNL     1      24.197  48.713  49.030  1.00  0.00     0.027 A 
HETATM   30  C   UNL     1      25.514  49.102  48.768  1.00  0.00     0.040 A 
HETATM   31  C   UNL     1      26.585  48.518  49.467  1.00  0.00    -0.038 A 
HETATM   32 CL   UNL     1      25.771  50.315  47.567  1.00  0.00    -0.084 Cl
HETATM   33  C   UNL     1      28.009  48.932  49.223  1.00  0.00     0.050 C 
HETATM   34  C   UNL     1      26.302  47.550  50.446  1.00  0.00     0.045 A 
ENDBRANCH  26  27
ENDBRANCH   1  26
BRANCH   5  35
HETATM   35  C   UNL     1      28.884  44.872  55.098  1.00  0.00     0.084 A 
HETATM   36  C   UNL     1      29.846  43.886  54.804  1.00  0.00     0.063 A 
HETATM   37 CL   UNL     1      29.941  43.072  53.275  1.00  0.00    -0.082 Cl
HETATM   38  C   UNL     1      30.904  43.638  55.692  1.00  0.00     0.026 A 
HETATM   39  C   UNL     1      31.040  44.386  56.860  1.00  0.00     0.002 A 
HETATM   40  C   UNL     1      30.134  45.402  57.136  1.00  0.00     0.002 A 
HETATM   41  C   UNL     1      29.074  45.648  56.260  1.00  0.00     0.033 A 
ENDBRANCH   5  35
TORSDOF 9
ENDMDL
MODEL 3
REMARK VINA RESULT:     -10.3      7.791     12.654
REMARK  9 active torsions:
REMARK  status: ('A' for Active; 'I' for Inactive)
REMARK    1  A    between atoms: C_7  and  O_8 
REMARK    2  A    between atoms: O_8  and  C_9 
REMARK    3  A    between atoms: C_10  and  N_11 
REMARK    4  A    between atoms: N_11  and  C_12 
REMARK    5  A    between atoms: C_14  and  C_15 
REMARK       I    between atoms: C_15  and  N_16 
REMARK    6  A    between atoms: N_16  and  C_17 
REMARK    7  A    between atoms: C_17  and  C_18 
REMARK    8  A    between atoms: C_18  and  N_19 
REMARK    9  A    between atoms: N_29  and  C_30 
ROOT
HETATM    1  C   UNL     1      20.591  47.935  48.801  1.00  0.00     0.122 C 
HETATM    2  C   UNL     1      20.968  49.045  49.458  1.00  0.00     0.119 C 
HETATM    3  C   UNL     1      22.438  49.394  49.523  1.00  0.00     0.293 C 
HETATM    4  O   UNL     1      22.726  50.478  50.038  1.00  0.00    -0.264 OA
HETATM    5  N   UNL     1      23.328  48.483  48.957  1.00  0.00    -0.195 N 
HETATM    6  N   UNL     1      22.918  47.486  48.100  1.00  0.00    -0.174 NA
HETATM    7  C   UNL     1      21.652  47.251  48.034  1.00  0.00     0.178 C 
ENDROOT
BRANCH   2   8
HETATM    8  N   UNL     1      20.133  49.934  50.156  1.00  0.00    -0.253 NA
HETATM    9  H   UNL     1      20.688  50.356  50.915  1.00  0.00     0.134 HD
BRANCH   8  10
HETATM   10  C   UNL     1      19.381  50.974  49.544  1.00  0.00     0.014 A 
HETATM   11  C   UNL     1      18.118  51.276  50.076  1.00  0.00     0.040 A 
HETATM   12  C   UNL     1      17.333  52.290  49.515  1.00  0.00     0.033 A 
HETATM   13  C   UNL     1      17.811  53.037  48.434  1.00  0.00     0.017 A 
HETATM   14  C   UNL     1      19.069  52.755  47.910  1.00  0.00     0.003 A 
HETATM   15  C   UNL     1      19.843  51.727  48.456  1.00  0.00     0.024 A 
BRANCH  12  16
HETATM   16  C   UNL     1      15.999  52.568  50.098  1.00  0.00     0.251 C 
HETATM   17  N   UNL     1      15.915  53.654  50.948  1.00  0.00    -0.355 N 
HETATM   18  H   UNL     1      16.725  54.269  50.942  1.00  0.00     0.162 HD
HETATM   19  O   UNL     1      15.036  51.848  49.863  1.00  0.00    -0.268 OA
BRANCH  17  20
HETATM   20  C   UNL     1      14.644  54.309  51.255  1.00  0.00     0.150 C 
BRANCH  20  21
HETATM   21  C   UNL     1      14.691  55.760  51.780  1.00  0.00     0.253 C 
BRANCH  21  22
HETATM   22  N   UNL     1      14.496  55.840  53.280  1.00  0.00    -0.077 N 
HETATM   23  H   UNL     1      14.818  54.917  53.617  1.00  0.00     0.279 HD
HETATM   24  C   UNL     1      15.298  56.909  53.948  1.00  0.00     0.269 C 
HETATM   25  C   UNL     1      13.044  55.903  53.650  1.00  0.00     0.269 C 
ENDBRANCH  21  22
ENDBRANCH  20  21
ENDBRANCH  17  20
ENDBRANCH  12  16
ENDBRANCH   8  10
ENDBRANCH   2   8
BRANCH   1  26
HETATM   26  O   UNL     1      19.258  47.536  48.758  1.00  0.00    -0.307 OA
BRANCH  26  27
HETATM   27  C   UNL     1      18.359  48.256  48.013  1.00  0.00     0.076 A 
HETATM   28  C   UNL     1      17.051  48.317  48.486  1.00  0.00     0.039 A 
HETATM   29  C   UNL     1      16.093  49.043  47.779  1.00  0.00     0.027 A 
HETATM   30  C   UNL     1      16.440  49.698  46.594  1.00  0.00     0.040 A 
HETATM   31  C   UNL     1      17.747  49.611  46.085  1.00  0.00    -0.038 A 
HETATM   32 CL   UNL     1      15.214  50.608  45.789  1.00  0.00    -0.084 Cl
HETATM   33  C   UNL     1      18.156  50.323  44.826  1.00  0.00     0.050 C 
HETATM   34  C   UNL     1      18.702  48.869  46.803  1.00  0.00     0.045 A 
ENDBRANCH  26  27
ENDBRANCH   1  26
BRANCH   5  35
HETATM   35  C   UNL     1      24.749  48.652  49.020  1.00  0.00     0.084 A 
HETATM   36  C   UNL     1      25.598  47.858  49.815  1.00  0.00     0.063 A 
HETATM   37 CL   UNL     1      25.084  46.394  50.591  1.00  0.00    -0.082 Cl
HETATM   38  C   UNL     1      26.975  48.125  49.872  1.00  0.00     0.026 A 
HETATM   39  C   UNL     1      27.530  49.158  49.118  1.00  0.00     0.002 A 
HETATM   40  C   UNL     1      26.715  49.914  48.283  1.00  0.00     0.002 A 
HETATM   41  C   UNL     1      25.343  49.658  48.229  1.00  0.00     0.033 A 
ENDBRANCH   5  35
TORSDOF 9
ENDMDL
MODEL 4
REMARK VINA RESULT:     -10.3      1.794      6.070
REMARK  9 active torsions:
REMARK  status: ('A' for Active; 'I' for Inactive)
REMARK    1  A    between atoms: C_7  and  O_8 
REMARK    2  A    between atoms: O_8  and  C_9 
REMARK    3  A    between atoms: C_10  and  N_11 
REMARK    4  A    between atoms: N_11  and  C_12 
REMARK    5  A    between atoms: C_14  and  C_15 
REMARK       I    between atoms: C_15  and  N_16 
REMARK    6  A    between atoms: N_16  and  C_17 
REMARK    7  A    between atoms: C_17  and  C_18 
REMARK    8  A    between atoms: C_18  and  N_19 
REMARK    9  A    between atoms: N_29  and  C_30 
ROOT
HETATM    1  C   UNL     1      25.375  45.361  52.367  1.00  0.00     0.122 C 
HETATM    2  C   UNL     1      24.558  45.001  51.363  1.00  0.00     0.119 C 
HETATM    3  C   UNL     1      24.240  46.010  50.282  1.00  0.00     0.293 C 
HETATM    4  O   UNL     1      23.579  45.602  49.322  1.00  0.00    -0.264 OA
HETATM    5  N   UNL     1      24.759  47.293  50.444  1.00  0.00    -0.195 N 
HETATM    6  N   UNL     1      25.765  47.575  51.341  1.00  0.00    -0.174 NA
HETATM    7  C   UNL     1      26.043  46.670  52.216  1.00  0.00     0.178 C 
ENDROOT
BRANCH   2   8
HETATM    8  N   UNL     1      23.904  43.767  51.210  1.00  0.00    -0.253 NA
HETATM    9  H   UNL     1      22.922  43.961  50.965  1.00  0.00     0.134 HD
BRANCH   8  10
HETATM   10  C   UNL     1      24.359  42.718  50.365  1.00  0.00     0.014 A 
HETATM   11  C   UNL     1      25.573  42.093  50.686  1.00  0.00     0.040 A 
HETATM   12  C   UNL     1      26.070  41.053  49.891  1.00  0.00     0.033 A 
HETATM   13  C   UNL     1      25.348  40.604  48.781  1.00  0.00     0.017 A 
HETATM   14  C   UNL     1      24.135  41.209  48.465  1.00  0.00     0.003 A 
HETATM   15  C   UNL     1      23.650  42.262  49.246  1.00  0.00     0.024 A 
BRANCH  12  16
HETATM   16  C   UNL     1      27.364  40.429  50.257  1.00  0.00     0.251 C 
HETATM   17  N   UNL     1      27.448  39.058  50.107  1.00  0.00    -0.355 N 
HETATM   18  H   UNL     1      26.685  38.635  49.583  1.00  0.00     0.162 HD
HETATM   19  O   UNL     1      28.292  41.093  50.700  1.00  0.00    -0.268 OA
BRANCH  17  20
HETATM   20  C   UNL     1      28.728  38.359  50.007  1.00  0.00     0.150 C 
BRANCH  20  21
HETATM   21  C   UNL     1      29.343  38.182  48.602  1.00  0.00     0.253 C 
BRANCH  21  22
HETATM   22  N   UNL     1      28.290  38.097  47.516  1.00  0.00    -0.077 N 
HETATM   23  H   UNL     1      27.419  37.901  48.037  1.00  0.00     0.279 HD
HETATM   24  C   UNL     1      28.114  39.356  46.731  1.00  0.00     0.269 C 
HETATM   25  C   UNL     1      28.494  36.901  46.635  1.00  0.00     0.269 C 
ENDBRANCH  21  22
ENDBRANCH  20  21
ENDBRANCH  17  20
ENDBRANCH  12  16
ENDBRANCH   8  10
ENDBRANCH   2   8
BRANCH   1  26
HETATM   26  O   UNL     1      25.656  44.492  53.418  1.00  0.00    -0.307 OA
BRANCH  26  27
HETATM   27  C   UNL     1      26.937  44.406  53.902  1.00  0.00     0.076 A 
HETATM   28  C   UNL     1      27.245  45.179  55.018  1.00  0.00     0.039 A 
HETATM   29  C   UNL     1      28.528  45.127  55.563  1.00  0.00     0.027 A 
HETATM   30  C   UNL     1      29.503  44.308  54.987  1.00  0.00     0.040 A 
HETATM   31  C   UNL     1      29.216  43.552  53.838  1.00  0.00    -0.038 A 
HETATM   32 CL   UNL     1      31.058  44.262  55.736  1.00  0.00    -0.084 Cl
HETATM   33  C   UNL     1      30.238  42.646  53.209  1.00  0.00     0.050 C 
HETATM   34  C   UNL     1      27.922  43.621  53.292  1.00  0.00     0.045 A 
ENDBRANCH  26  27
ENDBRANCH   1  26
BRANCH   5  35
HETATM   35  C   UNL     1      24.469  48.363  49.536  1.00  0.00     0.084 A 
HETATM   36  C   UNL     1      25.456  49.111  48.866  1.00  0.00     0.063 A 
HETATM   37 CL   UNL     1      27.130  48.655  48.819  1.00  0.00    -0.082 Cl
HETATM   38  C   UNL     1      25.095  50.186  48.039  1.00  0.00     0.026 A 
HETATM   39  C   UNL     1      23.754  50.510  47.840  1.00  0.00     0.002 A 
HETATM   40  C   UNL     1      22.765  49.746  48.447  1.00  0.00     0.002 A 
HETATM   41  C   UNL     1      23.119  48.680  49.278  1.00  0.00     0.033 A 
ENDBRANCH   5  35
TORSDOF 9
ENDMDL
MODEL 5
REMARK VINA RESULT:     -10.2      2.613      7.247
REMARK  9 active torsions:
REMARK  status: ('A' for Active; 'I' for Inactive)
REMARK    1  A    between atoms: C_7  and  O_8 
REMARK    2  A    between atoms: O_8  and  C_9 
REMARK    3  A    between atoms: C_10  and  N_11 
REMARK    4  A    between atoms: N_11  and  C_12 
REMARK    5  A    between atoms: C_14  and  C_15 
REMARK       I    between atoms: C_15  and  N_16 
REMARK    6  A    between atoms: N_16  and  C_17 
REMARK    7  A    between atoms: C_17  and  C_18 
REMARK    8  A    between atoms: C_18  and  N_19 
REMARK    9  A    between atoms: N_29  and  C_30 
ROOT
HETATM    1  C   UNL     1      26.349  45.194  52.445  1.00  0.00     0.122 C 
HETATM    2  C   UNL     1      26.817  44.986  51.202  1.00  0.00     0.119 C 
HETATM    3  C   UNL     1      26.581  46.044  50.147  1.00  0.00     0.293 C 
HETATM    4  O   UNL     1      27.124  45.863  49.053  1.00  0.00    -0.264 OA
HETATM    5  N   UNL     1      25.811  47.144  50.517  1.00  0.00    -0.195 N 
HETATM    6  N   UNL     1      25.541  47.448  51.833  1.00  0.00    -0.174 NA
HETATM    7  C   UNL     1      25.803  46.540  52.711  1.00  0.00     0.178 C 
ENDROOT
BRANCH   2   8
HETATM    8  N   UNL     1      27.487  43.844  50.734  1.00  0.00    -0.253 NA
HETATM    9  H   UNL     1      28.120  43.524  51.481  1.00  0.00     0.134 HD
BRANCH   8  10
HETATM   10  C   UNL     1      26.839  42.698  50.199  1.00  0.00     0.014 A 
HETATM   11  C   UNL     1      25.616  42.881  49.536  1.00  0.00     0.040 A 
HETATM   12  C   UNL     1      24.933  41.789  48.988  1.00  0.00     0.033 A 
HETATM   13  C   UNL     1      25.476  40.503  49.068  1.00  0.00     0.017 A 
HETATM   14  C   UNL     1      26.697  40.315  49.709  1.00  0.00     0.003 A 
HETATM   15  C   UNL     1      27.368  41.402  50.276  1.00  0.00     0.024 A 
BRANCH  12  16
HETATM   16  C   UNL     1      23.636  42.024  48.309  1.00  0.00     0.251 C 
HETATM   17  N   UNL     1      23.643  42.936  47.271  1.00  0.00    -0.355 N 
HETATM   18  H   UNL     1      24.568  43.213  46.949  1.00  0.00     0.162 HD
HETATM   19  O   UNL     1      22.611  41.463  48.676  1.00  0.00    -0.268 OA
BRANCH  17  20
HETATM   20  C   UNL     1      22.598  42.966  46.250  1.00  0.00     0.150 C 
BRANCH  20  21
HETATM   21  C   UNL     1      21.329  43.795  46.543  1.00  0.00     0.253 C 
BRANCH  21  22
HETATM   22  N   UNL     1      21.598  44.953  47.481  1.00  0.00    -0.077 N 
HETATM   23  H   UNL     1      22.498  44.703  47.925  1.00  0.00     0.279 HD
HETATM   24  C   UNL     1      21.743  46.275  46.800  1.00  0.00     0.269 C 
HETATM   25  C   UNL     1      20.609  44.999  48.608  1.00  0.00     0.269 C 
ENDBRANCH  21  22
ENDBRANCH  20  21
ENDBRANCH  17  20
ENDBRANCH  12  16
ENDBRANCH   8  10
ENDBRANCH   2   8
BRANCH   1  26
HETATM   26  O   UNL     1      26.488  44.230  53.440  1.00  0.00    -0.307 OA
BRANCH  26  27
HETATM   27  C   UNL     1      27.670  44.133  54.130  1.00  0.00     0.076 A 
HETATM   28  C   UNL     1      28.428  42.983  53.928  1.00  0.00     0.039 A 
HETATM   29  C   UNL     1      29.644  42.831  54.593  1.00  0.00     0.027 A 
HETATM   30  C   UNL     1      30.097  43.824  55.466  1.00  0.00     0.040 A 
HETATM   31  C   UNL     1      29.323  44.971  55.708  1.00  0.00    -0.038 A 
HETATM   32 CL   UNL     1      31.629  43.587  56.227  1.00  0.00    -0.084 Cl
HETATM   33  C   UNL     1      29.795  46.066  56.625  1.00  0.00     0.050 C 
HETATM   34  C   UNL     1      28.094  45.108  55.040  1.00  0.00     0.045 A 
ENDBRANCH  26  27
ENDBRANCH   1  26
BRANCH   5  35
HETATM   35  C   UNL     1      25.446  48.177  49.593  1.00  0.00     0.084 A 
HETATM   36  C   UNL     1      26.358  49.106  49.057  1.00  0.00     0.063 A 
HETATM   37 CL   UNL     1      28.080  48.951  49.211  1.00  0.00    -0.082 Cl
HETATM   38  C   UNL     1      25.914  50.130  48.205  1.00  0.00     0.026 A 
HETATM   39  C   UNL     1      24.570  50.222  47.847  1.00  0.00     0.002 A 
HETATM   40  C   UNL     1      23.667  49.278  48.319  1.00  0.00     0.002 A 
HETATM   41  C   UNL     1      24.102  48.262  49.175  1.00  0.00     0.033 A 
ENDBRANCH   5  35
TORSDOF 9
ENDMDL
MODEL 6
REMARK VINA RESULT:      -9.9      2.260      3.120
REMARK  9 active torsions:
REMARK  status: ('A' for Active; 'I' for Inactive)
REMARK    1  A    between atoms: C_7  and  O_8 
REMARK    2  A    between atoms: O_8  and  C_9 
REMARK    3  A    between atoms: C_10  and  N_11 
REMARK    4  A    between atoms: N_11  and  C_12 
REMARK    5  A    between atoms: C_14  and  C_15 
REMARK       I    between atoms: C_15  and  N_16 
REMARK    6  A    between atoms: N_16  and  C_17 
REMARK    7  A    between atoms: C_17  and  C_18 
REMARK    8  A    between atoms: C_18  and  N_19 
REMARK    9  A    between atoms: N_29  and  C_30 
ROOT
HETATM    1  C   UNL     1      24.549  46.457  50.174  1.00  0.00     0.122 C 
HETATM    2  C   UNL     1      24.269  45.425  50.987  1.00  0.00     0.119 C 
HETATM    3  C   UNL     1      25.039  45.285  52.282  1.00  0.00     0.293 C 
HETATM    4  O   UNL     1      24.671  44.390  53.049  1.00  0.00    -0.264 OA
HETATM    5  N   UNL     1      26.060  46.205  52.511  1.00  0.00    -0.195 N 
HETATM    6  N   UNL     1      26.176  47.374  51.792  1.00  0.00    -0.174 NA
HETATM    7  C   UNL     1      25.466  47.477  50.720  1.00  0.00     0.178 C 
ENDROOT
BRANCH   2   8
HETATM    8  N   UNL     1      23.343  44.395  50.754  1.00  0.00    -0.253 NA
HETATM    9  H   UNL     1      22.448  44.831  50.488  1.00  0.00     0.134 HD
BRANCH   8  10
HETATM   10  C   UNL     1      23.566  43.302  49.873  1.00  0.00     0.014 A 
HETATM   11  C   UNL     1      24.663  42.464  50.126  1.00  0.00     0.040 A 
HETATM   12  C   UNL     1      24.931  41.372  49.293  1.00  0.00     0.033 A 
HETATM   13  C   UNL     1      24.091  41.082  48.213  1.00  0.00     0.017 A 
HETATM   14  C   UNL     1      22.992  41.899  47.964  1.00  0.00     0.003 A 
HETATM   15  C   UNL     1      22.737  43.003  48.783  1.00  0.00     0.024 A 
BRANCH  12  16
HETATM   16  C   UNL     1      26.109  40.520  49.587  1.00  0.00     0.251 C 
HETATM   17  N   UNL     1      27.077  40.451  48.603  1.00  0.00    -0.355 N 
HETATM   18  H   UNL     1      26.982  41.137  47.857  1.00  0.00     0.162 HD
HETATM   19  O   UNL     1      26.196  39.888  50.631  1.00  0.00    -0.268 OA
BRANCH  17  20
HETATM   20  C   UNL     1      28.448  40.030  48.884  1.00  0.00     0.150 C 
BRANCH  20  21
HETATM   21  C   UNL     1      28.770  38.522  48.798  1.00  0.00     0.253 C 
BRANCH  21  22
HETATM   22  N   UNL     1      28.411  37.780  50.068  1.00  0.00    -0.077 N 
HETATM   23  H   UNL     1      28.005  38.514  50.673  1.00  0.00     0.279 HD
HETATM   24  C   UNL     1      27.404  36.693  49.881  1.00  0.00     0.269 C 
HETATM   25  C   UNL     1      29.631  37.305  50.800  1.00  0.00     0.269 C 
ENDBRANCH  21  22
ENDBRANCH  20  21
ENDBRANCH  17  20
ENDBRANCH  12  16
ENDBRANCH   8  10
ENDBRANCH   2   8
BRANCH   1  26
HETATM   26  O   UNL     1      23.912  46.602  48.944  1.00  0.00    -0.307 OA
BRANCH  26  27
HETATM   27  C   UNL     1      22.734  47.302  48.869  1.00  0.00     0.076 A 
HETATM   28  C   UNL     1      21.601  46.593  48.480  1.00  0.00     0.039 A 
HETATM   29  C   UNL     1      20.372  47.246  48.395  1.00  0.00     0.027 A 
HETATM   30  C   UNL     1      20.278  48.609  48.690  1.00  0.00     0.040 A 
HETATM   31  C   UNL     1      21.421  49.344  49.046  1.00  0.00    -0.038 A 
HETATM   32 CL   UNL     1      18.719  49.346  48.601  1.00  0.00    -0.084 Cl
HETATM   33  C   UNL     1      21.348  50.806  49.391  1.00  0.00     0.050 C 
HETATM   34  C   UNL     1      22.656  48.677  49.118  1.00  0.00     0.045 A 
ENDBRANCH  26  27
ENDBRANCH   1  26
BRANCH   5  35
HETATM   35  C   UNL     1      26.916  46.137  53.659  1.00  0.00     0.084 A 
HETATM   36  C   UNL     1      27.829  45.091  53.894  1.00  0.00     0.063 A 
HETATM   37 CL   UNL     1      28.249  43.905  52.699  1.00  0.00    -0.082 Cl
HETATM   38  C   UNL     1      28.589  45.062  55.073  1.00  0.00     0.026 A 
HETATM   39  C   UNL     1      28.480  46.085  56.014  1.00  0.00     0.002 A 
HETATM   40  C   UNL     1      27.628  47.155  55.770  1.00  0.00     0.002 A 
HETATM   41  C   UNL     1      26.862  47.185  54.602  1.00  0.00     0.033 A 
ENDBRANCH   5  35
TORSDOF 9
ENDMDL
MODEL 7
REMARK VINA RESULT:      -9.9      2.056      3.024
REMARK  9 active torsions:
REMARK  status: ('A' for Active; 'I' for Inactive)
REMARK    1  A    between atoms: C_7  and  O_8 
REMARK    2  A    between atoms: O_8  and  C_9 
REMARK    3  A    between atoms: C_10  and  N_11 
REMARK    4  A    between atoms: N_11  and  C_12 
REMARK    5  A    between atoms: C_14  and  C_15 
REMARK       I    between atoms: C_15  and  N_16 
REMARK    6  A    between atoms: N_16  and  C_17 
REMARK    7  A    between atoms: C_17  and  C_18 
REMARK    8  A    between atoms: C_18  and  N_19 
REMARK    9  A    between atoms: N_29  and  C_30 
ROOT
HETATM    1  C   UNL     1      24.572  46.545  50.283  1.00  0.00     0.122 C 
HETATM    2  C   UNL     1      24.298  45.481  51.057  1.00  0.00     0.119 C 
HETATM    3  C   UNL     1      25.100  45.272  52.322  1.00  0.00     0.293 C 
HETATM    4  O   UNL     1      24.740  44.349  53.058  1.00  0.00    -0.264 OA
HETATM    5  N   UNL     1      26.142  46.165  52.564  1.00  0.00    -0.195 N 
HETATM    6  N   UNL     1      26.258  47.363  51.894  1.00  0.00    -0.174 NA
HETATM    7  C   UNL     1      25.520  47.525  50.849  1.00  0.00     0.178 C 
ENDROOT
BRANCH   2   8
HETATM    8  N   UNL     1      23.348  44.477  50.804  1.00  0.00    -0.253 NA
HETATM    9  H   UNL     1      22.473  44.938  50.518  1.00  0.00     0.134 HD
BRANCH   8  10
HETATM   10  C   UNL     1      23.561  43.377  49.930  1.00  0.00     0.014 A 
HETATM   11  C   UNL     1      24.655  42.535  50.182  1.00  0.00     0.040 A 
HETATM   12  C   UNL     1      24.913  41.436  49.355  1.00  0.00     0.033 A 
HETATM   13  C   UNL     1      24.065  41.143  48.282  1.00  0.00     0.017 A 
HETATM   14  C   UNL     1      22.969  41.963  48.035  1.00  0.00     0.003 A 
HETATM   15  C   UNL     1      22.724  43.074  48.847  1.00  0.00     0.024 A 
BRANCH  12  16
HETATM   16  C   UNL     1      26.089  40.581  49.648  1.00  0.00     0.251 C 
HETATM   17  N   UNL     1      27.061  40.518  48.668  1.00  0.00    -0.355 N 
HETATM   18  H   UNL     1      26.970  41.210  47.927  1.00  0.00     0.162 HD
HETATM   19  O   UNL     1      26.170  39.940  50.688  1.00  0.00    -0.268 OA
BRANCH  17  20
HETATM   20  C   UNL     1      28.431  40.093  48.952  1.00  0.00     0.150 C 
BRANCH  20  21
HETATM   21  C   UNL     1      28.760  38.590  48.819  1.00  0.00     0.253 C 
BRANCH  21  22
HETATM   22  N   UNL     1      28.379  37.802  50.055  1.00  0.00    -0.077 N 
HETATM   23  H   UNL     1      27.996  38.520  50.694  1.00  0.00     0.279 HD
HETATM   24  C   UNL     1      27.337  36.757  49.821  1.00  0.00     0.269 C 
HETATM   25  C   UNL     1      29.584  37.257  50.762  1.00  0.00     0.269 C 
ENDBRANCH  21  22
ENDBRANCH  20  21
ENDBRANCH  17  20
ENDBRANCH  12  16
ENDBRANCH   8  10
ENDBRANCH   2   8
BRANCH   1  26
HETATM   26  O   UNL     1      23.904  46.755  49.080  1.00  0.00    -0.307 OA
BRANCH  26  27
HETATM   27  C   UNL     1      23.069  47.836  48.948  1.00  0.00     0.076 A 
HETATM   28  C   UNL     1      23.668  49.081  48.771  1.00  0.00     0.039 A 
HETATM   29  C   UNL     1      22.872  50.216  48.620  1.00  0.00     0.027 A 
HETATM   30  C   UNL     1      21.479  50.108  48.656  1.00  0.00     0.040 A 
HETATM   31  C   UNL     1      20.863  48.864  48.872  1.00  0.00    -0.038 A 
HETATM   32 CL   UNL     1      20.555  51.548  48.424  1.00  0.00    -0.084 Cl
HETATM   33  C   UNL     1      19.367  48.713  48.894  1.00  0.00     0.050 C 
HETATM   34  C   UNL     1      21.676  47.728  49.033  1.00  0.00     0.045 A 
ENDBRANCH  26  27
ENDBRANCH   1  26
BRANCH   5  35
HETATM   35  C   UNL     1      27.028  46.033  53.682  1.00  0.00     0.084 A 
HETATM   36  C   UNL     1      27.935  44.967  53.840  1.00  0.00     0.063 A 
HETATM   37 CL   UNL     1      28.310  43.838  52.577  1.00  0.00    -0.082 Cl
HETATM   38  C   UNL     1      28.728  44.873  54.995  1.00  0.00     0.026 A 
HETATM   39  C   UNL     1      28.655  45.849  55.988  1.00  0.00     0.002 A 
HETATM   40  C   UNL     1      27.809  46.938  55.820  1.00  0.00     0.002 A 
HETATM   41  C   UNL     1      27.011  47.033  54.676  1.00  0.00     0.033 A 
ENDBRANCH   5  35
TORSDOF 9
ENDMDL
MODEL 8
REMARK VINA RESULT:      -9.8      2.614      4.247
REMARK  9 active torsions:
REMARK  status: ('A' for Active; 'I' for Inactive)
REMARK    1  A    between atoms: C_7  and  O_8 
REMARK    2  A    between atoms: O_8  and  C_9 
REMARK    3  A    between atoms: C_10  and  N_11 
REMARK    4  A    between atoms: N_11  and  C_12 
REMARK    5  A    between atoms: C_14  and  C_15 
REMARK       I    between atoms: C_15  and  N_16 
REMARK    6  A    between atoms: N_16  and  C_17 
REMARK    7  A    between atoms: C_17  and  C_18 
REMARK    8  A    between atoms: C_18  and  N_19 
REMARK    9  A    between atoms: N_29  and  C_30 
ROOT
HETATM    1  C   UNL     1      25.594  45.796  52.593  1.00  0.00     0.122 C 
HETATM    2  C   UNL     1      25.759  44.522  52.987  1.00  0.00     0.119 C 
HETATM    3  C   UNL     1      26.839  44.203  53.997  1.00  0.00     0.293 C 
HETATM    4  O   UNL     1      26.879  43.042  54.414  1.00  0.00    -0.264 OA
HETATM    5  N   UNL     1      27.660  45.255  54.397  1.00  0.00    -0.195 N 
HETATM    6  N   UNL     1      27.335  46.574  54.165  1.00  0.00    -0.174 NA
HETATM    7  C   UNL     1      26.375  46.806  53.337  1.00  0.00     0.178 C 
ENDROOT
BRANCH   2   8
HETATM    8  N   UNL     1      25.050  43.400  52.527  1.00  0.00    -0.253 NA
HETATM    9  H   UNL     1      24.046  43.586  52.660  1.00  0.00     0.134 HD
BRANCH   8  10
HETATM   10  C   UNL     1      25.214  42.824  51.238  1.00  0.00     0.014 A 
HETATM   11  C   UNL     1      24.267  43.135  50.250  1.00  0.00     0.040 A 
HETATM   12  C   UNL     1      24.377  42.597  48.963  1.00  0.00     0.033 A 
HETATM   13  C   UNL     1      25.451  41.764  48.634  1.00  0.00     0.017 A 
HETATM   14  C   UNL     1      26.404  41.463  49.603  1.00  0.00     0.003 A 
HETATM   15  C   UNL     1      26.281  41.982  50.895  1.00  0.00     0.024 A 
BRANCH  12  16
HETATM   16  C   UNL     1      23.347  42.939  47.953  1.00  0.00     0.251 C 
HETATM   17  N   UNL     1      23.778  43.666  46.859  1.00  0.00    -0.355 N 
HETATM   18  H   UNL     1      24.788  43.729  46.756  1.00  0.00     0.162 HD
HETATM   19  O   UNL     1      22.174  42.624  48.105  1.00  0.00    -0.268 OA
BRANCH  17  20
HETATM   20  C   UNL     1      23.024  43.713  45.607  1.00  0.00     0.150 C 
BRANCH  20  21
HETATM   21  C   UNL     1      22.251  45.009  45.281  1.00  0.00     0.253 C 
BRANCH  21  22
HETATM   22  N   UNL     1      20.838  44.737  44.808  1.00  0.00    -0.077 N 
HETATM   23  H   UNL     1      20.962  44.028  44.066  1.00  0.00     0.279 HD
HETATM   24  C   UNL     1      19.933  44.187  45.861  1.00  0.00     0.269 C 
HETATM   25  C   UNL     1      20.245  45.926  44.113  1.00  0.00     0.269 C 
ENDBRANCH  21  22
ENDBRANCH  20  21
ENDBRANCH  17  20
ENDBRANCH  12  16
ENDBRANCH   8  10
ENDBRANCH   2   8
BRANCH   1  26
HETATM   26  O   UNL     1      24.654  46.139  51.625  1.00  0.00    -0.307 OA
BRANCH  26  27
HETATM   27  C   UNL     1      24.958  47.100  50.695  1.00  0.00     0.076 A 
HETATM   28  C   UNL     1      23.893  47.674  50.006  1.00  0.00     0.039 A 
HETATM   29  C   UNL     1      24.138  48.665  49.055  1.00  0.00     0.027 A 
HETATM   30  C   UNL     1      25.447  49.074  48.787  1.00  0.00     0.040 A 
HETATM   31  C   UNL     1      26.533  48.475  49.447  1.00  0.00    -0.038 A 
HETATM   32 CL   UNL     1      25.674  50.331  47.625  1.00  0.00    -0.084 Cl
HETATM   33  C   UNL     1      27.951  48.910  49.196  1.00  0.00     0.050 C 
HETATM   34  C   UNL     1      26.275  47.471  50.396  1.00  0.00     0.045 A 
ENDBRANCH  26  27
ENDBRANCH   1  26
BRANCH   5  35
HETATM   35  C   UNL     1      28.769  45.074  55.285  1.00  0.00     0.084 A 
HETATM   36  C   UNL     1      29.801  44.140  55.069  1.00  0.00     0.063 A 
HETATM   37 CL   UNL     1      30.025  43.297  53.569  1.00  0.00    -0.082 Cl
HETATM   38  C   UNL     1      30.823  43.976  56.017  1.00  0.00     0.026 A 
HETATM   39  C   UNL     1      30.852  44.758  57.171  1.00  0.00     0.002 A 
HETATM   40  C   UNL     1      29.875  45.725  57.372  1.00  0.00     0.002 A 
HETATM   41  C   UNL     1      28.851  45.886  56.435  1.00  0.00     0.033 A 
ENDBRANCH   5  35
TORSDOF 9
ENDMDL
MODEL 9
REMARK VINA RESULT:      -9.8      3.037      6.798
REMARK  9 active torsions:
REMARK  status: ('A' for Active; 'I' for Inactive)
REMARK    1  A    between atoms: C_7  and  O_8 
REMARK    2  A    between atoms: O_8  and  C_9 
REMARK    3  A    between atoms: C_10  and  N_11 
REMARK    4  A    between atoms: N_11  and  C_12 
REMARK    5  A    between atoms: C_14  and  C_15 
REMARK       I    between atoms: C_15  and  N_16 
REMARK    6  A    between atoms: N_16  and  C_17 
REMARK    7  A    between atoms: C_17  and  C_18 
REMARK    8  A    between atoms: C_18  and  N_19 
REMARK    9  A    between atoms: N_29  and  C_30 
ROOT
HETATM    1  C   UNL     1      25.211  45.341  52.383  1.00  0.00     0.122 C 
HETATM    2  C   UNL     1      24.491  44.978  51.308  1.00  0.00     0.119 C 
HETATM    3  C   UNL     1      24.253  45.992  50.211  1.00  0.00     0.293 C 
HETATM    4  O   UNL     1      23.684  45.582  49.195  1.00  0.00    -0.264 OA
HETATM    5  N   UNL     1      24.735  47.281  50.428  1.00  0.00    -0.195 N 
HETATM    6  N   UNL     1      25.655  47.569  51.411  1.00  0.00    -0.174 NA
HETATM    7  C   UNL     1      25.869  46.660  52.301  1.00  0.00     0.178 C 
ENDROOT
BRANCH   2   8
HETATM    8  N   UNL     1      23.871  43.736  51.090  1.00  0.00    -0.253 NA
HETATM    9  H   UNL     1      22.863  43.905  50.969  1.00  0.00     0.134 HD
BRANCH   8  10
HETATM   10  C   UNL     1      24.274  42.805  50.094  1.00  0.00     0.014 A 
HETATM   11  C   UNL     1      23.275  42.192  49.321  1.00  0.00     0.040 A 
HETATM   12  C   UNL     1      23.612  41.268  48.326  1.00  0.00     0.033 A 
HETATM   13  C   UNL     1      24.953  40.964  48.067  1.00  0.00     0.017 A 
HETATM   14  C   UNL     1      25.950  41.578  48.819  1.00  0.00     0.003 A 
HETATM   15  C   UNL     1      25.612  42.485  49.828  1.00  0.00     0.024 A 
BRANCH  12  16
HETATM   16  C   UNL     1      22.526  40.632  47.542  1.00  0.00     0.251 C 
HETATM   17  N   UNL     1      22.651  39.277  47.307  1.00  0.00    -0.355 N 
HETATM   18  H   UNL     1      23.372  38.810  47.853  1.00  0.00     0.162 HD
HETATM   19  O   UNL     1      21.590  41.286  47.101  1.00  0.00    -0.268 OA
BRANCH  17  20
HETATM   20  C   UNL     1      21.509  38.438  46.945  1.00  0.00     0.150 C 
BRANCH  20  21
HETATM   21  C   UNL     1      21.758  36.925  46.761  1.00  0.00     0.253 C 
BRANCH  21  22
HETATM   22  N   UNL     1      21.493  36.136  48.027  1.00  0.00    -0.077 N 
HETATM   23  H   UNL     1      21.684  36.816  48.782  1.00  0.00     0.279 HD
HETATM   24  C   UNL     1      20.089  35.644  48.160  1.00  0.00     0.269 C 
HETATM   25  C   UNL     1      22.500  35.043  48.223  1.00  0.00     0.269 C 
ENDBRANCH  21  22
ENDBRANCH  20  21
ENDBRANCH  17  20
ENDBRANCH  12  16
ENDBRANCH   8  10
ENDBRANCH   2   8
BRANCH   1  26
HETATM   26  O   UNL     1      25.413  44.467  53.448  1.00  0.00    -0.307 OA
BRANCH  26  27
HETATM   27  C   UNL     1      26.687  44.234  53.902  1.00  0.00     0.076 A 
HETATM   28  C   UNL     1      27.277  43.027  53.540  1.00  0.00     0.039 A 
HETATM   29  C   UNL     1      28.574  42.737  53.962  1.00  0.00     0.027 A 
HETATM   30  C   UNL     1      29.276  43.651  54.755  1.00  0.00     0.040 A 
HETATM   31  C   UNL     1      28.677  44.855  55.159  1.00  0.00    -0.038 A 
HETATM   32 CL   UNL     1      30.891  43.244  55.210  1.00  0.00    -0.084 Cl
HETATM   33  C   UNL     1      29.415  45.866  55.992  1.00  0.00     0.050 C 
HETATM   34  C   UNL     1      27.365  45.131  54.735  1.00  0.00     0.045 A 
ENDBRANCH  26  27
ENDBRANCH   1  26
BRANCH   5  35
HETATM   35  C   UNL     1      24.508  48.354  49.507  1.00  0.00     0.084 A 
HETATM   36  C   UNL     1      25.540  49.070  48.869  1.00  0.00     0.063 A 
HETATM   37 CL   UNL     1      27.200  48.566  48.884  1.00  0.00    -0.082 Cl
HETATM   38  C   UNL     1      25.240  50.151  48.026  1.00  0.00     0.026 A 
HETATM   39  C   UNL     1      23.917  50.512  47.778  1.00  0.00     0.002 A 
HETATM   40  C   UNL     1      22.886  49.780  48.352  1.00  0.00     0.002 A 
HETATM   41  C   UNL     1      23.178  48.708  49.199  1.00  0.00     0.033 A 
ENDBRANCH   5  35
TORSDOF 9
ENDMDL
MODEL 10
REMARK VINA RESULT:      -9.6      3.060      8.033
REMARK  9 active torsions:
REMARK  status: ('A' for Active; 'I' for Inactive)
REMARK    1  A    between atoms: C_7  and  O_8 
REMARK    2  A    between atoms: O_8  and  C_9 
REMARK    3  A    between atoms: C_10  and  N_11 
REMARK    4  A    between atoms: N_11  and  C_12 
REMARK    5  A    between atoms: C_14  and  C_15 
REMARK       I    between atoms: C_15  and  N_16 
REMARK    6  A    between atoms: N_16  and  C_17 
REMARK    7  A    between atoms: C_17  and  C_18 
REMARK    8  A    between atoms: C_18  and  N_19 
REMARK    9  A    between atoms: N_29  and  C_30 
ROOT
HETATM    1  C   UNL     1      27.316  43.732  52.143  1.00  0.00     0.122 C 
HETATM    2  C   UNL     1      27.355  43.751  50.800  1.00  0.00     0.119 C 
HETATM    3  C   UNL     1      27.452  42.439  50.053  1.00  0.00     0.293 C 
HETATM    4  O   UNL     1      27.370  42.498  48.822  1.00  0.00    -0.264 OA
HETATM    5  N   UNL     1      27.579  41.284  50.821  1.00  0.00    -0.195 N 
HETATM    6  N   UNL     1      27.308  41.261  52.171  1.00  0.00    -0.174 NA
HETATM    7  C   UNL     1      27.182  42.399  52.764  1.00  0.00     0.178 C 
ENDROOT
BRANCH   2   8
HETATM    8  N   UNL     1      27.359  44.887  49.973  1.00  0.00    -0.253 NA
HETATM    9  H   UNL     1      27.675  44.594  49.038  1.00  0.00     0.134 HD
BRANCH   8  10
HETATM   10  C   UNL     1      26.247  45.755  49.799  1.00  0.00     0.014 A 
HETATM   11  C   UNL     1      25.060  45.212  49.286  1.00  0.00     0.040 A 
HETATM   12  C   UNL     1      23.932  46.019  49.094  1.00  0.00     0.033 A 
HETATM   13  C   UNL     1      23.964  47.373  49.440  1.00  0.00     0.017 A 
HETATM   14  C   UNL     1      25.133  47.916  49.965  1.00  0.00     0.003 A 
HETATM   15  C   UNL     1      26.266  47.115  50.135  1.00  0.00     0.024 A 
BRANCH  12  16
HETATM   16  C   UNL     1      22.702  45.408  48.535  1.00  0.00     0.251 C 
HETATM   17  N   UNL     1      21.527  45.661  49.216  1.00  0.00    -0.355 N 
HETATM   18  H   UNL     1      21.587  46.394  49.920  1.00  0.00     0.162 HD
HETATM   19  O   UNL     1      22.738  44.690  47.543  1.00  0.00    -0.268 OA
BRANCH  17  20
HETATM   20  C   UNL     1      20.213  45.510  48.592  1.00  0.00     0.150 C 
BRANCH  20  21
HETATM   21  C   UNL     1      19.242  46.709  48.661  1.00  0.00     0.253 C 
BRANCH  21  22
HETATM   22  N   UNL     1      19.784  47.845  49.503  1.00  0.00    -0.077 N 
HETATM   23  H   UNL     1      20.489  47.387  50.106  1.00  0.00     0.279 HD
HETATM   24  C   UNL     1      20.447  48.930  48.719  1.00  0.00     0.269 C 
HETATM   25  C   UNL     1      18.751  48.378  50.450  1.00  0.00     0.269 C 
ENDBRANCH  21  22
ENDBRANCH  20  21
ENDBRANCH  17  20
ENDBRANCH  12  16
ENDBRANCH   8  10
ENDBRANCH   2   8
BRANCH   1  26
HETATM   26  O   UNL     1      27.285  44.911  52.883  1.00  0.00    -0.307 OA
BRANCH  26  27
HETATM   27  C   UNL     1      28.089  45.041  53.987  1.00  0.00     0.076 A 
HETATM   28  C   UNL     1      27.878  46.153  54.797  1.00  0.00     0.039 A 
HETATM   29  C   UNL     1      28.656  46.334  55.939  1.00  0.00     0.027 A 
HETATM   30  C   UNL     1      29.653  45.409  56.265  1.00  0.00     0.040 A 
HETATM   31  C   UNL     1      29.902  44.304  55.435  1.00  0.00    -0.038 A 
HETATM   32 CL   UNL     1      30.554  45.676  57.714  1.00  0.00    -0.084 Cl
HETATM   33  C   UNL     1      30.952  43.281  55.771  1.00  0.00     0.050 C 
HETATM   34  C   UNL     1      29.117  44.137  54.281  1.00  0.00     0.045 A 
ENDBRANCH  26  27
ENDBRANCH   1  26
BRANCH   5  35
HETATM   35  C   UNL     1      27.759  39.987  50.239  1.00  0.00     0.084 A 
HETATM   36  C   UNL     1      26.773  39.325  49.482  1.00  0.00     0.063 A 
HETATM   37 CL   UNL     1      25.330  40.099  48.908  1.00  0.00    -0.082 Cl
HETATM   38  C   UNL     1      27.001  38.027  48.996  1.00  0.00     0.026 A 
HETATM   39  C   UNL     1      28.218  37.387  49.225  1.00  0.00     0.002 A 
HETATM   40  C   UNL     1      29.223  38.049  49.919  1.00  0.00     0.002 A 
HETATM   41  C   UNL     1      28.998  39.337  50.412  1.00  0.00     0.033 A 
ENDBRANCH   5  35
TORSDOF 9
ENDMDL
