MODEL 1
REMARK VINA RESULT:     -10.0      0.000      0.000
REMARK  7 active torsions:
REMARK  status: ('A' for Active; 'I' for Inactive)
REMARK    1  A    between atoms: N_2  and  C_4 
REMARK       I    between atoms: N_7  and  C_8 
REMARK    2  A    between atoms: C_8  and  C_9 
REMARK    3  A    between atoms: N_12  and  C_13 
REMARK    4  A    between atoms: C_20  and  C_21 
REMARK    5  A    between atoms: C_21  and  N_22 
REMARK    6  A    between atoms: N_22  and  C_25 
REMARK    7  A    between atoms: C_25  and  C_26 
ROOT
HETATM    1  C   UNL     1      25.516  46.437  51.468  1.00  0.00     0.719 A 
HETATM    2  N   UNL     1      26.300  45.288  51.482  1.00  0.00    -0.154 N 
HETATM    3  C   UNL     1      26.866  45.237  52.761  1.00  0.00     0.083 A 
HETATM    4  C   UNL     1      27.675  44.115  53.100  1.00  0.00     0.033 A 
HETATM    5  C   UNL     1      27.922  43.173  52.171  1.00  0.00     0.004 A 
HETATM    6  C   UNL     1      27.400  43.288  50.824  1.00  0.00     0.018 A 
HETATM    7  C   UNL     1      26.610  44.329  50.512  1.00  0.00     0.115 A 
HETATM    8  C   UNL     1      26.499  46.404  53.393  1.00  0.00     0.107 A 
HETATM    9  N   UNL     1      25.668  47.148  52.580  1.00  0.00    -0.064 NA
ENDROOT
BRANCH   1  10
HETATM   10  N   UNL     1      24.661  46.853  50.439  1.00  0.00    -0.147 N 
HETATM   11  C   UNL     1      23.881  46.014  49.667  1.00  0.00     0.233 A 
HETATM   12  N   UNL     1      23.120  46.660  48.812  1.00  0.00    -0.236 NA
HETATM   13  C   UNL     1      23.433  47.992  48.970  1.00  0.00     0.142 A 
HETATM   14  C   UNL     1      24.418  48.107  49.939  1.00  0.00     0.153 A 
BRANCH  13  15
HETATM   15  C   UNL     1      22.824  49.149  48.288  1.00  0.00     0.273 C 
HETATM   16  N   UNL     1      21.572  49.667  48.697  1.00  0.00    -0.347 N 
HETATM   17  C   UNL     1      20.522  48.828  49.272  1.00  0.00     0.128 C 
HETATM   18  C   UNL     1      21.141  50.867  47.984  1.00  0.00     0.128 C 
HETATM   19  C   UNL     1      19.471  49.639  50.025  1.00  0.00     0.053 C 
HETATM   20  C   UNL     1      18.923  50.817  49.211  1.00  0.00     0.190 C 
HETATM   21  C   UNL     1      20.109  51.673  48.760  1.00  0.00     0.053 C 
HETATM   22  O   UNL     1      23.438  49.687  47.363  1.00  0.00    -0.266 OA
BRANCH  20  23
HETATM   23  N   UNL     1      18.061  50.354  48.022  1.00  0.00    -0.074 N 
HETATM   24  C   UNL     1      17.525  51.505  47.192  1.00  0.00     0.269 C 
HETATM   25  H   UNL     1      18.641  49.790  47.387  1.00  0.00     0.279 HD
HETATM   26  C   UNL     1      16.901  49.472  48.436  1.00  0.00     0.269 C 
ENDBRANCH  20  23
ENDBRANCH  13  15
ENDBRANCH   1  10
BRANCH   8  27
HETATM   27  C   UNL     1      26.881  46.892  54.747  1.00  0.00     0.294 C 
BRANCH  27  28
HETATM   28  N   UNL     1      28.308  46.582  55.044  1.00  0.00    -0.066 N 
HETATM   29  H   UNL     1      28.557  45.743  54.502  1.00  0.00     0.277 HD
HETATM   30  H   UNL     1      28.887  47.323  54.629  1.00  0.00     0.277 HD
BRANCH  28  31
HETATM   31  C   UNL     1      28.617  46.405  56.484  1.00  0.00     0.272 C 
BRANCH  31  32
HETATM   32  C   UNL     1      29.699  45.400  56.705  1.00  0.00    -0.015 A 
HETATM   33  C   UNL     1      30.400  45.363  57.907  1.00  0.00     0.125 A 
HETATM   34  N   UNL     1      31.407  44.506  58.164  1.00  0.00    -0.273 NA
HETATM   35  C   UNL     1      31.723  43.616  57.201  1.00  0.00     0.116 A 
HETATM   36  C   UNL     1      31.086  43.564  55.974  1.00  0.00     0.020 A 
HETATM   37  C   UNL     1      30.064  44.476  55.720  1.00  0.00     0.012 A 
ENDBRANCH  31  32
ENDBRANCH  28  31
ENDBRANCH  27  28
ENDBRANCH   8  27
TORSDOF 7
ENDMDL
MODEL 2
REMARK VINA RESULT:      -9.3      1.025      2.332
REMARK  7 active torsions:
REMARK  status: ('A' for Active; 'I' for Inactive)
REMARK    1  A    between atoms: N_2  and  C_4 
REMARK       I    between atoms: N_7  and  C_8 
REMARK    2  A    between atoms: C_8  and  C_9 
REMARK    3  A    between atoms: N_12  and  C_13 
REMARK    4  A    between atoms: C_20  and  C_21 
REMARK    5  A    between atoms: C_21  and  N_22 
REMARK    6  A    between atoms: N_22  and  C_25 
REMARK    7  A    between atoms: C_25  and  C_26 
ROOT
HETATM    1  C   UNL     1      25.600  45.913  51.539  1.00  0.00     0.719 A 
HETATM    2  N   UNL     1      25.904  46.534  52.746  1.00  0.00    -0.154 N 
HETATM    3  C   UNL     1      26.875  45.726  53.348  1.00  0.00     0.083 A 
HETATM    4  C   UNL     1      27.440  46.152  54.584  1.00  0.00     0.033 A 
HETATM    5  C   UNL     1      26.984  47.277  55.166  1.00  0.00     0.004 A 
HETATM    6  C   UNL     1      25.914  48.053  54.572  1.00  0.00     0.018 A 
HETATM    7  C   UNL     1      25.403  47.670  53.390  1.00  0.00     0.115 A 
HETATM    8  C   UNL     1      27.009  44.618  52.543  1.00  0.00     0.107 A 
HETATM    9  N   UNL     1      26.208  44.736  51.425  1.00  0.00    -0.064 NA
ENDROOT
BRANCH   1  10
HETATM   10  N   UNL     1      24.762  46.408  50.531  1.00  0.00    -0.147 N 
HETATM   11  C   UNL     1      23.924  45.640  49.747  1.00  0.00     0.233 A 
HETATM   12  N   UNL     1      23.197  46.355  48.917  1.00  0.00    -0.236 NA
HETATM   13  C   UNL     1      23.593  47.660  49.105  1.00  0.00     0.142 A 
HETATM   14  C   UNL     1      24.593  47.689  50.066  1.00  0.00     0.153 A 
BRANCH  13  15
HETATM   15  C   UNL     1      23.051  48.871  48.460  1.00  0.00     0.273 C 
HETATM   16  N   UNL     1      21.782  49.385  48.815  1.00  0.00    -0.347 N 
HETATM   17  C   UNL     1      20.681  48.532  49.259  1.00  0.00     0.128 C 
HETATM   18  C   UNL     1      21.420  50.637  48.155  1.00  0.00     0.128 C 
HETATM   19  C   UNL     1      19.593  49.313  49.990  1.00  0.00     0.053 C 
HETATM   20  C   UNL     1      19.120  50.552  49.219  1.00  0.00     0.190 C 
HETATM   21  C   UNL     1      20.348  51.412  48.909  1.00  0.00     0.053 C 
HETATM   22  O   UNL     1      23.737  49.455  47.618  1.00  0.00    -0.266 OA
BRANCH  20  23
HETATM   23  N   UNL     1      18.338  50.183  47.945  1.00  0.00    -0.074 N 
HETATM   24  C   UNL     1      17.882  51.396  47.155  1.00  0.00     0.269 C 
HETATM   25  H   UNL     1      18.951  49.648  47.317  1.00  0.00     0.279 HD
HETATM   26  C   UNL     1      17.136  49.302  48.219  1.00  0.00     0.269 C 
ENDBRANCH  20  23
ENDBRANCH  13  15
ENDBRANCH   1  10
BRANCH   8  27
HETATM   27  C   UNL     1      27.860  43.412  52.747  1.00  0.00     0.294 C 
BRANCH  27  28
HETATM   28  N   UNL     1      29.247  43.797  53.131  1.00  0.00    -0.066 N 
HETATM   29  H   UNL     1      29.785  43.909  52.260  1.00  0.00     0.277 HD
HETATM   30  H   UNL     1      29.216  44.746  53.525  1.00  0.00     0.277 HD
BRANCH  28  31
HETATM   31  C   UNL     1      29.917  42.855  54.062  1.00  0.00     0.272 C 
BRANCH  31  32
HETATM   32  C   UNL     1      30.330  43.522  55.333  1.00  0.00    -0.015 A 
HETATM   33  C   UNL     1      29.893  44.808  55.635  1.00  0.00     0.125 A 
HETATM   34  N   UNL     1      30.250  45.483  56.744  1.00  0.00    -0.273 NA
HETATM   35  C   UNL     1      31.055  44.848  57.622  1.00  0.00     0.116 A 
HETATM   36  C   UNL     1      31.542  43.568  57.420  1.00  0.00     0.020 A 
HETATM   37  C   UNL     1      31.180  42.899  56.253  1.00  0.00     0.012 A 
ENDBRANCH  31  32
ENDBRANCH  28  31
ENDBRANCH  27  28
ENDBRANCH   8  27
TORSDOF 7
ENDMDL
MODEL 3
REMARK VINA RESULT:      -9.2      2.273     10.944
REMARK  7 active torsions:
REMARK  status: ('A' for Active; 'I' for Inactive)
REMARK    1  A    between atoms: N_2  and  C_4 
REMARK       I    between atoms: N_7  and  C_8 
REMARK    2  A    between atoms: C_8  and  C_9 
REMARK    3  A    between atoms: N_12  and  C_13 
REMARK    4  A    between atoms: C_20  and  C_21 
REMARK    5  A    between atoms: C_21  and  N_22 
REMARK    6  A    between atoms: N_22  and  C_25 
REMARK    7  A    between atoms: C_25  and  C_26 
ROOT
HETATM    1  C   UNL     1      22.783  46.664  48.544  1.00  0.00     0.719 A 
HETATM    2  N   UNL     1      23.046  48.029  48.519  1.00  0.00    -0.154 N 
HETATM    3  C   UNL     1      21.975  48.603  47.826  1.00  0.00     0.083 A 
HETATM    4  C   UNL     1      21.931  50.022  47.700  1.00  0.00     0.033 A 
HETATM    5  C   UNL     1      22.943  50.760  48.191  1.00  0.00     0.004 A 
HETATM    6  C   UNL     1      24.089  50.141  48.827  1.00  0.00     0.018 A 
HETATM    7  C   UNL     1      24.116  48.806  48.975  1.00  0.00     0.115 A 
HETATM    8  C   UNL     1      21.203  47.558  47.371  1.00  0.00     0.107 A 
HETATM    9  N   UNL     1      21.716  46.356  47.814  1.00  0.00    -0.064 NA
ENDROOT
BRANCH   1  10
HETATM   10  N   UNL     1      23.515  45.683  49.226  1.00  0.00    -0.147 N 
HETATM   11  C   UNL     1      22.970  44.592  49.874  1.00  0.00     0.233 A 
HETATM   12  N   UNL     1      23.877  43.789  50.383  1.00  0.00    -0.236 NA
HETATM   13  C   UNL     1      25.090  44.385  50.120  1.00  0.00     0.142 A 
HETATM   14  C   UNL     1      24.865  45.577  49.449  1.00  0.00     0.153 A 
BRANCH  13  15
HETATM   15  C   UNL     1      26.436  43.868  50.430  1.00  0.00     0.273 C 
HETATM   16  N   UNL     1      26.836  43.615  51.764  1.00  0.00    -0.347 N 
HETATM   17  C   UNL     1      26.335  44.391  52.898  1.00  0.00     0.128 C 
HETATM   18  C   UNL     1      28.164  43.023  51.906  1.00  0.00     0.128 C 
HETATM   19  C   UNL     1      26.546  43.680  54.232  1.00  0.00     0.053 C 
HETATM   20  C   UNL     1      27.984  43.185  54.429  1.00  0.00     0.190 C 
HETATM   21  C   UNL     1      28.348  42.302  53.233  1.00  0.00     0.053 C 
HETATM   22  O   UNL     1      27.211  43.627  49.502  1.00  0.00    -0.266 OA
BRANCH  20  23
HETATM   23  N   UNL     1      28.980  44.345  54.614  1.00  0.00    -0.074 N 
HETATM   24  C   UNL     1      30.328  43.892  55.144  1.00  0.00     0.269 C 
HETATM   25  H   UNL     1      29.164  44.779  53.701  1.00  0.00     0.279 HD
HETATM   26  C   UNL     1      28.451  45.446  55.511  1.00  0.00     0.269 C 
ENDBRANCH  20  23
ENDBRANCH  13  15
ENDBRANCH   1  10
BRANCH   8  27
HETATM   27  C   UNL     1      19.979  47.600  46.523  1.00  0.00     0.294 C 
BRANCH  27  28
HETATM   28  N   UNL     1      18.757  47.770  47.359  1.00  0.00    -0.066 N 
HETATM   29  H   UNL     1      18.189  46.919  47.244  1.00  0.00     0.277 HD
HETATM   30  H   UNL     1      19.041  47.746  48.346  1.00  0.00     0.277 HD
BRANCH  28  31
HETATM   31  C   UNL     1      17.967  48.990  47.061  1.00  0.00     0.272 C 
BRANCH  31  32
HETATM   32  C   UNL     1      18.258  50.095  48.024  1.00  0.00    -0.015 A 
HETATM   33  C   UNL     1      18.215  49.870  49.397  1.00  0.00     0.125 A 
HETATM   34  N   UNL     1      18.434  50.824  50.322  1.00  0.00    -0.273 NA
HETATM   35  C   UNL     1      18.744  52.059  49.876  1.00  0.00     0.116 A 
HETATM   36  C   UNL     1      18.817  52.387  48.533  1.00  0.00     0.020 A 
HETATM   37  C   UNL     1      18.562  51.391  47.594  1.00  0.00     0.012 A 
ENDBRANCH  31  32
ENDBRANCH  28  31
ENDBRANCH  27  28
ENDBRANCH   8  27
TORSDOF 7
ENDMDL
MODEL 4
REMARK VINA RESULT:      -9.0      1.995      3.560
REMARK  7 active torsions:
REMARK  status: ('A' for Active; 'I' for Inactive)
REMARK    1  A    between atoms: N_2  and  C_4 
REMARK       I    between atoms: N_7  and  C_8 
REMARK    2  A    between atoms: C_8  and  C_9 
REMARK    3  A    between atoms: N_12  and  C_13 
REMARK    4  A    between atoms: C_20  and  C_21 
REMARK    5  A    between atoms: C_21  and  N_22 
REMARK    6  A    between atoms: N_22  and  C_25 
REMARK    7  A    between atoms: C_25  and  C_26 
ROOT
HETATM    1  C   UNL     1      24.903  44.820  49.605  1.00  0.00     0.719 A 
HETATM    2  N   UNL     1      24.249  43.748  49.008  1.00  0.00    -0.154 N 
HETATM    3  C   UNL     1      24.972  42.611  49.386  1.00  0.00     0.083 A 
HETATM    4  C   UNL     1      24.490  41.334  48.976  1.00  0.00     0.033 A 
HETATM    5  C   UNL     1      23.400  41.260  48.191  1.00  0.00     0.004 A 
HETATM    6  C   UNL     1      22.716  42.454  47.734  1.00  0.00     0.018 A 
HETATM    7  C   UNL     1      23.150  43.657  48.147  1.00  0.00     0.115 A 
HETATM    8  C   UNL     1      26.073  43.065  50.075  1.00  0.00     0.107 A 
HETATM    9  N   UNL     1      26.029  44.439  50.200  1.00  0.00    -0.064 NA
ENDROOT
BRANCH   1  10
HETATM   10  N   UNL     1      24.485  46.157  49.611  1.00  0.00    -0.147 N 
HETATM   11  C   UNL     1      24.785  47.079  50.595  1.00  0.00     0.233 A 
HETATM   12  N   UNL     1      24.324  48.282  50.331  1.00  0.00    -0.236 NA
HETATM   13  C   UNL     1      23.636  48.164  49.144  1.00  0.00     0.142 A 
HETATM   14  C   UNL     1      23.693  46.844  48.724  1.00  0.00     0.153 A 
BRANCH  13  15
HETATM   15  C   UNL     1      22.970  49.233  48.377  1.00  0.00     0.273 C 
HETATM   16  N   UNL     1      21.686  49.706  48.738  1.00  0.00    -0.347 N 
HETATM   17  C   UNL     1      20.678  48.851  49.362  1.00  0.00     0.128 C 
HETATM   18  C   UNL     1      21.196  50.826  47.938  1.00  0.00     0.128 C 
HETATM   19  C   UNL     1      19.574  49.651  50.047  1.00  0.00     0.053 C 
HETATM   20  C   UNL     1      18.970  50.735  49.146  1.00  0.00     0.190 C 
HETATM   21  C   UNL     1      20.111  51.624  48.646  1.00  0.00     0.053 C 
HETATM   22  O   UNL     1      23.564  49.739  47.421  1.00  0.00    -0.266 OA
BRANCH  20  23
HETATM   23  N   UNL     1      18.151  50.139  47.986  1.00  0.00    -0.074 N 
HETATM   24  C   UNL     1      17.534  51.197  47.090  1.00  0.00     0.269 C 
HETATM   25  H   UNL     1      18.773  49.584  47.386  1.00  0.00     0.279 HD
HETATM   26  C   UNL     1      17.056  49.200  48.452  1.00  0.00     0.269 C 
ENDBRANCH  20  23
ENDBRANCH  13  15
ENDBRANCH   1  10
BRANCH   8  27
HETATM   27  C   UNL     1      27.206  42.283  50.645  1.00  0.00     0.294 C 
BRANCH  27  28
HETATM   28  N   UNL     1      26.793  41.576  51.890  1.00  0.00    -0.066 N 
HETATM   29  H   UNL     1      26.036  42.127  52.317  1.00  0.00     0.277 HD
HETATM   30  H   UNL     1      26.334  40.697  51.619  1.00  0.00     0.277 HD
BRANCH  28  31
HETATM   31  C   UNL     1      27.892  41.328  52.856  1.00  0.00     0.272 C 
BRANCH  31  32
HETATM   32  C   UNL     1      28.206  42.541  53.669  1.00  0.00    -0.015 A 
HETATM   33  C   UNL     1      27.195  43.407  54.074  1.00  0.00     0.125 A 
HETATM   34  N   UNL     1      27.408  44.533  54.781  1.00  0.00    -0.273 NA
HETATM   35  C   UNL     1      28.680  44.809  55.137  1.00  0.00     0.116 A 
HETATM   36  C   UNL     1      29.757  44.013  54.790  1.00  0.00     0.020 A 
HETATM   37  C   UNL     1      29.516  42.865  54.037  1.00  0.00     0.012 A 
ENDBRANCH  31  32
ENDBRANCH  28  31
ENDBRANCH  27  28
ENDBRANCH   8  27
TORSDOF 7
ENDMDL
MODEL 5
REMARK VINA RESULT:      -9.0      2.289      3.005
REMARK  7 active torsions:
REMARK  status: ('A' for Active; 'I' for Inactive)
REMARK    1  A    between atoms: N_2  and  C_4 
REMARK       I    between atoms: N_7  and  C_8 
REMARK    2  A    between atoms: C_8  and  C_9 
REMARK    3  A    between atoms: N_12  and  C_13 
REMARK    4  A    between atoms: C_20  and  C_21 
REMARK    5  A    between atoms: C_21  and  N_22 
REMARK    6  A    between atoms: N_22  and  C_25 
REMARK    7  A    between atoms: C_25  and  C_26 
ROOT
HETATM    1  C   UNL     1      25.792  44.514  51.847  1.00  0.00     0.719 A 
HETATM    2  N   UNL     1      26.515  43.373  52.179  1.00  0.00    -0.154 N 
HETATM    3  C   UNL     1      27.019  43.610  53.463  1.00  0.00     0.083 A 
HETATM    4  C   UNL     1      27.754  42.572  54.105  1.00  0.00     0.033 A 
HETATM    5  C   UNL     1      27.996  41.427  53.442  1.00  0.00     0.004 A 
HETATM    6  C   UNL     1      27.543  41.234  52.079  1.00  0.00     0.018 A 
HETATM    7  C   UNL     1      26.821  42.199  51.484  1.00  0.00     0.115 A 
HETATM    8  C   UNL     1      26.683  44.907  53.777  1.00  0.00     0.107 A 
HETATM    9  N   UNL     1      25.928  45.466  52.766  1.00  0.00    -0.064 NA
ENDROOT
BRANCH   1  10
HETATM   10  N   UNL     1      25.007  44.703  50.703  1.00  0.00    -0.147 N 
HETATM   11  C   UNL     1      25.426  45.332  49.548  1.00  0.00     0.233 A 
HETATM   12  N   UNL     1      24.517  45.324  48.598  1.00  0.00    -0.236 NA
HETATM   13  C   UNL     1      23.413  44.711  49.146  1.00  0.00     0.142 A 
HETATM   14  C   UNL     1      23.697  44.371  50.460  1.00  0.00     0.153 A 
BRANCH  13  15
HETATM   15  C   UNL     1      22.132  44.396  48.484  1.00  0.00     0.273 C 
HETATM   16  N   UNL     1      21.345  45.412  47.891  1.00  0.00    -0.347 N 
HETATM   17  C   UNL     1      21.310  46.781  48.400  1.00  0.00     0.128 C 
HETATM   18  C   UNL     1      20.149  44.935  47.199  1.00  0.00     0.128 C 
HETATM   19  C   UNL     1      20.764  47.772  47.376  1.00  0.00     0.053 C 
HETATM   20  C   UNL     1      19.434  47.327  46.757  1.00  0.00     0.190 C 
HETATM   21  C   UNL     1      19.632  45.928  46.167  1.00  0.00     0.053 C 
HETATM   22  O   UNL     1      21.764  43.221  48.426  1.00  0.00    -0.266 OA
BRANCH  20  23
HETATM   23  N   UNL     1      18.276  47.366  47.771  1.00  0.00    -0.074 N 
HETATM   24  C   UNL     1      16.918  47.148  47.130  1.00  0.00     0.269 C 
HETATM   25  H   UNL     1      18.397  46.604  48.449  1.00  0.00     0.279 HD
HETATM   26  C   UNL     1      18.233  48.650  48.575  1.00  0.00     0.269 C 
ENDBRANCH  20  23
ENDBRANCH  13  15
ENDBRANCH   1  10
BRANCH   8  27
HETATM   27  C   UNL     1      27.026  45.692  54.996  1.00  0.00     0.294 C 
BRANCH  27  28
HETATM   28  N   UNL     1      28.433  46.178  54.939  1.00  0.00    -0.066 N 
HETATM   29  H   UNL     1      28.967  45.502  54.375  1.00  0.00     0.277 HD
HETATM   30  H   UNL     1      28.451  47.036  54.374  1.00  0.00     0.277 HD
BRANCH  28  31
HETATM   31  C   UNL     1      29.068  46.397  56.262  1.00  0.00     0.272 C 
BRANCH  31  32
HETATM   32  C   UNL     1      30.031  45.308  56.608  1.00  0.00    -0.015 A 
HETATM   33  C   UNL     1      30.675  45.295  57.842  1.00  0.00     0.125 A 
HETATM   34  N   UNL     1      31.576  44.366  58.210  1.00  0.00    -0.273 NA
HETATM   35  C   UNL     1      31.838  43.376  57.331  1.00  0.00     0.116 A 
HETATM   36  C   UNL     1      31.250  43.293  56.081  1.00  0.00     0.020 A 
HETATM   37  C   UNL     1      30.339  44.280  55.712  1.00  0.00     0.012 A 
ENDBRANCH  31  32
ENDBRANCH  28  31
ENDBRANCH  27  28
ENDBRANCH   8  27
TORSDOF 7
ENDMDL
MODEL 6
REMARK VINA RESULT:      -8.8      2.262      3.733
REMARK  7 active torsions:
REMARK  status: ('A' for Active; 'I' for Inactive)
REMARK    1  A    between atoms: N_2  and  C_4 
REMARK       I    between atoms: N_7  and  C_8 
REMARK    2  A    between atoms: C_8  and  C_9 
REMARK    3  A    between atoms: N_12  and  C_13 
REMARK    4  A    between atoms: C_20  and  C_21 
REMARK    5  A    between atoms: C_21  and  N_22 
REMARK    6  A    between atoms: N_22  and  C_25 
REMARK    7  A    between atoms: C_25  and  C_26 
ROOT
HETATM    1  C   UNL     1      27.190  42.991  50.846  1.00  0.00     0.719 A 
HETATM    2  N   UNL     1      27.616  41.809  50.250  1.00  0.00    -0.154 N 
HETATM    3  C   UNL     1      28.307  41.115  51.249  1.00  0.00     0.083 A 
HETATM    4  C   UNL     1      28.808  39.815  50.949  1.00  0.00     0.033 A 
HETATM    5  C   UNL     1      28.660  39.321  49.706  1.00  0.00     0.004 A 
HETATM    6  C   UNL     1      28.020  40.092  48.658  1.00  0.00     0.018 A 
HETATM    7  C   UNL     1      27.518  41.305  48.949  1.00  0.00     0.115 A 
HETATM    8  C   UNL     1      28.366  41.957  52.336  1.00  0.00     0.107 A 
HETATM    9  N   UNL     1      27.677  43.124  52.076  1.00  0.00    -0.064 NA
ENDROOT
BRANCH   1  10
HETATM   10  N   UNL     1      26.358  43.963  50.275  1.00  0.00    -0.147 N 
HETATM   11  C   UNL     1      26.789  45.161  49.739  1.00  0.00     0.233 A 
HETATM   12  N   UNL     1      25.815  45.868  49.210  1.00  0.00    -0.236 NA
HETATM   13  C   UNL     1      24.664  45.149  49.443  1.00  0.00     0.142 A 
HETATM   14  C   UNL     1      24.992  43.997  50.143  1.00  0.00     0.153 A 
BRANCH  13  15
HETATM   15  C   UNL     1      23.293  45.471  49.006  1.00  0.00     0.273 C 
HETATM   16  N   UNL     1      22.888  46.810  48.790  1.00  0.00    -0.347 N 
HETATM   17  C   UNL     1      23.438  47.932  49.548  1.00  0.00     0.128 C 
HETATM   18  C   UNL     1      21.529  46.964  48.275  1.00  0.00     0.128 C 
HETATM   19  C   UNL     1      23.195  49.275  48.865  1.00  0.00     0.053 C 
HETATM   20  C   UNL     1      21.733  49.485  48.454  1.00  0.00     0.190 C 
HETATM   21  C   UNL     1      21.313  48.301  47.579  1.00  0.00     0.053 C 
HETATM   22  O   UNL     1      22.501  44.549  48.800  1.00  0.00    -0.266 OA
BRANCH  20  23
HETATM   23  N   UNL     1      20.804  49.663  49.669  1.00  0.00    -0.074 N 
HETATM   24  C   UNL     1      19.339  49.453  49.334  1.00  0.00     0.269 C 
HETATM   25  H   UNL     1      21.039  48.956  50.377  1.00  0.00     0.279 HD
HETATM   26  C   UNL     1      20.959  51.011  50.344  1.00  0.00     0.269 C 
ENDBRANCH  20  23
ENDBRANCH  13  15
ENDBRANCH   1  10
BRANCH   8  27
HETATM   27  C   UNL     1      29.041  41.745  53.646  1.00  0.00     0.294 C 
BRANCH  27  28
HETATM   28  N   UNL     1      30.101  42.768  53.872  1.00  0.00    -0.066 N 
HETATM   29  H   UNL     1      30.828  42.330  54.456  1.00  0.00     0.277 HD
HETATM   30  H   UNL     1      30.575  42.938  52.976  1.00  0.00     0.277 HD
BRANCH  28  31
HETATM   31  C   UNL     1      29.621  44.037  54.471  1.00  0.00     0.272 C 
BRANCH  31  32
HETATM   32  C   UNL     1      30.248  44.303  55.800  1.00  0.00    -0.015 A 
HETATM   33  C   UNL     1      31.156  43.403  56.350  1.00  0.00     0.125 A 
HETATM   34  N   UNL     1      31.736  43.561  57.555  1.00  0.00    -0.273 NA
HETATM   35  C   UNL     1      31.432  44.679  58.246  1.00  0.00     0.116 A 
HETATM   36  C   UNL     1      30.546  45.639  57.789  1.00  0.00     0.020 A 
HETATM   37  C   UNL     1      29.939  45.442  56.550  1.00  0.00     0.012 A 
ENDBRANCH  31  32
ENDBRANCH  28  31
ENDBRANCH  27  28
ENDBRANCH   8  27
TORSDOF 7
ENDMDL
MODEL 7
REMARK VINA RESULT:      -8.8      2.177      3.884
REMARK  7 active torsions:
REMARK  status: ('A' for Active; 'I' for Inactive)
REMARK    1  A    between atoms: N_2  and  C_4 
REMARK       I    between atoms: N_7  and  C_8 
REMARK    2  A    between atoms: C_8  and  C_9 
REMARK    3  A    between atoms: N_12  and  C_13 
REMARK    4  A    between atoms: C_20  and  C_21 
REMARK    5  A    between atoms: C_21  and  N_22 
REMARK    6  A    between atoms: N_22  and  C_25 
REMARK    7  A    between atoms: C_25  and  C_26 
ROOT
HETATM    1  C   UNL     1      23.922  47.385  49.359  1.00  0.00     0.719 A 
HETATM    2  N   UNL     1      24.929  48.295  49.056  1.00  0.00    -0.154 N 
HETATM    3  C   UNL     1      26.028  47.909  49.832  1.00  0.00     0.083 A 
HETATM    4  C   UNL     1      27.250  48.625  49.680  1.00  0.00     0.033 A 
HETATM    5  C   UNL     1      27.297  49.683  48.849  1.00  0.00     0.004 A 
HETATM    6  C   UNL     1      26.124  50.124  48.121  1.00  0.00     0.018 A 
HETATM    7  C   UNL     1      24.979  49.429  48.239  1.00  0.00     0.115 A 
HETATM    8  C   UNL     1      25.591  46.882  50.637  1.00  0.00     0.107 A 
HETATM    9  N   UNL     1      24.279  46.568  50.344  1.00  0.00    -0.064 NA
ENDROOT
BRANCH   1  10
HETATM   10  N   UNL     1      22.666  47.293  48.745  1.00  0.00    -0.147 N 
HETATM   11  C   UNL     1      21.845  46.183  48.782  1.00  0.00     0.233 A 
HETATM   12  N   UNL     1      20.692  46.375  48.179  1.00  0.00    -0.236 NA
HETATM   13  C   UNL     1      20.751  47.651  47.663  1.00  0.00     0.142 A 
HETATM   14  C   UNL     1      21.987  48.200  47.971  1.00  0.00     0.153 A 
BRANCH  13  15
HETATM   15  C   UNL     1      19.694  48.382  46.940  1.00  0.00     0.273 C 
HETATM   16  N   UNL     1      19.288  49.676  47.347  1.00  0.00    -0.347 N 
HETATM   17  C   UNL     1      19.318  50.110  48.742  1.00  0.00     0.128 C 
HETATM   18  C   UNL     1      18.294  50.307  46.481  1.00  0.00     0.128 C 
HETATM   19  C   UNL     1      19.264  51.628  48.884  1.00  0.00     0.053 C 
HETATM   20  C   UNL     1      18.127  52.268  48.079  1.00  0.00     0.190 C 
HETATM   21  C   UNL     1      18.271  51.823  46.622  1.00  0.00     0.053 C 
HETATM   22  O   UNL     1      19.180  47.861  45.948  1.00  0.00    -0.266 OA
BRANCH  20  23
HETATM   23  N   UNL     1      16.740  51.924  48.653  1.00  0.00    -0.074 N 
HETATM   24  C   UNL     1      15.601  52.313  47.729  1.00  0.00     0.269 C 
HETATM   25  H   UNL     1      16.671  50.906  48.778  1.00  0.00     0.279 HD
HETATM   26  C   UNL     1      16.491  52.540  50.015  1.00  0.00     0.269 C 
ENDBRANCH  20  23
ENDBRANCH  13  15
ENDBRANCH   1  10
BRANCH   8  27
HETATM   27  C   UNL     1      26.333  46.147  51.699  1.00  0.00     0.294 C 
BRANCH  27  28
HETATM   28  N   UNL     1      26.824  44.834  51.195  1.00  0.00    -0.066 N 
HETATM   29  H   UNL     1      26.298  44.620  50.336  1.00  0.00     0.277 HD
HETATM   30  H   UNL     1      27.790  44.960  50.866  1.00  0.00     0.277 HD
BRANCH  28  31
HETATM   31  C   UNL     1      26.735  43.722  52.173  1.00  0.00     0.272 C 
BRANCH  31  32
HETATM   32  C   UNL     1      27.995  43.565  52.959  1.00  0.00    -0.015 A 
HETATM   33  C   UNL     1      28.127  44.150  54.215  1.00  0.00     0.125 A 
HETATM   34  N   UNL     1      29.243  44.077  54.966  1.00  0.00    -0.273 NA
HETATM   35  C   UNL     1      30.276  43.364  54.470  1.00  0.00     0.116 A 
HETATM   36  C   UNL     1      30.247  42.740  53.236  1.00  0.00     0.020 A 
HETATM   37  C   UNL     1      29.091  42.850  52.465  1.00  0.00     0.012 A 
ENDBRANCH  31  32
ENDBRANCH  28  31
ENDBRANCH  27  28
ENDBRANCH   8  27
TORSDOF 7
ENDMDL
MODEL 8
REMARK VINA RESULT:      -8.7      3.521      6.487
REMARK  7 active torsions:
REMARK  status: ('A' for Active; 'I' for Inactive)
REMARK    1  A    between atoms: N_2  and  C_4 
REMARK       I    between atoms: N_7  and  C_8 
REMARK    2  A    between atoms: C_8  and  C_9 
REMARK    3  A    between atoms: N_12  and  C_13 
REMARK    4  A    between atoms: C_20  and  C_21 
REMARK    5  A    between atoms: C_21  and  N_22 
REMARK    6  A    between atoms: N_22  and  C_25 
REMARK    7  A    between atoms: C_25  and  C_26 
ROOT
HETATM    1  C   UNL     1      27.445  43.409  51.563  1.00  0.00     0.719 A 
HETATM    2  N   UNL     1      28.089  43.747  52.749  1.00  0.00    -0.154 N 
HETATM    3  C   UNL     1      28.881  42.640  53.073  1.00  0.00     0.083 A 
HETATM    4  C   UNL     1      29.724  42.722  54.219  1.00  0.00     0.033 A 
HETATM    5  C   UNL     1      29.689  43.826  54.987  1.00  0.00     0.004 A 
HETATM    6  C   UNL     1      28.795  44.927  54.686  1.00  0.00     0.018 A 
HETATM    7  C   UNL     1      28.024  44.864  53.587  1.00  0.00     0.115 A 
HETATM    8  C   UNL     1      28.581  41.665  52.149  1.00  0.00     0.107 A 
HETATM    9  N   UNL     1      27.682  42.147  51.219  1.00  0.00    -0.064 NA
ENDROOT
BRANCH   1  10
HETATM   10  N   UNL     1      26.631  44.243  50.786  1.00  0.00    -0.147 N 
HETATM   11  C   UNL     1      27.089  45.239  49.946  1.00  0.00     0.233 A 
HETATM   12  N   UNL     1      26.124  45.836  49.282  1.00  0.00    -0.236 NA
HETATM   13  C   UNL     1      24.955  45.260  49.727  1.00  0.00     0.142 A 
HETATM   14  C   UNL     1      25.264  44.311  50.690  1.00  0.00     0.153 A 
BRANCH  13  15
HETATM   15  C   UNL     1      23.581  45.529  49.262  1.00  0.00     0.273 C 
HETATM   16  N   UNL     1      23.152  46.845  48.967  1.00  0.00    -0.347 N 
HETATM   17  C   UNL     1      23.673  48.020  49.663  1.00  0.00     0.128 C 
HETATM   18  C   UNL     1      21.794  46.942  48.434  1.00  0.00     0.128 C 
HETATM   19  C   UNL     1      23.409  49.316  48.902  1.00  0.00     0.053 C 
HETATM   20  C   UNL     1      21.947  49.473  48.469  1.00  0.00     0.190 C 
HETATM   21  C   UNL     1      21.557  48.232  47.661  1.00  0.00     0.053 C 
HETATM   22  O   UNL     1      22.809  44.581  49.103  1.00  0.00    -0.266 OA
BRANCH  20  23
HETATM   23  N   UNL     1      21.005  49.701  49.665  1.00  0.00    -0.074 N 
HETATM   24  C   UNL     1      19.541  49.746  49.269  1.00  0.00     0.269 C 
HETATM   25  H   UNL     1      21.099  48.915  50.321  1.00  0.00     0.279 HD
HETATM   26  C   UNL     1      21.333  50.954  50.450  1.00  0.00     0.269 C 
ENDBRANCH  20  23
ENDBRANCH  13  15
ENDBRANCH   1  10
BRANCH   8  27
HETATM   27  C   UNL     1      29.089  40.268  52.067  1.00  0.00     0.294 C 
BRANCH  27  28
HETATM   28  N   UNL     1      28.315  39.475  51.071  1.00  0.00    -0.066 N 
HETATM   29  H   UNL     1      27.693  38.846  51.598  1.00  0.00     0.277 HD
HETATM   30  H   UNL     1      27.668  40.114  50.591  1.00  0.00     0.277 HD
BRANCH  28  31
HETATM   31  C   UNL     1      29.144  38.723  50.097  1.00  0.00     0.272 C 
BRANCH  31  32
HETATM   32  C   UNL     1      28.390  38.406  48.847  1.00  0.00    -0.015 A 
HETATM   33  C   UNL     1      27.048  38.752  48.719  1.00  0.00     0.125 A 
HETATM   34  N   UNL     1      26.298  38.470  47.637  1.00  0.00    -0.273 NA
HETATM   35  C   UNL     1      26.906  37.840  46.610  1.00  0.00     0.116 A 
HETATM   36  C   UNL     1      28.235  37.456  46.633  1.00  0.00     0.020 A 
HETATM   37  C   UNL     1      28.986  37.736  47.773  1.00  0.00     0.012 A 
ENDBRANCH  31  32
ENDBRANCH  28  31
ENDBRANCH  27  28
ENDBRANCH   8  27
TORSDOF 7
ENDMDL
MODEL 9
REMARK VINA RESULT:      -8.7      6.575     11.137
REMARK  7 active torsions:
REMARK  status: ('A' for Active; 'I' for Inactive)
REMARK    1  A    between atoms: N_2  and  C_4 
REMARK       I    between atoms: N_7  and  C_8 
REMARK    2  A    between atoms: C_8  and  C_9 
REMARK    3  A    between atoms: N_12  and  C_13 
REMARK    4  A    between atoms: C_20  and  C_21 
REMARK    5  A    between atoms: C_21  and  N_22 
REMARK    6  A    between atoms: N_22  and  C_25 
REMARK    7  A    between atoms: C_25  and  C_26 
ROOT
HETATM    1  C   UNL     1      16.968  51.797  49.310  1.00  0.00     0.719 A 
HETATM    2  N   UNL     1      17.403  51.525  48.017  1.00  0.00    -0.154 N 
HETATM    3  C   UNL     1      18.275  50.437  48.137  1.00  0.00     0.083 A 
HETATM    4  C   UNL     1      18.832  49.881  46.950  1.00  0.00     0.033 A 
HETATM    5  C   UNL     1      18.558  50.450  45.762  1.00  0.00     0.004 A 
HETATM    6  C   UNL     1      17.723  51.631  45.666  1.00  0.00     0.018 A 
HETATM    7  C   UNL     1      17.171  52.137  46.781  1.00  0.00     0.115 A 
HETATM    8  C   UNL     1      18.412  50.198  49.486  1.00  0.00     0.107 A 
HETATM    9  N   UNL     1      17.604  51.052  50.209  1.00  0.00    -0.064 NA
ENDROOT
BRANCH   1  10
HETATM   10  N   UNL     1      15.993  52.729  49.686  1.00  0.00    -0.147 N 
HETATM   11  C   UNL     1      14.749  52.415  50.197  1.00  0.00     0.233 A 
HETATM   12  N   UNL     1      14.045  53.475  50.528  1.00  0.00    -0.236 NA
HETATM   13  C   UNL     1      14.819  54.558  50.178  1.00  0.00     0.142 A 
HETATM   14  C   UNL     1      16.000  54.100  49.614  1.00  0.00     0.153 A 
BRANCH  13  15
HETATM   15  C   UNL     1      14.519  55.987  50.387  1.00  0.00     0.273 C 
HETATM   16  N   UNL     1      14.833  56.632  51.607  1.00  0.00    -0.347 N 
HETATM   17  C   UNL     1      14.823  55.937  52.892  1.00  0.00     0.128 C 
HETATM   18  C   UNL     1      14.557  58.067  51.631  1.00  0.00     0.128 C 
HETATM   19  C   UNL     1      15.599  56.688  53.970  1.00  0.00     0.053 C 
HETATM   20  C   UNL     1      15.200  58.164  54.082  1.00  0.00     0.190 C 
HETATM   21  C   UNL     1      15.356  58.801  52.699  1.00  0.00     0.053 C 
HETATM   22  O   UNL     1      14.011  56.630  49.465  1.00  0.00    -0.266 OA
BRANCH  20  23
HETATM   23  N   UNL     1      13.777  58.342  54.642  1.00  0.00    -0.074 N 
HETATM   24  C   UNL     1      13.350  59.796  54.729  1.00  0.00     0.269 C 
HETATM   25  H   UNL     1      13.107  57.886  54.010  1.00  0.00     0.279 HD
HETATM   26  C   UNL     1      13.588  57.699  56.001  1.00  0.00     0.269 C 
ENDBRANCH  20  23
ENDBRANCH  13  15
ENDBRANCH   1  10
BRANCH   8  27
HETATM   27  C   UNL     1      19.273  49.196  50.174  1.00  0.00     0.294 C 
BRANCH  27  28
HETATM   28  N   UNL     1      20.717  49.491  49.953  1.00  0.00    -0.066 N 
HETATM   29  H   UNL     1      20.789  50.484  49.690  1.00  0.00     0.277 HD
HETATM   30  H   UNL     1      21.194  49.443  50.862  1.00  0.00     0.277 HD
BRANCH  28  31
HETATM   31  C   UNL     1      21.383  48.619  48.955  1.00  0.00     0.272 C 
BRANCH  31  32
HETATM   32  C   UNL     1      22.787  49.050  48.682  1.00  0.00    -0.015 A 
HETATM   33  C   UNL     1      23.061  50.006  47.709  1.00  0.00     0.125 A 
HETATM   34  N   UNL     1      24.302  50.419  47.388  1.00  0.00    -0.273 NA
HETATM   35  C   UNL     1      25.329  49.886  48.082  1.00  0.00     0.116 A 
HETATM   36  C   UNL     1      25.167  48.933  49.072  1.00  0.00     0.020 A 
HETATM   37  C   UNL     1      23.875  48.503  49.370  1.00  0.00     0.012 A 
ENDBRANCH  31  32
ENDBRANCH  28  31
ENDBRANCH  27  28
ENDBRANCH   8  27
TORSDOF 7
ENDMDL
MODEL 10
REMARK VINA RESULT:      -8.6      2.288      4.691
REMARK  7 active torsions:
REMARK  status: ('A' for Active; 'I' for Inactive)
REMARK    1  A    between atoms: N_2  and  C_4 
REMARK       I    between atoms: N_7  and  C_8 
REMARK    2  A    between atoms: C_8  and  C_9 
REMARK    3  A    between atoms: N_12  and  C_13 
REMARK    4  A    between atoms: C_20  and  C_21 
REMARK    5  A    between atoms: C_21  and  N_22 
REMARK    6  A    between atoms: N_22  and  C_25 
REMARK    7  A    between atoms: C_25  and  C_26 
ROOT
HETATM    1  C   UNL     1      25.670  45.783  51.429  1.00  0.00     0.719 A 
HETATM    2  N   UNL     1      26.017  46.344  52.653  1.00  0.00    -0.154 N 
HETATM    3  C   UNL     1      26.990  45.495  53.191  1.00  0.00     0.083 A 
HETATM    4  C   UNL     1      27.596  45.856  54.429  1.00  0.00     0.033 A 
HETATM    5  C   UNL     1      27.175  46.961  55.073  1.00  0.00     0.004 A 
HETATM    6  C   UNL     1      26.102  47.780  54.543  1.00  0.00     0.018 A 
HETATM    7  C   UNL     1      25.553  47.458  53.360  1.00  0.00     0.115 A 
HETATM    8  C   UNL     1      27.083  44.422  52.335  1.00  0.00     0.107 A 
HETATM    9  N   UNL     1      26.254  44.603  51.246  1.00  0.00    -0.064 NA
ENDROOT
BRANCH   1  10
HETATM   10  N   UNL     1      24.813  46.336  50.467  1.00  0.00    -0.147 N 
HETATM   11  C   UNL     1      23.896  45.625  49.718  1.00  0.00     0.233 A 
HETATM   12  N   UNL     1      23.172  46.389  48.931  1.00  0.00    -0.236 NA
HETATM   13  C   UNL     1      23.650  47.667  49.111  1.00  0.00     0.142 A 
HETATM   14  C   UNL     1      24.695  47.629  50.022  1.00  0.00     0.153 A 
BRANCH  13  15
HETATM   15  C   UNL     1      23.148  48.914  48.503  1.00  0.00     0.273 C 
HETATM   16  N   UNL     1      21.865  49.420  48.823  1.00  0.00    -0.347 N 
HETATM   17  C   UNL     1      20.739  48.555  49.169  1.00  0.00     0.128 C 
HETATM   18  C   UNL     1      21.543  50.707  48.210  1.00  0.00     0.128 C 
HETATM   19  C   UNL     1      19.621  49.307  49.885  1.00  0.00     0.053 C 
HETATM   20  C   UNL     1      19.194  50.587  49.156  1.00  0.00     0.190 C 
HETATM   21  C   UNL     1      20.441  51.451  48.950  1.00  0.00     0.053 C 
HETATM   22  O   UNL     1      23.877  49.534  47.726  1.00  0.00    -0.266 OA
BRANCH  20  23
HETATM   23  N   UNL     1      18.473  50.290  47.829  1.00  0.00    -0.074 N 
HETATM   24  C   UNL     1      18.065  51.545  47.080  1.00  0.00     0.269 C 
HETATM   25  H   UNL     1      19.112  49.781  47.205  1.00  0.00     0.279 HD
HETATM   26  C   UNL     1      17.252  49.408  48.000  1.00  0.00     0.269 C 
ENDBRANCH  20  23
ENDBRANCH  13  15
ENDBRANCH   1  10
BRANCH   8  27
HETATM   27  C   UNL     1      27.919  43.195  52.462  1.00  0.00     0.294 C 
BRANCH  27  28
HETATM   28  N   UNL     1      27.084  41.966  52.349  1.00  0.00    -0.066 N 
HETATM   29  H   UNL     1      26.642  41.812  53.267  1.00  0.00     0.277 HD
HETATM   30  H   UNL     1      26.292  42.175  51.728  1.00  0.00     0.277 HD
BRANCH  28  31
HETATM   31  C   UNL     1      27.815  40.759  51.894  1.00  0.00     0.272 C 
BRANCH  31  32
HETATM   32  C   UNL     1      27.868  40.664  50.404  1.00  0.00    -0.015 A 
HETATM   33  C   UNL     1      28.702  39.741  49.780  1.00  0.00     0.125 A 
HETATM   34  N   UNL     1      28.824  39.621  48.444  1.00  0.00    -0.273 NA
HETATM   35  C   UNL     1      28.063  40.430  47.678  1.00  0.00     0.116 A 
HETATM   36  C   UNL     1      27.198  41.377  48.197  1.00  0.00     0.020 A 
HETATM   37  C   UNL     1      27.106  41.501  49.582  1.00  0.00     0.012 A 
ENDBRANCH  31  32
ENDBRANCH  28  31
ENDBRANCH  27  28
ENDBRANCH   8  27
TORSDOF 7
ENDMDL
