MODEL 1
REMARK VINA RESULT:      -9.1      0.000      0.000
REMARK  5 active torsions:
REMARK  status: ('A' for Active; 'I' for Inactive)
REMARK    1  A    between atoms: C_2  and  C_3 
REMARK    2  A    between atoms: C_3  and  C_4 
REMARK    3  A    between atoms: C_3  and  C_29 
REMARK       I    between atoms: C_4  and  N_5 
REMARK    4  A    between atoms: N_5  and  C_6 
REMARK    5  A    between atoms: C_18  and  C_19 
ROOT
HETATM    1  C   UNL     1      25.086  43.853  49.262  1.00  0.00     0.088 C 
HETATM    2  C   UNL     1      25.324  45.286  49.703  1.00  0.00     0.060 C 
HETATM    3  C   UNL     1      25.825  45.448  51.153  1.00  0.00     0.181 C 
HETATM    4  N   UNL     1      25.374  44.428  52.113  1.00  0.00    -0.334 N 
HETATM    5  C   UNL     1      25.969  44.306  53.375  1.00  0.00     0.256 C 
HETATM    6  O   UNL     1      25.770  43.319  54.088  1.00  0.00    -0.267 OA
HETATM    7  C   UNL     1      26.914  45.327  53.895  1.00  0.00     0.059 A 
HETATM    8  C   UNL     1      26.792  46.703  53.701  1.00  0.00     0.050 A 
HETATM    9  N   UNL     1      25.891  47.321  52.830  1.00  0.00    -0.324 N 
HETATM   10  C   UNL     1      25.394  46.846  51.652  1.00  0.00     0.245 C 
HETATM   11  O   UNL     1      24.728  47.634  50.974  1.00  0.00    -0.271 OA
HETATM   12  C   UNL     1      27.912  44.842  54.768  1.00  0.00     0.031 A 
HETATM   13  C   UNL     1      28.776  45.706  55.449  1.00  0.00    -0.024 A 
HETATM   14  C   UNL     1      28.608  47.081  55.287  1.00  0.00     0.014 A 
HETATM   15  C   UNL     1      27.619  47.573  54.432  1.00  0.00     0.031 A 
HETATM   16  C   UNL     1      24.769  43.177  51.643  1.00  0.00     0.129 C 
HETATM   17  C   UNL     1      24.145  43.203  50.264  1.00  0.00     0.045 C 
HETATM   18  H   UNL     1      25.711  48.312  52.942  1.00  0.00     0.169 HD
ENDROOT
BRANCH   1  19
HETATM   19  N   UNL     1      26.328  43.113  49.083  1.00  0.00    -0.356 N 
HETATM   20  C   UNL     1      26.344  41.897  48.430  1.00  0.00     0.222 C 
HETATM   21  O   UNL     1      25.348  41.406  47.907  1.00  0.00    -0.273 OA
HETATM   22  H   UNL     1      27.129  43.357  49.648  1.00  0.00     0.162 HD
BRANCH  20  23
HETATM   23  C   UNL     1      27.695  41.180  48.399  1.00  0.00     0.077 C 
BRANCH  23  24
HETATM   24  C   UNL     1      28.038  40.678  46.985  1.00  0.00     0.009 C 
HETATM   25  C   UNL     1      28.038  39.158  46.882  1.00  0.00     0.006 C 
ENDBRANCH  23  24
BRANCH  23  26
HETATM   26  C   UNL     1      27.746  40.020  49.410  1.00  0.00     0.009 C 
HETATM   27  C   UNL     1      28.224  40.462  50.787  1.00  0.00     0.006 C 
ENDBRANCH  23  26
ENDBRANCH  20  23
ENDBRANCH   1  19
BRANCH  13  28
HETATM   28  C   UNL     1      29.811  45.165  56.324  1.00  0.00    -0.019 A 
HETATM   29  C   UNL     1      30.614  44.105  55.943  1.00  0.00     0.061 A 
HETATM   30  S   UNL     1      31.723  43.643  57.163  1.00  0.00    -0.113 SA
HETATM   31  C   UNL     1      31.138  44.846  58.225  1.00  0.00     0.050 A 
HETATM   32  C   UNL     1      30.122  45.585  57.659  1.00  0.00     0.020 A 
ENDBRANCH  13  28
TORSDOF 5
ENDMDL
MODEL 2
REMARK VINA RESULT:      -8.0      3.906      8.451
REMARK  5 active torsions:
REMARK  status: ('A' for Active; 'I' for Inactive)
REMARK    1  A    between atoms: C_2  and  C_3 
REMARK    2  A    between atoms: C_3  and  C_4 
REMARK    3  A    between atoms: C_3  and  C_29 
REMARK       I    between atoms: C_4  and  N_5 
REMARK    4  A    between atoms: N_5  and  C_6 
REMARK    5  A    between atoms: C_18  and  C_19 
ROOT
HETATM    1  C   UNL     1      26.344  44.917  52.377  1.00  0.00     0.088 C 
HETATM    2  C   UNL     1      27.460  43.919  52.620  1.00  0.00     0.060 C 
HETATM    3  C   UNL     1      27.450  42.690  51.689  1.00  0.00     0.181 C 
HETATM    4  N   UNL     1      26.130  42.245  51.216  1.00  0.00    -0.334 N 
HETATM    5  C   UNL     1      26.008  41.327  50.164  1.00  0.00     0.256 C 
HETATM    6  O   UNL     1      24.926  41.130  49.604  1.00  0.00    -0.267 OA
HETATM    7  C   UNL     1      27.181  40.590  49.629  1.00  0.00     0.059 A 
HETATM    8  C   UNL     1      28.234  40.096  50.399  1.00  0.00     0.050 A 
HETATM    9  N   UNL     1      28.456  40.385  51.747  1.00  0.00    -0.324 N 
HETATM   10  C   UNL     1      28.148  41.525  52.429  1.00  0.00     0.245 C 
HETATM   11  O   UNL     1      28.578  41.615  53.583  1.00  0.00    -0.271 OA
HETATM   12  C   UNL     1      27.116  40.257  48.259  1.00  0.00     0.031 A 
HETATM   13  C   UNL     1      28.076  39.438  47.655  1.00  0.00    -0.024 A 
HETATM   14  C   UNL     1      29.093  38.907  48.448  1.00  0.00     0.014 A 
HETATM   15  C   UNL     1      29.163  39.224  49.807  1.00  0.00     0.031 A 
HETATM   16  C   UNL     1      24.956  43.112  51.357  1.00  0.00     0.129 C 
HETATM   17  C   UNL     1      25.021  44.168  52.440  1.00  0.00     0.045 C 
HETATM   18  H   UNL     1      29.091  39.793  52.271  1.00  0.00     0.169 HD
ENDROOT
BRANCH   1  19
HETATM   19  N   UNL     1      26.520  45.660  51.136  1.00  0.00    -0.356 N 
HETATM   20  C   UNL     1      26.090  46.966  51.020  1.00  0.00     0.222 C 
HETATM   21  O   UNL     1      25.606  47.595  51.956  1.00  0.00    -0.273 OA
HETATM   22  H   UNL     1      26.725  45.151  50.287  1.00  0.00     0.162 HD
BRANCH  20  23
HETATM   23  C   UNL     1      26.246  47.594  49.634  1.00  0.00     0.077 C 
BRANCH  23  24
HETATM   24  C   UNL     1      27.510  48.467  49.547  1.00  0.00     0.009 C 
HETATM   25  C   UNL     1      27.268  49.786  48.824  1.00  0.00     0.006 C 
ENDBRANCH  23  24
BRANCH  23  26
HETATM   26  C   UNL     1      25.002  48.406  49.234  1.00  0.00     0.009 C 
HETATM   27  C   UNL     1      23.735  47.561  49.199  1.00  0.00     0.006 C 
ENDBRANCH  23  26
ENDBRANCH  20  23
ENDBRANCH   1  19
BRANCH  13  28
HETATM   28  C   UNL     1      27.987  39.136  46.229  1.00  0.00    -0.019 A 
HETATM   29  C   UNL     1      27.933  37.838  45.756  1.00  0.00     0.061 A 
HETATM   30  S   UNL     1      27.867  37.759  44.047  1.00  0.00    -0.113 SA
HETATM   31  C   UNL     1      27.921  39.461  43.913  1.00  0.00     0.050 A 
HETATM   32  C   UNL     1      27.985  40.074  45.144  1.00  0.00     0.020 A 
ENDBRANCH  13  28
TORSDOF 5
ENDMDL
MODEL 3
REMARK VINA RESULT:      -7.8     12.423     15.163
REMARK  5 active torsions:
REMARK  status: ('A' for Active; 'I' for Inactive)
REMARK    1  A    between atoms: C_2  and  C_3 
REMARK    2  A    between atoms: C_3  and  C_4 
REMARK    3  A    between atoms: C_3  and  C_29 
REMARK       I    between atoms: C_4  and  N_5 
REMARK    4  A    between atoms: N_5  and  C_6 
REMARK    5  A    between atoms: C_18  and  C_19 
ROOT
HETATM    1  C   UNL     1      17.367  50.626  46.398  1.00  0.00     0.088 C 
HETATM    2  C   UNL     1      16.535  51.749  45.807  1.00  0.00     0.060 C 
HETATM    3  C   UNL     1      15.812  52.639  46.839  1.00  0.00     0.181 C 
HETATM    4  N   UNL     1      15.411  51.982  48.093  1.00  0.00    -0.334 N 
HETATM    5  C   UNL     1      15.001  52.730  49.205  1.00  0.00     0.256 C 
HETATM    6  O   UNL     1      14.894  52.217  50.322  1.00  0.00    -0.267 OA
HETATM    7  C   UNL     1      14.734  54.188  49.111  1.00  0.00     0.059 A 
HETATM    8  C   UNL     1      14.129  54.822  48.025  1.00  0.00     0.050 A 
HETATM    9  N   UNL     1      13.867  54.231  46.787  1.00  0.00    -0.324 N 
HETATM   10  C   UNL     1      14.564  53.244  46.156  1.00  0.00     0.245 C 
HETATM   11  O   UNL     1      14.233  52.986  44.995  1.00  0.00    -0.271 OA
HETATM   12  C   UNL     1      14.989  54.929  50.284  1.00  0.00     0.031 A 
HETATM   13  C   UNL     1      14.645  56.281  50.389  1.00  0.00    -0.024 A 
HETATM   14  C   UNL     1      13.992  56.888  49.316  1.00  0.00     0.014 A 
HETATM   15  C   UNL     1      13.727  56.162  48.153  1.00  0.00     0.031 A 
HETATM   16  C   UNL     1      15.958  50.671  48.456  1.00  0.00     0.129 C 
HETATM   17  C   UNL     1      16.471  49.813  47.319  1.00  0.00     0.045 C 
HETATM   18  H   UNL     1      13.213  54.688  46.161  1.00  0.00     0.169 HD
ENDROOT
BRANCH   1  19
HETATM   19  N   UNL     1      18.572  51.112  47.057  1.00  0.00    -0.356 N 
HETATM   20  C   UNL     1      19.644  50.275  47.287  1.00  0.00     0.222 C 
HETATM   21  O   UNL     1      19.680  49.112  46.896  1.00  0.00    -0.273 OA
HETATM   22  H   UNL     1      18.532  51.982  47.568  1.00  0.00     0.162 HD
BRANCH  20  23
HETATM   23  C   UNL     1      20.804  50.887  48.075  1.00  0.00     0.077 C 
BRANCH  23  24
HETATM   24  C   UNL     1      21.990  49.913  48.186  1.00  0.00     0.009 C 
HETATM   25  C   UNL     1      23.322  50.560  47.827  1.00  0.00     0.006 C 
ENDBRANCH  23  24
BRANCH  23  26
HETATM   26  C   UNL     1      20.358  51.353  49.472  1.00  0.00     0.009 C 
HETATM   27  C   UNL     1      19.773  50.223  50.310  1.00  0.00     0.006 C 
ENDBRANCH  23  26
ENDBRANCH  20  23
ENDBRANCH   1  19
BRANCH  13  28
HETATM   28  C   UNL     1      14.948  57.020  51.611  1.00  0.00    -0.019 A 
HETATM   29  C   UNL     1      15.233  56.380  52.804  1.00  0.00     0.061 A 
HETATM   30  S   UNL     1      15.519  57.475  54.090  1.00  0.00    -0.113 SA
HETATM   31  C   UNL     1      15.254  58.821  53.073  1.00  0.00     0.050 A 
HETATM   32  C   UNL     1      14.957  58.444  51.782  1.00  0.00     0.020 A 
ENDBRANCH  13  28
TORSDOF 5
ENDMDL
MODEL 4
REMARK VINA RESULT:      -7.8      3.953      8.635
REMARK  5 active torsions:
REMARK  status: ('A' for Active; 'I' for Inactive)
REMARK    1  A    between atoms: C_2  and  C_3 
REMARK    2  A    between atoms: C_3  and  C_4 
REMARK    3  A    between atoms: C_3  and  C_29 
REMARK       I    between atoms: C_4  and  N_5 
REMARK    4  A    between atoms: N_5  and  C_6 
REMARK    5  A    between atoms: C_18  and  C_19 
ROOT
HETATM    1  C   UNL     1      26.643  44.996  52.653  1.00  0.00     0.088 C 
HETATM    2  C   UNL     1      27.790  44.016  52.493  1.00  0.00     0.060 C 
HETATM    3  C   UNL     1      27.578  42.935  51.413  1.00  0.00     0.181 C 
HETATM    4  N   UNL     1      26.188  42.513  51.182  1.00  0.00    -0.334 N 
HETATM    5  C   UNL     1      25.838  41.753  50.057  1.00  0.00     0.256 C 
HETATM    6  O   UNL     1      24.660  41.599  49.727  1.00  0.00    -0.267 OA
HETATM    7  C   UNL     1      26.866  41.147  49.174  1.00  0.00     0.059 A 
HETATM    8  C   UNL     1      28.067  40.586  49.610  1.00  0.00     0.050 A 
HETATM    9  N   UNL     1      28.583  40.686  50.904  1.00  0.00    -0.324 N 
HETATM   10  C   UNL     1      28.429  41.703  51.800  1.00  0.00     0.245 C 
HETATM   11  O   UNL     1      29.106  41.641  52.831  1.00  0.00    -0.271 OA
HETATM   12  C   UNL     1      26.498  41.013  47.818  1.00  0.00     0.031 A 
HETATM   13  C   UNL     1      27.303  40.327  46.902  1.00  0.00    -0.024 A 
HETATM   14  C   UNL     1      28.474  39.725  47.363  1.00  0.00     0.014 A 
HETATM   15  C   UNL     1      28.844  39.845  48.705  1.00  0.00     0.031 A 
HETATM   16  C   UNL     1      25.071  43.306  51.706  1.00  0.00     0.129 C 
HETATM   17  C   UNL     1      25.372  44.197  52.893  1.00  0.00     0.045 C 
HETATM   18  H   UNL     1      29.321  40.049  51.182  1.00  0.00     0.169 HD
ENDROOT
BRANCH   1  19
HETATM   19  N   UNL     1      26.535  45.916  51.529  1.00  0.00    -0.356 N 
HETATM   20  C   UNL     1      25.897  47.133  51.663  1.00  0.00     0.222 C 
HETATM   21  O   UNL     1      25.453  47.540  52.732  1.00  0.00    -0.273 OA
HETATM   22  H   UNL     1      26.699  45.568  50.595  1.00  0.00     0.162 HD
BRANCH  20  23
HETATM   23  C   UNL     1      25.768  47.957  50.381  1.00  0.00     0.077 C 
BRANCH  23  24
HETATM   24  C   UNL     1      24.437  47.678  49.660  1.00  0.00     0.009 C 
HETATM   25  C   UNL     1      23.933  48.876  48.866  1.00  0.00     0.006 C 
ENDBRANCH  23  24
BRANCH  23  26
HETATM   26  C   UNL     1      26.955  47.720  49.431  1.00  0.00     0.009 C 
HETATM   27  C   UNL     1      27.726  48.998  49.125  1.00  0.00     0.006 C 
ENDBRANCH  23  26
ENDBRANCH  20  23
ENDBRANCH   1  19
BRANCH  13  28
HETATM   28  C   UNL     1      26.899  40.231  45.502  1.00  0.00    -0.019 A 
HETATM   29  C   UNL     1      25.782  40.883  45.014  1.00  0.00     0.061 A 
HETATM   30  S   UNL     1      25.513  40.580  43.351  1.00  0.00    -0.113 SA
HETATM   31  C   UNL     1      26.880  39.561  43.260  1.00  0.00     0.050 A 
HETATM   32  C   UNL     1      27.529  39.458  44.471  1.00  0.00     0.020 A 
ENDBRANCH  13  28
TORSDOF 5
ENDMDL
MODEL 5
REMARK VINA RESULT:      -7.5     11.707     14.658
REMARK  5 active torsions:
REMARK  status: ('A' for Active; 'I' for Inactive)
REMARK    1  A    between atoms: C_2  and  C_3 
REMARK    2  A    between atoms: C_3  and  C_4 
REMARK    3  A    between atoms: C_3  and  C_29 
REMARK       I    between atoms: C_4  and  N_5 
REMARK    4  A    between atoms: N_5  and  C_6 
REMARK    5  A    between atoms: C_18  and  C_19 
ROOT
HETATM    1  C   UNL     1      30.326  51.819  39.620  1.00  0.00     0.088 C 
HETATM    2  C   UNL     1      28.862  51.561  39.315  1.00  0.00     0.060 C 
HETATM    3  C   UNL     1      28.476  50.074  39.176  1.00  0.00     0.181 C 
HETATM    4  N   UNL     1      29.524  49.178  38.660  1.00  0.00    -0.334 N 
HETATM    5  C   UNL     1      29.394  47.785  38.745  1.00  0.00     0.256 C 
HETATM    6  O   UNL     1      30.352  47.036  38.541  1.00  0.00    -0.267 OA
HETATM    7  C   UNL     1      28.116  47.143  39.143  1.00  0.00     0.059 A 
HETATM    8  C   UNL     1      26.846  47.587  38.771  1.00  0.00     0.050 A 
HETATM    9  N   UNL     1      26.567  48.804  38.144  1.00  0.00    -0.324 N 
HETATM   10  C   UNL     1      27.233  49.988  38.260  1.00  0.00     0.245 C 
HETATM   11  O   UNL     1      26.712  50.972  37.729  1.00  0.00    -0.271 OA
HETATM   12  C   UNL     1      28.241  45.913  39.824  1.00  0.00     0.031 A 
HETATM   13  C   UNL     1      27.126  45.124  40.128  1.00  0.00    -0.024 A 
HETATM   14  C   UNL     1      25.869  45.554  39.702  1.00  0.00     0.014 A 
HETATM   15  C   UNL     1      25.734  46.766  39.021  1.00  0.00     0.031 A 
HETATM   16  C   UNL     1      30.921  49.619  38.604  1.00  0.00     0.129 C 
HETATM   17  C   UNL     1      31.158  51.114  38.560  1.00  0.00     0.045 C 
HETATM   18  H   UNL     1      25.664  48.923  37.698  1.00  0.00     0.169 HD
ENDROOT
BRANCH   1  19
HETATM   19  N   UNL     1      30.688  51.435  40.978  1.00  0.00    -0.356 N 
HETATM   20  C   UNL     1      31.902  51.802  41.522  1.00  0.00     0.222 C 
HETATM   21  O   UNL     1      32.707  52.520  40.936  1.00  0.00    -0.273 OA
HETATM   22  H   UNL     1      30.170  50.696  41.431  1.00  0.00     0.162 HD
BRANCH  20  23
HETATM   23  C   UNL     1      32.196  51.250  42.918  1.00  0.00     0.077 C 
BRANCH  23  24
HETATM   24  C   UNL     1      33.679  51.417  43.292  1.00  0.00     0.009 C 
HETATM   25  C   UNL     1      33.876  52.148  44.615  1.00  0.00     0.006 C 
ENDBRANCH  23  24
BRANCH  23  26
HETATM   26  C   UNL     1      31.771  49.776  43.047  1.00  0.00     0.009 C 
HETATM   27  C   UNL     1      32.435  48.880  42.010  1.00  0.00     0.006 C 
ENDBRANCH  23  26
ENDBRANCH  20  23
ENDBRANCH   1  19
BRANCH  13  28
HETATM   28  C   UNL     1      27.294  43.869  40.854  1.00  0.00    -0.019 A 
HETATM   29  C   UNL     1      26.735  43.663  42.102  1.00  0.00     0.061 A 
HETATM   30  S   UNL     1      27.109  42.123  42.749  1.00  0.00    -0.113 SA
HETATM   31  C   UNL     1      28.036  41.711  41.374  1.00  0.00     0.050 A 
HETATM   32  C   UNL     1      28.055  42.726  40.442  1.00  0.00     0.020 A 
ENDBRANCH  13  28
TORSDOF 5
ENDMDL
MODEL 6
REMARK VINA RESULT:      -7.5      2.403      3.800
REMARK  5 active torsions:
REMARK  status: ('A' for Active; 'I' for Inactive)
REMARK    1  A    between atoms: C_2  and  C_3 
REMARK    2  A    between atoms: C_3  and  C_4 
REMARK    3  A    between atoms: C_3  and  C_29 
REMARK       I    between atoms: C_4  and  N_5 
REMARK    4  A    between atoms: N_5  and  C_6 
REMARK    5  A    between atoms: C_18  and  C_19 
ROOT
HETATM    1  C   UNL     1      23.571  42.285  46.591  1.00  0.00     0.088 C 
HETATM    2  C   UNL     1      23.555  43.791  46.781  1.00  0.00     0.060 C 
HETATM    3  C   UNL     1      23.872  44.272  48.211  1.00  0.00     0.181 C 
HETATM    4  N   UNL     1      23.471  43.370  49.302  1.00  0.00    -0.334 N 
HETATM    5  C   UNL     1      23.941  43.559  50.609  1.00  0.00     0.256 C 
HETATM    6  O   UNL     1      23.810  42.688  51.472  1.00  0.00    -0.267 OA
HETATM    7  C   UNL     1      24.671  44.789  51.007  1.00  0.00     0.059 A 
HETATM    8  C   UNL     1      24.377  46.076  50.555  1.00  0.00     0.050 A 
HETATM    9  N   UNL     1      23.495  46.388  49.518  1.00  0.00    -0.324 N 
HETATM   10  C   UNL     1      23.197  45.649  48.411  1.00  0.00     0.245 C 
HETATM   11  O   UNL     1      22.501  46.196  47.550  1.00  0.00    -0.271 OA
HETATM   12  C   UNL     1      25.630  44.623  52.029  1.00  0.00     0.031 A 
HETATM   13  C   UNL     1      26.286  45.714  52.607  1.00  0.00    -0.024 A 
HETATM   14  C   UNL     1      25.943  46.999  52.184  1.00  0.00     0.014 A 
HETATM   15  C   UNL     1      24.990  47.176  51.178  1.00  0.00     0.031 A 
HETATM   16  C   UNL     1      23.103  41.979  49.023  1.00  0.00     0.129 C 
HETATM   17  C   UNL     1      22.630  41.673  47.617  1.00  0.00     0.045 C 
HETATM   18  H   UNL     1      23.165  47.343  49.432  1.00  0.00     0.169 HD
ENDROOT
BRANCH   1  19
HETATM   19  N   UNL     1      24.917  41.731  46.649  1.00  0.00    -0.356 N 
HETATM   20  C   UNL     1      25.313  40.732  45.782  1.00  0.00     0.222 C 
HETATM   21  O   UNL     1      24.598  40.307  44.881  1.00  0.00    -0.273 OA
HETATM   22  H   UNL     1      25.476  41.891  47.475  1.00  0.00     0.162 HD
BRANCH  20  23
HETATM   23  C   UNL     1      26.717  40.172  46.016  1.00  0.00     0.077 C 
BRANCH  23  24
HETATM   24  C   UNL     1      26.988  39.928  47.511  1.00  0.00     0.009 C 
HETATM   25  C   UNL     1      28.150  40.757  48.044  1.00  0.00     0.006 C 
ENDBRANCH  23  24
BRANCH  23  26
HETATM   26  C   UNL     1      27.801  41.085  45.414  1.00  0.00     0.009 C 
HETATM   27  C   UNL     1      28.057  40.799  43.940  1.00  0.00     0.006 C 
ENDBRANCH  23  26
ENDBRANCH  20  23
ENDBRANCH   1  19
BRANCH  13  28
HETATM   28  C   UNL     1      27.289  45.499  53.645  1.00  0.00    -0.019 A 
HETATM   29  C   UNL     1      27.524  46.428  54.643  1.00  0.00     0.061 A 
HETATM   30  S   UNL     1      28.771  45.949  55.713  1.00  0.00    -0.113 SA
HETATM   31  C   UNL     1      29.026  44.496  54.851  1.00  0.00     0.050 A 
HETATM   32  C   UNL     1      28.176  44.379  53.773  1.00  0.00     0.020 A 
ENDBRANCH  13  28
TORSDOF 5
ENDMDL
MODEL 7
REMARK VINA RESULT:      -7.3     11.195     13.579
REMARK  5 active torsions:
REMARK  status: ('A' for Active; 'I' for Inactive)
REMARK    1  A    between atoms: C_2  and  C_3 
REMARK    2  A    between atoms: C_3  and  C_4 
REMARK    3  A    between atoms: C_3  and  C_29 
REMARK       I    between atoms: C_4  and  N_5 
REMARK    4  A    between atoms: N_5  and  C_6 
REMARK    5  A    between atoms: C_18  and  C_19 
ROOT
HETATM    1  C   UNL     1      16.023  51.359  42.236  1.00  0.00     0.088 C 
HETATM    2  C   UNL     1      16.055  52.330  43.401  1.00  0.00     0.060 C 
HETATM    3  C   UNL     1      16.865  51.855  44.625  1.00  0.00     0.181 C 
HETATM    4  N   UNL     1      16.903  50.402  44.853  1.00  0.00    -0.334 N 
HETATM    5  C   UNL     1      17.814  49.832  45.752  1.00  0.00     0.256 C 
HETATM    6  O   UNL     1      18.020  48.616  45.776  1.00  0.00    -0.267 OA
HETATM    7  C   UNL     1      18.621  50.665  46.680  1.00  0.00     0.059 A 
HETATM    8  C   UNL     1      18.163  51.812  47.330  1.00  0.00     0.050 A 
HETATM    9  N   UNL     1      16.959  52.467  47.062  1.00  0.00    -0.324 N 
HETATM   10  C   UNL     1      16.289  52.554  45.878  1.00  0.00     0.245 C 
HETATM   11  O   UNL     1      15.319  53.318  45.844  1.00  0.00    -0.271 OA
HETATM   12  C   UNL     1      19.888  50.144  47.017  1.00  0.00     0.031 A 
HETATM   13  C   UNL     1      20.694  50.743  47.991  1.00  0.00    -0.024 A 
HETATM   14  C   UNL     1      20.201  51.857  48.671  1.00  0.00     0.014 A 
HETATM   15  C   UNL     1      18.944  52.376  48.351  1.00  0.00     0.031 A 
HETATM   16  C   UNL     1      16.479  49.471  43.802  1.00  0.00     0.129 C 
HETATM   17  C   UNL     1      15.531  50.017  42.756  1.00  0.00     0.045 C 
HETATM   18  H   UNL     1      16.607  53.130  47.743  1.00  0.00     0.169 HD
ENDROOT
BRANCH   1  19
HETATM   19  N   UNL     1      17.306  51.269  41.550  1.00  0.00    -0.356 N 
HETATM   20  C   UNL     1      17.516  51.909  40.346  1.00  0.00     0.222 C 
HETATM   21  O   UNL     1      16.679  52.638  39.822  1.00  0.00    -0.273 OA
HETATM   22  H   UNL     1      17.954  50.542  41.820  1.00  0.00     0.162 HD
BRANCH  20  23
HETATM   23  C   UNL     1      18.871  51.650  39.686  1.00  0.00     0.077 C 
BRANCH  23  24
HETATM   24  C   UNL     1      18.744  50.699  38.484  1.00  0.00     0.009 C 
HETATM   25  C   UNL     1      18.713  51.433  37.150  1.00  0.00     0.006 C 
ENDBRANCH  23  24
BRANCH  23  26
HETATM   26  C   UNL     1      19.900  51.109  40.695  1.00  0.00     0.009 C 
HETATM   27  C   UNL     1      21.332  51.483  40.332  1.00  0.00     0.006 C 
ENDBRANCH  23  26
ENDBRANCH  20  23
ENDBRANCH   1  19
BRANCH  13  28
HETATM   28  C   UNL     1      22.010  50.189  48.294  1.00  0.00    -0.019 A 
HETATM   29  C   UNL     1      22.164  48.964  48.918  1.00  0.00     0.061 A 
HETATM   30  S   UNL     1      23.806  48.561  49.188  1.00  0.00    -0.113 SA
HETATM   31  C   UNL     1      24.336  50.024  48.485  1.00  0.00     0.050 A 
HETATM   32  C   UNL     1      23.284  50.801  48.052  1.00  0.00     0.020 A 
ENDBRANCH  13  28
TORSDOF 5
ENDMDL
MODEL 8
REMARK VINA RESULT:      -7.3     15.966     19.306
REMARK  5 active torsions:
REMARK  status: ('A' for Active; 'I' for Inactive)
REMARK    1  A    between atoms: C_2  and  C_3 
REMARK    2  A    between atoms: C_3  and  C_4 
REMARK    3  A    between atoms: C_3  and  C_29 
REMARK       I    between atoms: C_4  and  N_5 
REMARK    4  A    between atoms: N_5  and  C_6 
REMARK    5  A    between atoms: C_18  and  C_19 
ROOT
HETATM    1  C   UNL     1      38.221  43.457  62.976  1.00  0.00     0.088 C 
HETATM    2  C   UNL     1      38.300  41.974  62.665  1.00  0.00     0.060 C 
HETATM    3  C   UNL     1      39.162  41.147  63.642  1.00  0.00     0.181 C 
HETATM    4  N   UNL     1      40.297  41.850  64.259  1.00  0.00    -0.334 N 
HETATM    5  C   UNL     1      40.980  41.304  65.354  1.00  0.00     0.256 C 
HETATM    6  O   UNL     1      41.766  41.979  66.025  1.00  0.00    -0.267 OA
HETATM    7  C   UNL     1      40.750  39.907  65.801  1.00  0.00     0.059 A 
HETATM    8  C   UNL     1      40.531  38.821  64.952  1.00  0.00     0.050 A 
HETATM    9  N   UNL     1      40.295  38.903  63.578  1.00  0.00    -0.324 N 
HETATM   10  C   UNL     1      39.681  39.904  62.884  1.00  0.00     0.245 C 
HETATM   11  O   UNL     1      39.447  39.688  61.691  1.00  0.00    -0.271 OA
HETATM   12  C   UNL     1      40.918  39.675  67.183  1.00  0.00     0.031 A 
HETATM   13  C   UNL     1      40.879  38.385  67.722  1.00  0.00    -0.024 A 
HETATM   14  C   UNL     1      40.715  37.305  66.855  1.00  0.00     0.014 A 
HETATM   15  C   UNL     1      40.555  37.521  65.485  1.00  0.00     0.031 A 
HETATM   16  C   UNL     1      40.391  43.312  64.199  1.00  0.00     0.129 C 
HETATM   17  C   UNL     1      39.641  43.993  63.074  1.00  0.00     0.045 C 
HETATM   18  H   UNL     1      40.395  38.064  63.018  1.00  0.00     0.169 HD
ENDROOT
BRANCH   1  19
HETATM   19  N   UNL     1      37.423  43.736  64.163  1.00  0.00    -0.356 N 
HETATM   20  C   UNL     1      36.667  44.886  64.259  1.00  0.00     0.222 C 
HETATM   21  O   UNL     1      36.564  45.695  63.342  1.00  0.00    -0.273 OA
HETATM   22  H   UNL     1      37.615  43.223  65.012  1.00  0.00     0.162 HD
BRANCH  20  23
HETATM   23  C   UNL     1      35.958  45.103  65.597  1.00  0.00     0.077 C 
BRANCH  23  24
HETATM   24  C   UNL     1      36.657  46.183  66.440  1.00  0.00     0.009 C 
HETATM   25  C   UNL     1      35.965  47.538  66.356  1.00  0.00     0.006 C 
ENDBRANCH  23  24
BRANCH  23  26
HETATM   26  C   UNL     1      35.837  43.791  66.394  1.00  0.00     0.009 C 
HETATM   27  C   UNL     1      34.527  43.061  66.127  1.00  0.00     0.006 C 
ENDBRANCH  23  26
ENDBRANCH  20  23
ENDBRANCH   1  19
BRANCH  13  28
HETATM   28  C   UNL     1      41.034  38.189  69.161  1.00  0.00    -0.019 A 
HETATM   29  C   UNL     1      40.609  37.035  69.794  1.00  0.00     0.061 A 
HETATM   30  S   UNL     1      40.876  37.071  71.484  1.00  0.00    -0.113 SA
HETATM   31  C   UNL     1      41.553  38.636  71.398  1.00  0.00     0.050 A 
HETATM   32  C   UNL     1      41.578  39.118  70.108  1.00  0.00     0.020 A 
ENDBRANCH  13  28
TORSDOF 5
ENDMDL
MODEL 9
REMARK VINA RESULT:      -7.1     11.598     14.186
REMARK  5 active torsions:
REMARK  status: ('A' for Active; 'I' for Inactive)
REMARK    1  A    between atoms: C_2  and  C_3 
REMARK    2  A    between atoms: C_3  and  C_4 
REMARK    3  A    between atoms: C_3  and  C_29 
REMARK       I    between atoms: C_4  and  N_5 
REMARK    4  A    between atoms: N_5  and  C_6 
REMARK    5  A    between atoms: C_18  and  C_19 
ROOT
HETATM    1  C   UNL     1      14.565  52.410  44.195  1.00  0.00     0.088 C 
HETATM    2  C   UNL     1      14.785  53.084  45.536  1.00  0.00     0.060 C 
HETATM    3  C   UNL     1      15.801  52.383  46.461  1.00  0.00     0.181 C 
HETATM    4  N   UNL     1      15.898  50.921  46.327  1.00  0.00    -0.334 N 
HETATM    5  C   UNL     1      16.959  50.209  46.902  1.00  0.00     0.256 C 
HETATM    6  O   UNL     1      17.183  49.034  46.601  1.00  0.00    -0.267 OA
HETATM    7  C   UNL     1      17.903  50.847  47.854  1.00  0.00     0.059 A 
HETATM    8  C   UNL     1      17.549  51.784  48.825  1.00  0.00     0.050 A 
HETATM    9  N   UNL     1      16.308  52.417  48.924  1.00  0.00    -0.324 N 
HETATM   10  C   UNL     1      15.441  52.740  47.921  1.00  0.00     0.245 C 
HETATM   11  O   UNL     1      14.470  53.436  48.231  1.00  0.00    -0.271 OA
HETATM   12  C   UNL     1      19.217  50.332  47.843  1.00  0.00     0.031 A 
HETATM   13  C   UNL     1      20.171  50.732  48.785  1.00  0.00    -0.024 A 
HETATM   14  C   UNL     1      19.788  51.628  49.783  1.00  0.00     0.014 A 
HETATM   15  C   UNL     1      18.488  52.138  49.808  1.00  0.00     0.031 A 
HETATM   16  C   UNL     1      15.311  50.237  45.169  1.00  0.00     0.129 C 
HETATM   17  C   UNL     1      14.189  50.959  44.454  1.00  0.00     0.045 C 
HETATM   18  H   UNL     1      16.070  52.884  49.792  1.00  0.00     0.169 HD
ENDROOT
BRANCH   1  19
HETATM   19  N   UNL     1      15.710  52.552  43.305  1.00  0.00    -0.356 N 
HETATM   20  C   UNL     1      15.782  53.588  42.397  1.00  0.00     0.222 C 
HETATM   21  O   UNL     1      14.939  54.478  42.331  1.00  0.00    -0.273 OA
HETATM   22  H   UNL     1      16.327  51.762  43.173  1.00  0.00     0.162 HD
BRANCH  20  23
HETATM   23  C   UNL     1      16.988  53.562  41.457  1.00  0.00     0.077 C 
BRANCH  23  24
HETATM   24  C   UNL     1      16.573  53.248  40.009  1.00  0.00     0.009 C 
HETATM   25  C   UNL     1      16.428  54.499  39.152  1.00  0.00     0.006 C 
ENDBRANCH  23  24
BRANCH  23  26
HETATM   26  C   UNL     1      18.061  52.567  41.937  1.00  0.00     0.009 C 
HETATM   27  C   UNL     1      18.937  52.054  40.801  1.00  0.00     0.006 C 
ENDBRANCH  23  26
ENDBRANCH  20  23
ENDBRANCH   1  19
BRANCH  13  28
HETATM   28  C   UNL     1      21.527  50.194  48.726  1.00  0.00    -0.019 A 
HETATM   29  C   UNL     1      21.802  48.865  48.989  1.00  0.00     0.061 A 
HETATM   30  S   UNL     1      23.471  48.500  48.884  1.00  0.00    -0.113 SA
HETATM   31  C   UNL     1      23.855  50.119  48.497  1.00  0.00     0.050 A 
HETATM   32  C   UNL     1      22.733  50.918  48.446  1.00  0.00     0.020 A 
ENDBRANCH  13  28
TORSDOF 5
ENDMDL
MODEL 10
REMARK VINA RESULT:      -7.0     10.100     13.856
REMARK  5 active torsions:
REMARK  status: ('A' for Active; 'I' for Inactive)
REMARK    1  A    between atoms: C_2  and  C_3 
REMARK    2  A    between atoms: C_3  and  C_4 
REMARK    3  A    between atoms: C_3  and  C_29 
REMARK       I    between atoms: C_4  and  N_5 
REMARK    4  A    between atoms: N_5  and  C_6 
REMARK    5  A    between atoms: C_18  and  C_19 
ROOT
HETATM    1  C   UNL     1      17.673  48.102  49.094  1.00  0.00     0.088 C 
HETATM    2  C   UNL     1      18.465  46.892  48.637  1.00  0.00     0.060 C 
HETATM    3  C   UNL     1      18.576  46.724  47.108  1.00  0.00     0.181 C 
HETATM    4  N   UNL     1      17.442  47.227  46.317  1.00  0.00    -0.334 N 
HETATM    5  C   UNL     1      17.539  47.382  44.927  1.00  0.00     0.256 C 
HETATM    6  O   UNL     1      16.695  48.018  44.290  1.00  0.00    -0.267 OA
HETATM    7  C   UNL     1      18.690  46.844  44.159  1.00  0.00     0.059 A 
HETATM    8  C   UNL     1      19.326  45.629  44.417  1.00  0.00     0.050 A 
HETATM    9  N   UNL     1      19.120  44.831  45.544  1.00  0.00    -0.324 N 
HETATM   10  C   UNL     1      18.785  45.222  46.807  1.00  0.00     0.245 C 
HETATM   11  O   UNL     1      18.806  44.351  47.682  1.00  0.00    -0.271 OA
HETATM   12  C   UNL     1      19.041  47.572  43.002  1.00  0.00     0.031 A 
HETATM   13  C   UNL     1      20.005  47.103  42.103  1.00  0.00    -0.024 A 
HETATM   14  C   UNL     1      20.594  45.861  42.345  1.00  0.00     0.014 A 
HETATM   15  C   UNL     1      20.248  45.129  43.482  1.00  0.00     0.031 A 
HETATM   16  C   UNL     1      16.444  48.114  46.923  1.00  0.00     0.129 C 
HETATM   17  C   UNL     1      16.306  48.048  48.429  1.00  0.00     0.045 C 
HETATM   18  H   UNL     1      19.435  43.868  45.520  1.00  0.00     0.169 HD
ENDROOT
BRANCH   1  19
HETATM   19  N   UNL     1      18.377  49.354  48.850  1.00  0.00    -0.356 N 
HETATM   20  C   UNL     1      18.819  50.138  49.896  1.00  0.00     0.222 C 
HETATM   21  O   UNL     1      18.715  49.803  51.072  1.00  0.00    -0.273 OA
HETATM   22  H   UNL     1      18.321  49.775  47.933  1.00  0.00     0.162 HD
BRANCH  20  23
HETATM   23  C   UNL     1      19.454  51.473  49.501  1.00  0.00     0.077 C 
BRANCH  23  24
HETATM   24  C   UNL     1      18.429  52.416  48.848  1.00  0.00     0.009 C 
HETATM   25  C   UNL     1      17.231  52.700  49.746  1.00  0.00     0.006 C 
ENDBRANCH  23  24
BRANCH  23  26
HETATM   26  C   UNL     1      20.667  51.273  48.575  1.00  0.00     0.009 C 
HETATM   27  C   UNL     1      21.910  50.813  49.327  1.00  0.00     0.006 C 
ENDBRANCH  23  26
ENDBRANCH  20  23
ENDBRANCH   1  19
BRANCH  13  28
HETATM   28  C   UNL     1      20.359  47.897  40.930  1.00  0.00    -0.019 A 
HETATM   29  C   UNL     1      19.408  48.333  40.026  1.00  0.00     0.061 A 
HETATM   30  S   UNL     1      20.088  49.215  38.725  1.00  0.00    -0.113 SA
HETATM   31  C   UNL     1      21.667  49.015  39.345  1.00  0.00     0.050 A 
HETATM   32  C   UNL     1      21.674  48.295  40.519  1.00  0.00     0.020 A 
ENDBRANCH  13  28
TORSDOF 5
ENDMDL
