MODEL 1
REMARK VINA RESULT:     -11.9      0.000      0.000
REMARK  6 active torsions:
REMARK  status: ('A' for Active; 'I' for Inactive)
REMARK    1  A    between atoms: C_2  and  N_3 
REMARK    2  A    between atoms: C_2  and  C_32 
REMARK       I    between atoms: N_3  and  C_4 
REMARK    3  A    between atoms: C_4  and  C_5 
REMARK    4  A    between atoms: C_6  and  N_7 
REMARK       I    between atoms: N_7  and  C_8 
REMARK    5  A    between atoms: C_8  and  C_9 
REMARK    6  A    between atoms: C_9  and  N_10 
ROOT
HETATM    1  N   UNL     1      25.165  46.991  50.697  1.00  0.00    -0.325 N 
HETATM    2  C   UNL     1      25.206  45.613  50.541  1.00  0.00     0.240 C 
HETATM    3  O   UNL     1      25.529  45.004  49.526  1.00  0.00    -0.271 OA
HETATM    4  H   UNL     1      24.694  47.338  51.528  1.00  0.00     0.169 HD
ENDROOT
BRANCH   1   5
HETATM    5  C   UNL     1      25.550  47.992  49.775  1.00  0.00     0.050 A 
HETATM    6  C   UNL     1      24.571  48.579  48.941  1.00  0.00     0.058 A 
HETATM    7  C   UNL     1      24.907  49.646  48.095  1.00  0.00     0.019 A 
HETATM    8  C   UNL     1      26.217  50.118  48.045  1.00  0.00     0.001 A 
HETATM    9  C   UNL     1      27.192  49.526  48.842  1.00  0.00     0.002 A 
HETATM   10  C   UNL     1      26.862  48.473  49.702  1.00  0.00     0.030 A 
BRANCH   6  11
HETATM   11  C   UNL     1      23.146  48.145  48.925  1.00  0.00     0.254 C 
HETATM   12  N   UNL     1      22.214  49.108  48.587  1.00  0.00    -0.349 N 
HETATM   13  H   UNL     1      22.492  50.087  48.617  1.00  0.00     0.163 HD
HETATM   14  O   UNL     1      22.861  46.985  49.200  1.00  0.00    -0.268 OA
BRANCH  12  15
HETATM   15  C   UNL     1      20.784  48.831  48.648  1.00  0.00     0.114 C 
HETATM   16  C   UNL     1      20.352  47.986  47.450  1.00  0.00     0.037 C 
BRANCH  15  17
HETATM   17  C   UNL     1      19.980  50.116  48.745  1.00  0.00    -0.036 A 
HETATM   18  C   UNL     1      19.593  50.786  47.574  1.00  0.00     0.009 A 
HETATM   19  C   UNL     1      18.877  51.985  47.639  1.00  0.00     0.001 A 
HETATM   20  C   UNL     1      18.534  52.526  48.874  1.00  0.00     0.000 A 
HETATM   21  C   UNL     1      18.900  51.870  50.047  1.00  0.00     0.001 A 
HETATM   22  C   UNL     1      19.618  50.674  49.982  1.00  0.00     0.009 A 
ENDBRANCH  15  17
ENDBRANCH  12  15
ENDBRANCH   6  11
ENDBRANCH   1   5
BRANCH   2  23
HETATM   23  C   UNL     1      24.678  44.881  51.776  1.00  0.00     0.240 C 
BRANCH  23  24
HETATM   24  N   UNL     1      25.728  44.697  52.752  1.00  0.00    -0.259 N 
HETATM   25  C   UNL     1      25.512  44.169  53.987  1.00  0.00     0.326 C 
HETATM   26  O   UNL     1      24.440  43.922  54.511  1.00  0.00    -0.247 OA
HETATM   27  N   UNL     1      26.727  43.866  54.551  1.00  0.00    -0.324 N 
HETATM   28  C   UNL     1      27.844  44.182  53.684  1.00  0.00     0.120 C 
HETATM   29  H   UNL     1      26.792  43.501  55.493  1.00  0.00     0.165 HD
HETATM   30  C   UNL     1      28.703  45.317  54.242  1.00  0.00     0.080 C 
HETATM   31  C   UNL     1      28.696  42.962  53.341  1.00  0.00     0.046 C 
HETATM   32  C   UNL     1      27.059  44.635  52.443  1.00  0.00     0.257 C 
HETATM   33  C   UNL     1      29.636  44.842  55.337  1.00  0.00    -0.049 A 
HETATM   34  C   UNL     1      29.998  43.487  55.458  1.00  0.00    -0.052 A 
HETATM   35  C   UNL     1      30.187  45.783  56.220  1.00  0.00     0.007 A 
HETATM   36  C   UNL     1      29.413  42.416  54.572  1.00  0.00     0.042 C 
HETATM   37  C   UNL     1      30.881  43.099  56.479  1.00  0.00     0.007 A 
HETATM   38  C   UNL     1      31.412  44.042  57.357  1.00  0.00     0.001 A 
HETATM   39  C   UNL     1      31.065  45.384  57.227  1.00  0.00     0.001 A 
HETATM   40  O   UNL     1      27.547  44.878  51.345  1.00  0.00    -0.270 OA
ENDBRANCH  23  24
ENDBRANCH   2  23
TORSDOF 6
ENDMDL
MODEL 2
REMARK VINA RESULT:     -11.8      2.137     11.488
REMARK  6 active torsions:
REMARK  status: ('A' for Active; 'I' for Inactive)
REMARK    1  A    between atoms: C_2  and  N_3 
REMARK    2  A    between atoms: C_2  and  C_32 
REMARK       I    between atoms: N_3  and  C_4 
REMARK    3  A    between atoms: C_4  and  C_5 
REMARK    4  A    between atoms: C_6  and  N_7 
REMARK       I    between atoms: N_7  and  C_8 
REMARK    5  A    between atoms: C_8  and  C_9 
REMARK    6  A    between atoms: C_9  and  N_10 
ROOT
HETATM    1  N   UNL     1      23.151  47.965  49.561  1.00  0.00    -0.325 N 
HETATM    2  C   UNL     1      22.243  47.613  48.574  1.00  0.00     0.240 C 
HETATM    3  O   UNL     1      22.439  47.637  47.363  1.00  0.00    -0.271 OA
HETATM    4  H   UNL     1      22.777  48.077  50.500  1.00  0.00     0.169 HD
ENDROOT
BRANCH   1   5
HETATM    5  C   UNL     1      24.505  48.349  49.415  1.00  0.00     0.050 A 
HETATM    6  C   UNL     1      25.519  47.531  49.963  1.00  0.00     0.058 A 
HETATM    7  C   UNL     1      26.871  47.832  49.742  1.00  0.00     0.019 A 
HETATM    8  C   UNL     1      27.228  48.960  49.006  1.00  0.00     0.001 A 
HETATM    9  C   UNL     1      26.235  49.786  48.488  1.00  0.00     0.002 A 
HETATM   10  C   UNL     1      24.884  49.483  48.689  1.00  0.00     0.030 A 
BRANCH   6  11
HETATM   11  C   UNL     1      25.237  46.305  50.762  1.00  0.00     0.254 C 
HETATM   12  N   UNL     1      26.078  46.061  51.832  1.00  0.00    -0.349 N 
HETATM   13  H   UNL     1      26.968  46.555  51.875  1.00  0.00     0.163 HD
HETATM   14  O   UNL     1      24.297  45.582  50.453  1.00  0.00    -0.268 OA
BRANCH  12  15
HETATM   15  C   UNL     1      25.970  44.837  52.615  1.00  0.00     0.114 C 
HETATM   16  C   UNL     1      25.086  45.063  53.841  1.00  0.00     0.037 C 
BRANCH  15  17
HETATM   17  C   UNL     1      27.341  44.311  53.003  1.00  0.00    -0.036 A 
HETATM   18  C   UNL     1      28.079  43.544  52.088  1.00  0.00     0.009 A 
HETATM   19  C   UNL     1      29.329  43.025  52.433  1.00  0.00     0.001 A 
HETATM   20  C   UNL     1      29.863  43.271  53.695  1.00  0.00     0.000 A 
HETATM   21  C   UNL     1      29.150  44.039  54.613  1.00  0.00     0.001 A 
HETATM   22  C   UNL     1      27.898  44.555  54.269  1.00  0.00     0.009 A 
ENDBRANCH  15  17
ENDBRANCH  12  15
ENDBRANCH   6  11
ENDBRANCH   1   5
BRANCH   2  23
HETATM   23  C   UNL     1      20.867  47.281  49.153  1.00  0.00     0.240 C 
BRANCH  23  24
HETATM   24  N   UNL     1      19.861  48.183  48.638  1.00  0.00    -0.259 N 
HETATM   25  C   UNL     1      18.630  47.770  48.234  1.00  0.00     0.326 C 
HETATM   26  O   UNL     1      18.239  46.624  48.096  1.00  0.00    -0.247 OA
HETATM   27  N   UNL     1      17.831  48.876  48.075  1.00  0.00    -0.324 N 
HETATM   28  C   UNL     1      18.515  50.114  48.385  1.00  0.00     0.120 C 
HETATM   29  H   UNL     1      16.881  48.792  47.735  1.00  0.00     0.165 HD
HETATM   30  C   UNL     1      18.705  50.991  47.147  1.00  0.00     0.080 C 
HETATM   31  C   UNL     1      17.853  50.894  49.518  1.00  0.00     0.046 C 
HETATM   32  C   UNL     1      19.853  49.531  48.865  1.00  0.00     0.257 C 
HETATM   33  C   UNL     1      17.440  51.738  46.776  1.00  0.00    -0.049 A 
HETATM   34  C   UNL     1      16.417  51.964  47.716  1.00  0.00    -0.052 A 
HETATM   35  C   UNL     1      17.308  52.254  45.478  1.00  0.00     0.007 A 
HETATM   36  C   UNL     1      16.473  51.403  49.115  1.00  0.00     0.042 C 
HETATM   37  C   UNL     1      15.271  52.677  47.328  1.00  0.00     0.007 A 
HETATM   38  C   UNL     1      15.147  53.174  46.032  1.00  0.00     0.001 A 
HETATM   39  C   UNL     1      16.165  52.963  45.107  1.00  0.00     0.001 A 
HETATM   40  O   UNL     1      20.757  50.170  49.391  1.00  0.00    -0.270 OA
ENDBRANCH  23  24
ENDBRANCH   2  23
TORSDOF 6
ENDMDL
MODEL 3
REMARK VINA RESULT:     -11.6      2.249     11.426
REMARK  6 active torsions:
REMARK  status: ('A' for Active; 'I' for Inactive)
REMARK    1  A    between atoms: C_2  and  N_3 
REMARK    2  A    between atoms: C_2  and  C_32 
REMARK       I    between atoms: N_3  and  C_4 
REMARK    3  A    between atoms: C_4  and  C_5 
REMARK    4  A    between atoms: C_6  and  N_7 
REMARK       I    between atoms: N_7  and  C_8 
REMARK    5  A    between atoms: C_8  and  C_9 
REMARK    6  A    between atoms: C_9  and  N_10 
ROOT
HETATM    1  N   UNL     1      23.811  48.394  48.945  1.00  0.00    -0.325 N 
HETATM    2  C   UNL     1      22.707  49.118  49.371  1.00  0.00     0.240 C 
HETATM    3  O   UNL     1      22.726  50.187  49.973  1.00  0.00    -0.271 OA
HETATM    4  H   UNL     1      23.635  47.442  48.636  1.00  0.00     0.169 HD
ENDROOT
BRANCH   1   5
HETATM    5  C   UNL     1      25.179  48.744  49.030  1.00  0.00     0.050 A 
HETATM    6  C   UNL     1      26.077  47.871  49.687  1.00  0.00     0.058 A 
HETATM    7  C   UNL     1      27.453  48.142  49.693  1.00  0.00     0.019 A 
HETATM    8  C   UNL     1      27.946  49.292  49.079  1.00  0.00     0.001 A 
HETATM    9  C   UNL     1      27.065  50.170  48.455  1.00  0.00     0.002 A 
HETATM   10  C   UNL     1      25.692  49.898  48.429  1.00  0.00     0.030 A 
BRANCH   6  11
HETATM   11  C   UNL     1      25.646  46.619  50.370  1.00  0.00     0.254 C 
HETATM   12  N   UNL     1      26.284  46.315  51.558  1.00  0.00    -0.349 N 
HETATM   13  H   UNL     1      27.158  46.791  51.777  1.00  0.00     0.163 HD
HETATM   14  O   UNL     1      24.767  45.926  49.870  1.00  0.00    -0.268 OA
BRANCH  12  15
HETATM   15  C   UNL     1      26.028  45.062  52.255  1.00  0.00     0.114 C 
HETATM   16  C   UNL     1      25.033  45.279  53.395  1.00  0.00     0.037 C 
BRANCH  15  17
HETATM   17  C   UNL     1      27.320  44.436  52.752  1.00  0.00    -0.036 A 
HETATM   18  C   UNL     1      28.035  43.560  51.920  1.00  0.00     0.009 A 
HETATM   19  C   UNL     1      29.210  42.950  52.366  1.00  0.00     0.001 A 
HETATM   20  C   UNL     1      29.690  43.211  53.646  1.00  0.00     0.000 A 
HETATM   21  C   UNL     1      28.999  44.085  54.482  1.00  0.00     0.001 A 
HETATM   22  C   UNL     1      27.823  44.693  54.038  1.00  0.00     0.009 A 
ENDBRANCH  15  17
ENDBRANCH  12  15
ENDBRANCH   6  11
ENDBRANCH   1   5
BRANCH   2  23
HETATM   23  C   UNL     1      21.398  48.373  49.109  1.00  0.00     0.240 C 
BRANCH  23  24
HETATM   24  N   UNL     1      20.299  49.301  48.958  1.00  0.00    -0.259 N 
HETATM   25  C   UNL     1      20.199  50.172  47.918  1.00  0.00     0.326 C 
HETATM   26  O   UNL     1      21.040  50.417  47.071  1.00  0.00    -0.247 OA
HETATM   27  N   UNL     1      18.930  50.697  47.911  1.00  0.00    -0.324 N 
HETATM   28  C   UNL     1      18.099  50.176  48.976  1.00  0.00     0.120 C 
HETATM   29  H   UNL     1      18.659  51.404  47.239  1.00  0.00     0.165 HD
HETATM   30  C   UNL     1      17.739  51.250  50.003  1.00  0.00     0.080 C 
HETATM   31  C   UNL     1      16.851  49.461  48.464  1.00  0.00     0.046 C 
HETATM   32  C   UNL     1      19.082  49.152  49.564  1.00  0.00     0.257 C 
HETATM   33  C   UNL     1      16.621  52.151  49.519  1.00  0.00    -0.049 A 
HETATM   34  C   UNL     1      15.733  51.742  48.506  1.00  0.00    -0.052 A 
HETATM   35  C   UNL     1      16.440  53.402  50.128  1.00  0.00     0.007 A 
HETATM   36  C   UNL     1      15.893  50.430  47.779  1.00  0.00     0.042 C 
HETATM   37  C   UNL     1      14.702  52.606  48.104  1.00  0.00     0.007 A 
HETATM   38  C   UNL     1      14.541  53.852  48.709  1.00  0.00     0.001 A 
HETATM   39  C   UNL     1      15.410  54.249  49.721  1.00  0.00     0.001 A 
HETATM   40  O   UNL     1      18.811  48.318  50.420  1.00  0.00    -0.270 OA
ENDBRANCH  23  24
ENDBRANCH   2  23
TORSDOF 6
ENDMDL
MODEL 4
REMARK VINA RESULT:     -11.4      2.286      3.444
REMARK  6 active torsions:
REMARK  status: ('A' for Active; 'I' for Inactive)
REMARK    1  A    between atoms: C_2  and  N_3 
REMARK    2  A    between atoms: C_2  and  C_32 
REMARK       I    between atoms: N_3  and  C_4 
REMARK    3  A    between atoms: C_4  and  C_5 
REMARK    4  A    between atoms: C_6  and  N_7 
REMARK       I    between atoms: N_7  and  C_8 
REMARK    5  A    between atoms: C_8  and  C_9 
REMARK    6  A    between atoms: C_9  and  N_10 
ROOT
HETATM    1  N   UNL     1      24.084  44.472  49.836  1.00  0.00    -0.325 N 
HETATM    2  C   UNL     1      24.298  44.091  51.153  1.00  0.00     0.240 C 
HETATM    3  O   UNL     1      24.187  42.958  51.610  1.00  0.00    -0.271 OA
HETATM    4  H   UNL     1      24.027  45.471  49.658  1.00  0.00     0.169 HD
ENDROOT
BRANCH   1   5
HETATM    5  C   UNL     1      23.773  43.655  48.724  1.00  0.00     0.050 A 
HETATM    6  C   UNL     1      22.581  43.893  48.002  1.00  0.00     0.058 A 
HETATM    7  C   UNL     1      22.301  43.168  46.834  1.00  0.00     0.019 A 
HETATM    8  C   UNL     1      23.182  42.183  46.391  1.00  0.00     0.001 A 
HETATM    9  C   UNL     1      24.343  41.924  47.112  1.00  0.00     0.002 A 
HETATM   10  C   UNL     1      24.639  42.655  48.269  1.00  0.00     0.030 A 
BRANCH   6  11
HETATM   11  C   UNL     1      21.580  44.925  48.396  1.00  0.00     0.254 C 
HETATM   12  N   UNL     1      21.778  46.197  47.895  1.00  0.00    -0.349 N 
HETATM   13  H   UNL     1      22.692  46.434  47.512  1.00  0.00     0.163 HD
HETATM   14  O   UNL     1      20.644  44.615  49.125  1.00  0.00    -0.268 OA
BRANCH  12  15
HETATM   15  C   UNL     1      20.931  47.311  48.301  1.00  0.00     0.114 C 
HETATM   16  C   UNL     1      19.710  47.415  47.387  1.00  0.00     0.037 C 
BRANCH  15  17
HETATM   17  C   UNL     1      21.714  48.612  48.338  1.00  0.00    -0.036 A 
HETATM   18  C   UNL     1      23.116  48.584  48.270  1.00  0.00     0.009 A 
HETATM   19  C   UNL     1      23.859  49.766  48.331  1.00  0.00     0.001 A 
HETATM   20  C   UNL     1      23.211  50.992  48.454  1.00  0.00     0.000 A 
HETATM   21  C   UNL     1      21.820  51.040  48.512  1.00  0.00     0.001 A 
HETATM   22  C   UNL     1      21.078  49.859  48.455  1.00  0.00     0.009 A 
ENDBRANCH  15  17
ENDBRANCH  12  15
ENDBRANCH   6  11
ENDBRANCH   1   5
BRANCH   2  23
HETATM   23  C   UNL     1      24.592  45.291  52.055  1.00  0.00     0.240 C 
BRANCH  23  24
HETATM   24  N   UNL     1      25.668  44.993  52.973  1.00  0.00    -0.259 N 
HETATM   25  C   UNL     1      25.486  44.310  54.135  1.00  0.00     0.326 C 
HETATM   26  O   UNL     1      24.428  43.989  54.650  1.00  0.00    -0.247 OA
HETATM   27  N   UNL     1      26.717  43.948  54.625  1.00  0.00    -0.324 N 
HETATM   28  C   UNL     1      27.809  44.381  53.778  1.00  0.00     0.120 C 
HETATM   29  H   UNL     1      26.807  43.466  55.511  1.00  0.00     0.165 HD
HETATM   30  C   UNL     1      28.676  45.443  54.456  1.00  0.00     0.080 C 
HETATM   31  C   UNL     1      28.658  43.222  53.262  1.00  0.00     0.046 C 
HETATM   32  C   UNL     1      26.991  44.982  52.626  1.00  0.00     0.257 C 
HETATM   33  C   UNL     1      29.639  44.840  55.457  1.00  0.00    -0.049 A 
HETATM   34  C   UNL     1      30.012  43.483  55.396  1.00  0.00    -0.052 A 
HETATM   35  C   UNL     1      30.208  45.665  56.439  1.00  0.00     0.007 A 
HETATM   36  C   UNL     1      29.409  42.530  54.395  1.00  0.00     0.042 C 
HETATM   37  C   UNL     1      30.922  42.976  56.336  1.00  0.00     0.007 A 
HETATM   38  C   UNL     1      31.470  43.804  57.315  1.00  0.00     0.001 A 
HETATM   39  C   UNL     1      31.113  45.148  57.366  1.00  0.00     0.001 A 
HETATM   40  O   UNL     1      27.449  45.367  51.556  1.00  0.00    -0.270 OA
ENDBRANCH  23  24
ENDBRANCH   2  23
TORSDOF 6
ENDMDL
MODEL 5
REMARK VINA RESULT:     -11.4      3.106      9.201
REMARK  6 active torsions:
REMARK  status: ('A' for Active; 'I' for Inactive)
REMARK    1  A    between atoms: C_2  and  N_3 
REMARK    2  A    between atoms: C_2  and  C_32 
REMARK       I    between atoms: N_3  and  C_4 
REMARK    3  A    between atoms: C_4  and  C_5 
REMARK    4  A    between atoms: C_6  and  N_7 
REMARK       I    between atoms: N_7  and  C_8 
REMARK    5  A    between atoms: C_8  and  C_9 
REMARK    6  A    between atoms: C_9  and  N_10 
ROOT
HETATM    1  N   UNL     1      24.652  41.746  49.417  1.00  0.00    -0.325 N 
HETATM    2  C   UNL     1      24.329  41.710  48.068  1.00  0.00     0.240 C 
HETATM    3  O   UNL     1      25.095  41.458  47.143  1.00  0.00    -0.271 OA
HETATM    4  H   UNL     1      23.959  42.158  50.036  1.00  0.00     0.169 HD
ENDROOT
BRANCH   1   5
HETATM    5  C   UNL     1      25.884  41.432  50.036  1.00  0.00     0.050 A 
HETATM    6  C   UNL     1      26.361  42.252  51.084  1.00  0.00     0.058 A 
HETATM    7  C   UNL     1      27.525  41.902  51.785  1.00  0.00     0.019 A 
HETATM    8  C   UNL     1      28.242  40.761  51.431  1.00  0.00     0.001 A 
HETATM    9  C   UNL     1      27.794  39.965  50.381  1.00  0.00     0.002 A 
HETATM   10  C   UNL     1      26.623  40.296  49.689  1.00  0.00     0.030 A 
BRANCH   6  11
HETATM   11  C   UNL     1      25.664  43.490  51.534  1.00  0.00     0.254 C 
HETATM   12  N   UNL     1      26.418  44.648  51.551  1.00  0.00    -0.349 N 
HETATM   13  H   UNL     1      27.433  44.570  51.510  1.00  0.00     0.163 HD
HETATM   14  O   UNL     1      24.484  43.438  51.860  1.00  0.00    -0.268 OA
BRANCH  12  15
HETATM   15  C   UNL     1      25.879  45.895  52.079  1.00  0.00     0.114 C 
HETATM   16  C   UNL     1      26.017  47.015  51.048  1.00  0.00     0.037 C 
BRANCH  15  17
HETATM   17  C   UNL     1      26.537  46.263  53.397  1.00  0.00    -0.036 A 
HETATM   18  C   UNL     1      26.182  47.458  54.043  1.00  0.00     0.009 A 
HETATM   19  C   UNL     1      26.795  47.831  55.242  1.00  0.00     0.001 A 
HETATM   20  C   UNL     1      27.765  47.014  55.814  1.00  0.00     0.000 A 
HETATM   21  C   UNL     1      28.122  45.820  55.193  1.00  0.00     0.001 A 
HETATM   22  C   UNL     1      27.513  45.447  53.993  1.00  0.00     0.009 A 
ENDBRANCH  15  17
ENDBRANCH  12  15
ENDBRANCH   6  11
ENDBRANCH   1   5
BRANCH   2  23
HETATM   23  C   UNL     1      22.885  42.145  47.813  1.00  0.00     0.240 C 
BRANCH  23  24
HETATM   24  N   UNL     1      22.786  43.586  47.750  1.00  0.00    -0.259 N 
HETATM   25  C   UNL     1      22.845  44.286  46.585  1.00  0.00     0.326 C 
HETATM   26  O   UNL     1      23.131  43.862  45.479  1.00  0.00    -0.247 OA
HETATM   27  N   UNL     1      22.440  45.575  46.830  1.00  0.00    -0.324 N 
HETATM   28  C   UNL     1      22.073  45.796  48.214  1.00  0.00     0.120 C 
HETATM   29  H   UNL     1      22.452  46.277  46.100  1.00  0.00     0.165 HD
HETATM   30  C   UNL     1      23.036  46.752  48.919  1.00  0.00     0.080 C 
HETATM   31  C   UNL     1      20.624  46.249  48.381  1.00  0.00     0.046 C 
HETATM   32  C   UNL     1      22.234  44.360  48.734  1.00  0.00     0.257 C 
HETATM   33  C   UNL     1      22.759  48.201  48.572  1.00  0.00    -0.049 A 
HETATM   34  C   UNL     1      21.505  48.613  48.081  1.00  0.00    -0.052 A 
HETATM   35  C   UNL     1      23.761  49.158  48.792  1.00  0.00     0.007 A 
HETATM   36  C   UNL     1      20.398  47.633  47.783  1.00  0.00     0.042 C 
HETATM   37  C   UNL     1      21.292  49.970  47.792  1.00  0.00     0.007 A 
HETATM   38  C   UNL     1      22.300  50.910  48.002  1.00  0.00     0.001 A 
HETATM   39  C   UNL     1      23.534  50.504  48.502  1.00  0.00     0.001 A 
HETATM   40  O   UNL     1      21.897  43.965  49.845  1.00  0.00    -0.270 OA
ENDBRANCH  23  24
ENDBRANCH   2  23
TORSDOF 6
ENDMDL
MODEL 6
REMARK VINA RESULT:     -11.2      3.793      9.662
REMARK  6 active torsions:
REMARK  status: ('A' for Active; 'I' for Inactive)
REMARK    1  A    between atoms: C_2  and  N_3 
REMARK    2  A    between atoms: C_2  and  C_32 
REMARK       I    between atoms: N_3  and  C_4 
REMARK    3  A    between atoms: C_4  and  C_5 
REMARK    4  A    between atoms: C_6  and  N_7 
REMARK       I    between atoms: N_7  and  C_8 
REMARK    5  A    between atoms: C_8  and  C_9 
REMARK    6  A    between atoms: C_9  and  N_10 
ROOT
HETATM    1  N   UNL     1      23.538  45.228  49.072  1.00  0.00    -0.325 N 
HETATM    2  C   UNL     1      22.449  44.373  48.984  1.00  0.00     0.240 C 
HETATM    3  O   UNL     1      21.980  43.696  49.893  1.00  0.00    -0.271 OA
HETATM    4  H   UNL     1      23.920  45.565  48.192  1.00  0.00     0.169 HD
ENDROOT
BRANCH   1   5
HETATM    5  C   UNL     1      24.296  45.572  50.216  1.00  0.00     0.050 A 
HETATM    6  C   UNL     1      24.562  46.934  50.485  1.00  0.00     0.058 A 
HETATM    7  C   UNL     1      25.219  47.308  51.667  1.00  0.00     0.019 A 
HETATM    8  C   UNL     1      25.646  46.338  52.571  1.00  0.00     0.001 A 
HETATM    9  C   UNL     1      25.412  44.993  52.298  1.00  0.00     0.002 A 
HETATM   10  C   UNL     1      24.741  44.612  51.131  1.00  0.00     0.030 A 
BRANCH   6  11
HETATM   11  C   UNL     1      24.146  48.042  49.580  1.00  0.00     0.254 C 
HETATM   12  N   UNL     1      22.928  48.636  49.855  1.00  0.00    -0.349 N 
HETATM   13  H   UNL     1      22.276  48.150  50.468  1.00  0.00     0.163 HD
HETATM   14  O   UNL     1      24.877  48.378  48.656  1.00  0.00    -0.268 OA
BRANCH  12  15
HETATM   15  C   UNL     1      22.366  49.651  48.974  1.00  0.00     0.114 C 
HETATM   16  C   UNL     1      23.233  50.910  48.987  1.00  0.00     0.037 C 
BRANCH  15  17
HETATM   17  C   UNL     1      20.925  49.960  49.342  1.00  0.00    -0.036 A 
HETATM   18  C   UNL     1      20.471  51.288  49.329  1.00  0.00     0.009 A 
HETATM   19  C   UNL     1      19.158  51.600  49.691  1.00  0.00     0.001 A 
HETATM   20  C   UNL     1      18.279  50.588  50.065  1.00  0.00     0.000 A 
HETATM   21  C   UNL     1      18.708  49.263  50.074  1.00  0.00     0.001 A 
HETATM   22  C   UNL     1      20.021  48.951  49.715  1.00  0.00     0.009 A 
ENDBRANCH  15  17
ENDBRANCH  12  15
ENDBRANCH   6  11
ENDBRANCH   1   5
BRANCH   2  23
HETATM   23  C   UNL     1      21.926  44.259  47.551  1.00  0.00     0.240 C 
BRANCH  23  24
HETATM   24  N   UNL     1      20.843  45.190  47.323  1.00  0.00    -0.259 N 
HETATM   25  C   UNL     1      21.040  46.483  46.949  1.00  0.00     0.326 C 
HETATM   26  O   UNL     1      22.097  47.088  46.898  1.00  0.00    -0.247 OA
HETATM   27  N   UNL     1      19.838  47.007  46.543  1.00  0.00    -0.324 N 
HETATM   28  C   UNL     1      18.752  46.052  46.623  1.00  0.00     0.120 C 
HETATM   29  H   UNL     1      19.756  47.977  46.265  1.00  0.00     0.165 HD
HETATM   30  C   UNL     1      17.720  46.442  47.683  1.00  0.00     0.080 C 
HETATM   31  C   UNL     1      18.086  45.792  45.274  1.00  0.00     0.046 C 
HETATM   32  C   UNL     1      19.555  44.816  47.056  1.00  0.00     0.257 C 
HETATM   33  C   UNL     1      16.783  47.527  47.195  1.00  0.00    -0.049 A 
HETATM   34  C   UNL     1      16.587  47.769  45.822  1.00  0.00    -0.052 A 
HETATM   35  C   UNL     1      16.058  48.276  48.135  1.00  0.00     0.007 A 
HETATM   36  C   UNL     1      17.363  47.031  44.759  1.00  0.00     0.042 C 
HETATM   37  C   UNL     1      15.694  48.774  45.420  1.00  0.00     0.007 A 
HETATM   38  C   UNL     1      14.989  49.519  46.364  1.00  0.00     0.001 A 
HETATM   39  C   UNL     1      15.172  49.270  47.721  1.00  0.00     0.001 A 
HETATM   40  O   UNL     1      19.116  43.674  47.126  1.00  0.00    -0.270 OA
ENDBRANCH  23  24
ENDBRANCH   2  23
TORSDOF 6
ENDMDL
MODEL 7
REMARK VINA RESULT:     -11.1     18.076     21.493
REMARK  6 active torsions:
REMARK  status: ('A' for Active; 'I' for Inactive)
REMARK    1  A    between atoms: C_2  and  N_3 
REMARK    2  A    between atoms: C_2  and  C_32 
REMARK       I    between atoms: N_3  and  C_4 
REMARK    3  A    between atoms: C_4  and  C_5 
REMARK    4  A    between atoms: C_6  and  N_7 
REMARK       I    between atoms: N_7  and  C_8 
REMARK    5  A    between atoms: C_8  and  C_9 
REMARK    6  A    between atoms: C_9  and  N_10 
ROOT
HETATM    1  N   UNL     1      37.785  46.671  64.311  1.00  0.00    -0.325 N 
HETATM    2  C   UNL     1      37.008  45.657  64.852  1.00  0.00     0.240 C 
HETATM    3  O   UNL     1      36.626  45.575  66.015  1.00  0.00    -0.271 OA
HETATM    4  H   UNL     1      38.177  46.497  63.390  1.00  0.00     0.169 HD
ENDROOT
BRANCH   1   5
HETATM    5  C   UNL     1      38.240  47.858  64.933  1.00  0.00     0.050 A 
HETATM    6  C   UNL     1      39.617  48.004  65.219  1.00  0.00     0.058 A 
HETATM    7  C   UNL     1      40.109  49.212  65.737  1.00  0.00     0.019 A 
HETATM    8  C   UNL     1      39.240  50.267  66.005  1.00  0.00     0.001 A 
HETATM    9  C   UNL     1      37.880  50.120  65.753  1.00  0.00     0.002 A 
HETATM   10  C   UNL     1      37.383  48.925  65.219  1.00  0.00     0.030 A 
BRANCH   6  11
HETATM   11  C   UNL     1      40.622  46.934  64.966  1.00  0.00     0.254 C 
HETATM   12  N   UNL     1      41.368  46.522  66.053  1.00  0.00    -0.349 N 
HETATM   13  H   UNL     1      41.388  47.112  66.883  1.00  0.00     0.163 HD
HETATM   14  O   UNL     1      40.745  46.471  63.837  1.00  0.00    -0.268 OA
BRANCH  12  15
HETATM   15  C   UNL     1      42.457  45.565  65.905  1.00  0.00     0.114 C 
HETATM   16  C   UNL     1      42.516  44.631  67.114  1.00  0.00     0.037 C 
BRANCH  15  17
HETATM   17  C   UNL     1      43.783  46.272  65.679  1.00  0.00    -0.036 A 
HETATM   18  C   UNL     1      44.136  47.366  66.484  1.00  0.00     0.009 A 
HETATM   19  C   UNL     1      45.336  48.049  66.276  1.00  0.00     0.001 A 
HETATM   20  C   UNL     1      46.203  47.645  65.264  1.00  0.00     0.000 A 
HETATM   21  C   UNL     1      45.874  46.555  64.462  1.00  0.00     0.001 A 
HETATM   22  C   UNL     1      44.673  45.874  64.668  1.00  0.00     0.009 A 
ENDBRANCH  15  17
ENDBRANCH  12  15
ENDBRANCH   6  11
ENDBRANCH   1   5
BRANCH   2  23
HETATM   23  C   UNL     1      36.752  44.534  63.846  1.00  0.00     0.240 C 
BRANCH  23  24
HETATM   24  N   UNL     1      37.589  43.390  64.128  1.00  0.00    -0.259 N 
HETATM   25  C   UNL     1      37.179  42.336  64.884  1.00  0.00     0.326 C 
HETATM   26  O   UNL     1      36.158  42.249  65.543  1.00  0.00    -0.247 OA
HETATM   27  N   UNL     1      38.078  41.310  64.726  1.00  0.00    -0.324 N 
HETATM   28  C   UNL     1      39.159  41.644  63.821  1.00  0.00     0.120 C 
HETATM   29  H   UNL     1      37.981  40.443  65.240  1.00  0.00     0.165 HD
HETATM   30  C   UNL     1      40.506  41.725  64.539  1.00  0.00     0.080 C 
HETATM   31  C   UNL     1      39.233  40.714  62.612  1.00  0.00     0.046 C 
HETATM   32  C   UNL     1      38.678  43.034  63.380  1.00  0.00     0.257 C 
HETATM   33  C   UNL     1      41.097  40.355  64.802  1.00  0.00    -0.049 A 
HETATM   34  C   UNL     1      40.702  39.228  64.057  1.00  0.00    -0.052 A 
HETATM   35  C   UNL     1      42.094  40.219  65.780  1.00  0.00     0.007 A 
HETATM   36  C   UNL     1      39.608  39.293  63.021  1.00  0.00     0.042 C 
HETATM   37  C   UNL     1      41.293  37.983  64.327  1.00  0.00     0.007 A 
HETATM   38  C   UNL     1      42.273  37.858  65.310  1.00  0.00     0.001 A 
HETATM   39  C   UNL     1      42.674  38.976  66.036  1.00  0.00     0.001 A 
HETATM   40  O   UNL     1      39.175  43.707  62.484  1.00  0.00    -0.270 OA
ENDBRANCH  23  24
ENDBRANCH   2  23
TORSDOF 6
ENDMDL
MODEL 8
REMARK VINA RESULT:     -11.1      3.323     10.819
REMARK  6 active torsions:
REMARK  status: ('A' for Active; 'I' for Inactive)
REMARK    1  A    between atoms: C_2  and  N_3 
REMARK    2  A    between atoms: C_2  and  C_32 
REMARK       I    between atoms: N_3  and  C_4 
REMARK    3  A    between atoms: C_4  and  C_5 
REMARK    4  A    between atoms: C_6  and  N_7 
REMARK       I    between atoms: N_7  and  C_8 
REMARK    5  A    between atoms: C_8  and  C_9 
REMARK    6  A    between atoms: C_9  and  N_10 
ROOT
HETATM    1  N   UNL     1      26.238  44.571  51.009  1.00  0.00    -0.325 N 
HETATM    2  C   UNL     1      24.884  44.726  50.755  1.00  0.00     0.240 C 
HETATM    3  O   UNL     1      23.962  44.390  51.491  1.00  0.00    -0.271 OA
HETATM    4  H   UNL     1      26.866  44.721  50.223  1.00  0.00     0.169 HD
ENDROOT
BRANCH   1   5
HETATM    5  C   UNL     1      26.863  44.076  52.178  1.00  0.00     0.050 A 
HETATM    6  C   UNL     1      27.353  42.751  52.192  1.00  0.00     0.058 A 
HETATM    7  C   UNL     1      28.070  42.270  53.298  1.00  0.00     0.019 A 
HETATM    8  C   UNL     1      28.278  43.086  54.408  1.00  0.00     0.001 A 
HETATM    9  C   UNL     1      27.773  44.383  54.413  1.00  0.00     0.002 A 
HETATM   10  C   UNL     1      27.073  44.876  53.306  1.00  0.00     0.030 A 
BRANCH   6  11
HETATM   11  C   UNL     1      27.182  41.804  51.053  1.00  0.00     0.254 C 
HETATM   12  N   UNL     1      28.332  41.432  50.385  1.00  0.00    -0.349 N 
HETATM   13  H   UNL     1      29.175  41.989  50.517  1.00  0.00     0.163 HD
HETATM   14  O   UNL     1      26.061  41.401  50.763  1.00  0.00    -0.268 OA
BRANCH  12  15
HETATM   15  C   UNL     1      28.277  40.603  49.187  1.00  0.00     0.114 C 
HETATM   16  C   UNL     1      27.173  41.091  48.250  1.00  0.00     0.037 C 
BRANCH  15  17
HETATM   17  C   UNL     1      28.102  39.136  49.542  1.00  0.00    -0.036 A 
HETATM   18  C   UNL     1      29.137  38.449  50.196  1.00  0.00     0.009 A 
HETATM   19  C   UNL     1      29.009  37.093  50.506  1.00  0.00     0.001 A 
HETATM   20  C   UNL     1      27.845  36.406  50.174  1.00  0.00     0.000 A 
HETATM   21  C   UNL     1      26.804  37.075  49.534  1.00  0.00     0.001 A 
HETATM   22  C   UNL     1      26.932  38.430  49.221  1.00  0.00     0.009 A 
ENDBRANCH  15  17
ENDBRANCH  12  15
ENDBRANCH   6  11
ENDBRANCH   1   5
BRANCH   2  23
HETATM   23  C   UNL     1      24.624  45.280  49.353  1.00  0.00     0.240 C 
BRANCH  23  24
HETATM   24  N   UNL     1      23.760  46.438  49.409  1.00  0.00    -0.259 N 
HETATM   25  C   UNL     1      24.048  47.546  50.144  1.00  0.00     0.326 C 
HETATM   26  O   UNL     1      24.946  47.685  50.955  1.00  0.00    -0.247 OA
HETATM   27  N   UNL     1      23.194  48.553  49.766  1.00  0.00    -0.324 N 
HETATM   28  C   UNL     1      22.275  48.150  48.721  1.00  0.00     0.120 C 
HETATM   29  H   UNL     1      23.212  49.456  50.225  1.00  0.00     0.165 HD
HETATM   30  C   UNL     1      20.827  48.114  49.212  1.00  0.00     0.080 C 
HETATM   31  C   UNL     1      22.409  48.990  47.453  1.00  0.00     0.046 C 
HETATM   32  C   UNL     1      22.813  46.733  48.468  1.00  0.00     0.257 C 
HETATM   33  C   UNL     1      20.211  49.497  49.274  1.00  0.00    -0.049 A 
HETATM   34  C   UNL     1      20.732  50.569  48.525  1.00  0.00    -0.052 A 
HETATM   35  C   UNL     1      19.067  49.699  50.061  1.00  0.00     0.007 A 
HETATM   36  C   UNL     1      21.982  50.434  47.691  1.00  0.00     0.042 C 
HETATM   37  C   UNL     1      20.114  51.827  48.603  1.00  0.00     0.007 A 
HETATM   38  C   UNL     1      18.986  52.019  49.399  1.00  0.00     0.001 A 
HETATM   39  C   UNL     1      18.463  50.954  50.127  1.00  0.00     0.001 A 
HETATM   40  O   UNL     1      22.465  45.996  47.552  1.00  0.00    -0.270 OA
ENDBRANCH  23  24
ENDBRANCH   2  23
TORSDOF 6
ENDMDL
MODEL 9
REMARK VINA RESULT:     -11.1      2.876      9.870
REMARK  6 active torsions:
REMARK  status: ('A' for Active; 'I' for Inactive)
REMARK    1  A    between atoms: C_2  and  N_3 
REMARK    2  A    between atoms: C_2  and  C_32 
REMARK       I    between atoms: N_3  and  C_4 
REMARK    3  A    between atoms: C_4  and  C_5 
REMARK    4  A    between atoms: C_6  and  N_7 
REMARK       I    between atoms: N_7  and  C_8 
REMARK    5  A    between atoms: C_8  and  C_9 
REMARK    6  A    between atoms: C_9  and  N_10 
ROOT
HETATM    1  N   UNL     1      26.108  45.014  51.044  1.00  0.00    -0.325 N 
HETATM    2  C   UNL     1      24.781  44.920  50.652  1.00  0.00     0.240 C 
HETATM    3  O   UNL     1      23.881  44.350  51.260  1.00  0.00    -0.271 OA
HETATM    4  H   UNL     1      26.764  45.347  50.343  1.00  0.00     0.169 HD
ENDROOT
BRANCH   1   5
HETATM    5  C   UNL     1      26.706  44.557  52.243  1.00  0.00     0.050 A 
HETATM    6  C   UNL     1      27.234  43.248  52.296  1.00  0.00     0.058 A 
HETATM    7  C   UNL     1      27.926  42.808  53.436  1.00  0.00     0.019 A 
HETATM    8  C   UNL     1      28.069  43.647  54.538  1.00  0.00     0.001 A 
HETATM    9  C   UNL     1      27.526  44.928  54.503  1.00  0.00     0.002 A 
HETATM   10  C   UNL     1      26.851  45.381  53.363  1.00  0.00     0.030 A 
BRANCH   6  11
HETATM   11  C   UNL     1      27.132  42.278  51.169  1.00  0.00     0.254 C 
HETATM   12  N   UNL     1      26.222  41.249  51.324  1.00  0.00    -0.349 N 
HETATM   13  H   UNL     1      25.865  41.050  52.257  1.00  0.00     0.163 HD
HETATM   14  O   UNL     1      27.835  42.426  50.176  1.00  0.00    -0.268 OA
BRANCH  12  15
HETATM   15  C   UNL     1      26.116  40.179  50.340  1.00  0.00     0.114 C 
HETATM   16  C   UNL     1      27.484  39.544  50.092  1.00  0.00     0.037 C 
BRANCH  15  17
HETATM   17  C   UNL     1      25.490  40.679  49.050  1.00  0.00    -0.036 A 
HETATM   18  C   UNL     1      24.370  41.524  49.100  1.00  0.00     0.009 A 
HETATM   19  C   UNL     1      23.759  41.973  47.926  1.00  0.00     0.001 A 
HETATM   20  C   UNL     1      24.263  41.589  46.687  1.00  0.00     0.000 A 
HETATM   21  C   UNL     1      25.380  40.760  46.617  1.00  0.00     0.001 A 
HETATM   22  C   UNL     1      25.988  40.309  47.790  1.00  0.00     0.009 A 
ENDBRANCH  15  17
ENDBRANCH  12  15
ENDBRANCH   6  11
ENDBRANCH   1   5
BRANCH   2  23
HETATM   23  C   UNL     1      24.550  45.525  49.266  1.00  0.00     0.240 C 
BRANCH  23  24
HETATM   24  N   UNL     1      23.655  46.659  49.343  1.00  0.00    -0.259 N 
HETATM   25  C   UNL     1      23.921  47.767  50.085  1.00  0.00     0.326 C 
HETATM   26  O   UNL     1      24.825  47.924  50.888  1.00  0.00    -0.247 OA
HETATM   27  N   UNL     1      23.037  48.755  49.726  1.00  0.00    -0.324 N 
HETATM   28  C   UNL     1      22.118  48.336  48.688  1.00  0.00     0.120 C 
HETATM   29  H   UNL     1      23.035  49.653  50.194  1.00  0.00     0.165 HD
HETATM   30  C   UNL     1      20.677  48.257  49.193  1.00  0.00     0.080 C 
HETATM   31  C   UNL     1      22.215  49.191  47.426  1.00  0.00     0.046 C 
HETATM   32  C   UNL     1      22.690  46.937  48.415  1.00  0.00     0.257 C 
HETATM   33  C   UNL     1      20.025  49.622  49.275  1.00  0.00    -0.049 A 
HETATM   34  C   UNL     1      20.508  50.715  48.530  1.00  0.00    -0.052 A 
HETATM   35  C   UNL     1      18.884  49.786  50.076  1.00  0.00     0.007 A 
HETATM   36  C   UNL     1      21.752  50.621  47.682  1.00  0.00     0.042 C 
HETATM   37  C   UNL     1      19.858  51.955  48.627  1.00  0.00     0.007 A 
HETATM   38  C   UNL     1      18.734  52.109  49.436  1.00  0.00     0.001 A 
HETATM   39  C   UNL     1      18.247  51.024  50.161  1.00  0.00     0.001 A 
HETATM   40  O   UNL     1      22.352  46.199  47.496  1.00  0.00    -0.270 OA
ENDBRANCH  23  24
ENDBRANCH   2  23
TORSDOF 6
ENDMDL
MODEL 10
REMARK VINA RESULT:     -11.0      2.713      4.501
REMARK  6 active torsions:
REMARK  status: ('A' for Active; 'I' for Inactive)
REMARK    1  A    between atoms: C_2  and  N_3 
REMARK    2  A    between atoms: C_2  and  C_32 
REMARK       I    between atoms: N_3  and  C_4 
REMARK    3  A    between atoms: C_4  and  C_5 
REMARK    4  A    between atoms: C_6  and  N_7 
REMARK       I    between atoms: N_7  and  C_8 
REMARK    5  A    between atoms: C_8  and  C_9 
REMARK    6  A    between atoms: C_9  and  N_10 
ROOT
HETATM    1  N   UNL     1      22.078  45.042  48.582  1.00  0.00    -0.325 N 
HETATM    2  C   UNL     1      23.425  45.309  48.777  1.00  0.00     0.240 C 
HETATM    3  O   UNL     1      24.365  44.780  48.191  1.00  0.00    -0.271 OA
HETATM    4  H   UNL     1      21.438  45.418  49.276  1.00  0.00     0.169 HD
ENDROOT
BRANCH   1   5
HETATM    5  C   UNL     1      21.481  44.179  47.632  1.00  0.00     0.050 A 
HETATM    6  C   UNL     1      20.264  44.559  47.023  1.00  0.00     0.058 A 
HETATM    7  C   UNL     1      19.706  43.773  46.002  1.00  0.00     0.019 A 
HETATM    8  C   UNL     1      20.331  42.593  45.603  1.00  0.00     0.001 A 
HETATM    9  C   UNL     1      21.514  42.199  46.219  1.00  0.00     0.002 A 
HETATM   10  C   UNL     1      22.087  42.986  47.225  1.00  0.00     0.030 A 
BRANCH   6  11
HETATM   11  C   UNL     1      19.523  45.801  47.380  1.00  0.00     0.254 C 
HETATM   12  N   UNL     1      19.980  46.975  46.812  1.00  0.00    -0.349 N 
HETATM   13  H   UNL     1      20.912  46.987  46.401  1.00  0.00     0.163 HD
HETATM   14  O   UNL     1      18.563  45.738  48.140  1.00  0.00    -0.268 OA
BRANCH  12  15
HETATM   15  C   UNL     1      19.408  48.265  47.175  1.00  0.00     0.114 C 
HETATM   16  C   UNL     1      18.644  48.863  45.994  1.00  0.00     0.037 C 
BRANCH  15  17
HETATM   17  C   UNL     1      20.476  49.215  47.689  1.00  0.00    -0.036 A 
HETATM   18  C   UNL     1      20.124  50.517  48.075  1.00  0.00     0.009 A 
HETATM   19  C   UNL     1      21.094  51.417  48.523  1.00  0.00     0.001 A 
HETATM   20  C   UNL     1      22.428  51.027  48.597  1.00  0.00     0.000 A 
HETATM   21  C   UNL     1      22.795  49.735  48.228  1.00  0.00     0.001 A 
HETATM   22  C   UNL     1      21.826  48.836  47.777  1.00  0.00     0.009 A 
ENDBRANCH  15  17
ENDBRANCH  12  15
ENDBRANCH   6  11
ENDBRANCH   1   5
BRANCH   2  23
HETATM   23  C   UNL     1      23.653  46.291  49.927  1.00  0.00     0.240 C 
BRANCH  23  24
HETATM   24  N   UNL     1      24.803  45.905  50.713  1.00  0.00    -0.259 N 
HETATM   25  C   UNL     1      25.834  46.748  50.988  1.00  0.00     0.326 C 
HETATM   26  O   UNL     1      26.032  47.855  50.519  1.00  0.00    -0.247 OA
HETATM   27  N   UNL     1      26.608  46.184  51.972  1.00  0.00    -0.324 N 
HETATM   28  C   UNL     1      26.105  44.901  52.418  1.00  0.00     0.120 C 
HETATM   29  H   UNL     1      27.457  46.633  52.294  1.00  0.00     0.165 HD
HETATM   30  C   UNL     1      27.048  43.754  52.049  1.00  0.00     0.080 C 
HETATM   31  C   UNL     1      25.763  44.878  53.905  1.00  0.00     0.046 C 
HETATM   32  C   UNL     1      24.815  44.850  51.585  1.00  0.00     0.257 C 
HETATM   33  C   UNL     1      28.230  43.662  52.992  1.00  0.00    -0.049 A 
HETATM   34  C   UNL     1      28.189  44.226  54.282  1.00  0.00    -0.052 A 
HETATM   35  C   UNL     1      29.374  42.958  52.585  1.00  0.00     0.007 A 
HETATM   36  C   UNL     1      27.010  45.031  54.769  1.00  0.00     0.042 C 
HETATM   37  C   UNL     1      29.304  44.098  55.125  1.00  0.00     0.007 A 
HETATM   38  C   UNL     1      30.439  43.407  54.704  1.00  0.00     0.001 A 
HETATM   39  C   UNL     1      30.474  42.837  53.435  1.00  0.00     0.001 A 
HETATM   40  O   UNL     1      23.928  44.012  51.700  1.00  0.00    -0.270 OA
ENDBRANCH  23  24
ENDBRANCH   2  23
TORSDOF 6
ENDMDL
