MODEL 1
REMARK VINA RESULT:     -10.3      0.000      0.000
REMARK  6 active torsions:
REMARK  status: ('A' for Active; 'I' for Inactive)
REMARK       I    between atoms: N_2  and  C_3 
REMARK    1  A    between atoms: N_2  and  C_15 
REMARK       I    between atoms: C_3  and  N_4 
REMARK    2  A    between atoms: N_4  and  C_5 
REMARK    3  A    between atoms: C_15  and  C_16 
REMARK    4  A    between atoms: C_16  and  C_17 
REMARK    5  A    between atoms: C_17  and  C_18 
REMARK    6  A    between atoms: C_22  and  C_23 
ROOT
HETATM    1  C   UNL     1      26.609  46.019  51.213  1.00  0.00     0.127 C 
ENDROOT
BRANCH   1   2
HETATM    2  N   UNL     1      25.966  45.302  52.320  1.00  0.00    -0.338 N 
HETATM    3  C   UNL     1      24.635  44.772  52.044  1.00  0.00     0.154 C 
HETATM    4  C   UNL     1      26.649  44.716  53.386  1.00  0.00     0.322 C 
HETATM    5  N   UNL     1      27.849  45.305  53.700  1.00  0.00    -0.309 N 
HETATM    6  O   UNL     1      26.208  43.704  53.924  1.00  0.00    -0.247 OA
HETATM    7  H   UNL     1      27.978  46.247  53.369  1.00  0.00     0.170 HD
BRANCH   5   8
HETATM    8  C   UNL     1      28.853  44.817  54.565  1.00  0.00     0.036 A 
HETATM    9  C   UNL     1      29.161  45.389  55.804  1.00  0.00     0.039 A 
HETATM   10  C   UNL     1      30.158  44.812  56.577  1.00  0.00    -0.024 A 
HETATM   11  C   UNL     1      30.830  43.676  56.161  1.00  0.00    -0.026 A 
HETATM   12  C   UNL     1      30.666  45.226  57.908  1.00  0.00     0.207 C 
HETATM   13  C   UNL     1      31.799  43.271  57.209  1.00  0.00     0.207 C 
HETATM   14  C   UNL     1      30.537  43.080  54.949  1.00  0.00     0.012 A 
HETATM   15  O   UNL     1      31.820  44.382  58.136  1.00  0.00    -0.382 OA
HETATM   16  C   UNL     1      29.550  43.665  54.147  1.00  0.00     0.030 A 
ENDBRANCH   5   8
ENDBRANCH   1   2
BRANCH   1  17
HETATM   17  C   UNL     1      26.150  47.478  51.067  1.00  0.00     0.026 C 
BRANCH  17  18
HETATM   18  C   UNL     1      26.547  48.124  49.734  1.00  0.00     0.060 C 
BRANCH  18  19
HETATM   19  C   UNL     1      25.416  48.779  49.020  1.00  0.00     0.030 A 
HETATM   20  N   UNL     1      25.570  49.717  48.035  1.00  0.00    -0.282 N 
HETATM   21  H   UNL     1      26.428  50.081  47.627  1.00  0.00     0.189 HD
HETATM   22  N   UNL     1      24.408  50.205  47.576  1.00  0.00    -0.174 NA
HETATM   23  C   UNL     1      23.458  49.592  48.299  1.00  0.00     0.089 A 
HETATM   24  C   UNL     1      24.055  48.670  49.201  1.00  0.00     0.060 A 
BRANCH  23  25
HETATM   25  C   UNL     1      22.035  49.911  48.126  1.00  0.00    -0.003 A 
HETATM   26  C   UNL     1      21.533  51.184  48.422  1.00  0.00     0.056 A 
HETATM   27  C   UNL     1      20.183  51.465  48.226  1.00  0.00     0.117 A 
HETATM   28  F   UNL     1      19.721  52.690  48.510  1.00  0.00    -0.206 F 
HETATM   29  C   UNL     1      19.307  50.502  47.742  1.00  0.00     0.042 A 
HETATM   30  C   UNL     1      19.788  49.231  47.446  1.00  0.00     0.004 A 
HETATM   31  C   UNL     1      21.143  48.939  47.638  1.00  0.00     0.014 A 
ENDBRANCH  23  25
ENDBRANCH  18  19
ENDBRANCH  17  18
ENDBRANCH   1  17
TORSDOF 6
ENDMDL
MODEL 2
REMARK VINA RESULT:     -10.1      4.553     11.817
REMARK  6 active torsions:
REMARK  status: ('A' for Active; 'I' for Inactive)
REMARK       I    between atoms: N_2  and  C_3 
REMARK    1  A    between atoms: N_2  and  C_15 
REMARK       I    between atoms: C_3  and  N_4 
REMARK    2  A    between atoms: N_4  and  C_5 
REMARK    3  A    between atoms: C_15  and  C_16 
REMARK    4  A    between atoms: C_16  and  C_17 
REMARK    5  A    between atoms: C_17  and  C_18 
REMARK    6  A    between atoms: C_22  and  C_23 
ROOT
HETATM    1  C   UNL     1      24.655  46.703  50.652  1.00  0.00     0.127 C 
ENDROOT
BRANCH   1   2
HETATM    2  N   UNL     1      25.129  47.906  49.957  1.00  0.00    -0.338 N 
HETATM    3  C   UNL     1      26.546  47.916  49.605  1.00  0.00     0.154 C 
HETATM    4  C   UNL     1      24.313  48.777  49.237  1.00  0.00     0.322 C 
HETATM    5  N   UNL     1      23.008  48.833  49.660  1.00  0.00    -0.309 N 
HETATM    6  O   UNL     1      24.753  49.372  48.256  1.00  0.00    -0.247 OA
HETATM    7  H   UNL     1      22.834  48.508  50.597  1.00  0.00     0.170 HD
BRANCH   5   8
HETATM    8  C   UNL     1      21.912  49.441  49.009  1.00  0.00     0.036 A 
HETATM    9  C   UNL     1      21.066  48.774  48.118  1.00  0.00     0.039 A 
HETATM   10  C   UNL     1      20.009  49.472  47.551  1.00  0.00    -0.024 A 
HETATM   11  C   UNL     1      19.763  50.797  47.869  1.00  0.00    -0.026 A 
HETATM   12  C   UNL     1      18.985  48.997  46.587  1.00  0.00     0.207 C 
HETATM   13  C   UNL     1      18.550  51.254  47.146  1.00  0.00     0.207 C 
HETATM   14  C   UNL     1      20.573  51.477  48.758  1.00  0.00     0.012 A 
HETATM   15  O   UNL     1      18.262  50.193  46.207  1.00  0.00    -0.382 OA
HETATM   16  C   UNL     1      21.657  50.793  49.319  1.00  0.00     0.030 A 
ENDBRANCH   5   8
ENDBRANCH   1   2
BRANCH   1  17
HETATM   17  C   UNL     1      25.579  46.236  51.788  1.00  0.00     0.026 C 
BRANCH  17  18
HETATM   18  C   UNL     1      25.610  47.184  52.992  1.00  0.00     0.060 C 
BRANCH  18  19
HETATM   19  C   UNL     1      26.612  46.811  54.028  1.00  0.00     0.030 A 
HETATM   20  N   UNL     1      26.895  47.570  55.133  1.00  0.00    -0.282 N 
HETATM   21  H   UNL     1      26.474  48.447  55.430  1.00  0.00     0.189 HD
HETATM   22  N   UNL     1      27.873  47.058  55.896  1.00  0.00    -0.174 NA
HETATM   23  C   UNL     1      28.266  45.943  55.264  1.00  0.00     0.089 A 
HETATM   24  C   UNL     1      27.479  45.743  54.097  1.00  0.00     0.060 A 
BRANCH  23  25
HETATM   25  C   UNL     1      29.375  45.123  55.769  1.00  0.00    -0.003 A 
HETATM   26  C   UNL     1      30.017  45.432  56.975  1.00  0.00     0.056 A 
HETATM   27  C   UNL     1      31.051  44.624  57.442  1.00  0.00     0.117 A 
HETATM   28  F   UNL     1      31.651  44.931  58.600  1.00  0.00    -0.206 F 
HETATM   29  C   UNL     1      31.472  43.506  56.732  1.00  0.00     0.042 A 
HETATM   30  C   UNL     1      30.847  43.187  55.531  1.00  0.00     0.004 A 
HETATM   31  C   UNL     1      29.807  43.992  55.054  1.00  0.00     0.014 A 
ENDBRANCH  23  25
ENDBRANCH  18  19
ENDBRANCH  17  18
ENDBRANCH   1  17
TORSDOF 6
ENDMDL
MODEL 3
REMARK VINA RESULT:     -10.1      4.637     11.860
REMARK  6 active torsions:
REMARK  status: ('A' for Active; 'I' for Inactive)
REMARK       I    between atoms: N_2  and  C_3 
REMARK    1  A    between atoms: N_2  and  C_15 
REMARK       I    between atoms: C_3  and  N_4 
REMARK    2  A    between atoms: N_4  and  C_5 
REMARK    3  A    between atoms: C_15  and  C_16 
REMARK    4  A    between atoms: C_16  and  C_17 
REMARK    5  A    between atoms: C_17  and  C_18 
REMARK    6  A    between atoms: C_22  and  C_23 
ROOT
HETATM    1  C   UNL     1      25.315  47.388  50.070  1.00  0.00     0.127 C 
ENDROOT
BRANCH   1   2
HETATM    2  N   UNL     1      25.516  48.617  49.295  1.00  0.00    -0.338 N 
HETATM    3  C   UNL     1      26.866  48.830  48.784  1.00  0.00     0.154 C 
HETATM    4  C   UNL     1      24.499  49.320  48.649  1.00  0.00     0.322 C 
HETATM    5  N   UNL     1      23.255  49.193  49.217  1.00  0.00    -0.309 N 
HETATM    6  O   UNL     1      24.730  49.932  47.610  1.00  0.00    -0.247 OA
HETATM    7  H   UNL     1      23.237  48.886  50.176  1.00  0.00     0.170 HD
BRANCH   5   8
HETATM    8  C   UNL     1      22.013  49.596  48.679  1.00  0.00     0.036 A 
HETATM    9  C   UNL     1      21.426  50.843  48.919  1.00  0.00     0.039 A 
HETATM   10  C   UNL     1      20.208  51.133  48.322  1.00  0.00    -0.024 A 
HETATM   11  C   UNL     1      19.580  50.231  47.481  1.00  0.00    -0.026 A 
HETATM   12  C   UNL     1      19.391  52.368  48.420  1.00  0.00     0.207 C 
HETATM   13  C   UNL     1      18.327  50.836  46.964  1.00  0.00     0.207 C 
HETATM   14  C   UNL     1      20.143  48.998  47.214  1.00  0.00     0.012 A 
HETATM   15  O   UNL     1      18.149  52.036  47.752  1.00  0.00    -0.382 OA
HETATM   16  C   UNL     1      21.360  48.680  47.827  1.00  0.00     0.030 A 
ENDBRANCH   5   8
ENDBRANCH   1   2
BRANCH   1  17
HETATM   17  C   UNL     1      25.990  47.407  51.451  1.00  0.00     0.026 C 
BRANCH  17  18
HETATM   18  C   UNL     1      25.647  46.197  52.327  1.00  0.00     0.060 C 
BRANCH  18  19
HETATM   19  C   UNL     1      26.809  45.644  53.076  1.00  0.00     0.030 A 
HETATM   20  N   UNL     1      27.493  44.516  52.710  1.00  0.00    -0.282 N 
HETATM   21  H   UNL     1      27.352  43.917  51.900  1.00  0.00     0.189 HD
HETATM   22  N   UNL     1      28.468  44.181  53.569  1.00  0.00    -0.174 NA
HETATM   23  C   UNL     1      28.410  45.099  54.544  1.00  0.00     0.089 A 
HETATM   24  C   UNL     1      27.393  46.050  54.256  1.00  0.00     0.060 A 
BRANCH  23  25
HETATM   25  C   UNL     1      29.296  45.035  55.714  1.00  0.00    -0.003 A 
HETATM   26  C   UNL     1      30.354  44.120  55.776  1.00  0.00     0.056 A 
HETATM   27  C   UNL     1      31.193  44.097  56.888  1.00  0.00     0.117 A 
HETATM   28  F   UNL     1      32.203  43.218  56.928  1.00  0.00    -0.206 F 
HETATM   29  C   UNL     1      31.004  44.967  57.954  1.00  0.00     0.042 A 
HETATM   30  C   UNL     1      29.956  45.881  57.910  1.00  0.00     0.004 A 
HETATM   31  C   UNL     1      29.108  45.913  56.797  1.00  0.00     0.014 A 
ENDBRANCH  23  25
ENDBRANCH  18  19
ENDBRANCH  17  18
ENDBRANCH   1  17
TORSDOF 6
ENDMDL
MODEL 4
REMARK VINA RESULT:      -9.4      4.286     11.295
REMARK  6 active torsions:
REMARK  status: ('A' for Active; 'I' for Inactive)
REMARK       I    between atoms: N_2  and  C_3 
REMARK    1  A    between atoms: N_2  and  C_15 
REMARK       I    between atoms: C_3  and  N_4 
REMARK    2  A    between atoms: N_4  and  C_5 
REMARK    3  A    between atoms: C_15  and  C_16 
REMARK    4  A    between atoms: C_16  and  C_17 
REMARK    5  A    between atoms: C_17  and  C_18 
REMARK    6  A    between atoms: C_22  and  C_23 
ROOT
HETATM    1  C   UNL     1      25.776  46.268  50.529  1.00  0.00     0.127 C 
ENDROOT
BRANCH   1   2
HETATM    2  N   UNL     1      24.828  45.816  49.505  1.00  0.00    -0.338 N 
HETATM    3  C   UNL     1      24.751  44.372  49.306  1.00  0.00     0.154 C 
HETATM    4  C   UNL     1      23.731  46.554  49.061  1.00  0.00     0.322 C 
HETATM    5  N   UNL     1      23.873  47.916  49.154  1.00  0.00    -0.309 N 
HETATM    6  O   UNL     1      22.707  45.985  48.694  1.00  0.00    -0.247 OA
HETATM    7  H   UNL     1      24.818  48.258  49.227  1.00  0.00     0.170 HD
BRANCH   5   8
HETATM    8  C   UNL     1      22.876  48.904  48.994  1.00  0.00     0.036 A 
HETATM    9  C   UNL     1      21.511  48.674  49.189  1.00  0.00     0.039 A 
HETATM   10  C   UNL     1      20.625  49.728  49.019  1.00  0.00    -0.024 A 
HETATM   11  C   UNL     1      21.065  50.997  48.687  1.00  0.00    -0.026 A 
HETATM   12  C   UNL     1      19.148  49.739  49.163  1.00  0.00     0.207 C 
HETATM   13  C   UNL     1      19.900  51.914  48.618  1.00  0.00     0.207 C 
HETATM   14  C   UNL     1      22.409  51.258  48.502  1.00  0.00     0.012 A 
HETATM   15  O   UNL     1      18.746  51.045  48.684  1.00  0.00    -0.382 OA
HETATM   16  C   UNL     1      23.313  50.200  48.647  1.00  0.00     0.030 A 
ENDBRANCH   5   8
ENDBRANCH   1   2
BRANCH   1  17
HETATM   17  C   UNL     1      25.250  46.129  51.967  1.00  0.00     0.026 C 
BRANCH  17  18
HETATM   18  C   UNL     1      25.494  44.748  52.587  1.00  0.00     0.060 C 
BRANCH  18  19
HETATM   19  C   UNL     1      26.859  44.572  53.153  1.00  0.00     0.030 A 
HETATM   20  N   UNL     1      27.905  44.005  52.476  1.00  0.00    -0.282 N 
HETATM   21  H   UNL     1      27.934  43.656  51.521  1.00  0.00     0.189 HD
HETATM   22  N   UNL     1      29.024  43.905  53.209  1.00  0.00    -0.174 NA
HETATM   23  C   UNL     1      28.701  44.396  54.415  1.00  0.00     0.089 A 
HETATM   24  C   UNL     1      27.353  44.847  54.410  1.00  0.00     0.060 A 
BRANCH  23  25
HETATM   25  C   UNL     1      29.663  44.403  55.525  1.00  0.00    -0.003 A 
HETATM   26  C   UNL     1      29.679  45.438  56.468  1.00  0.00     0.056 A 
HETATM   27  C   UNL     1      30.587  45.406  57.523  1.00  0.00     0.117 A 
HETATM   28  F   UNL     1      30.584  46.403  58.419  1.00  0.00    -0.206 F 
HETATM   29  C   UNL     1      31.493  44.364  57.667  1.00  0.00     0.042 A 
HETATM   30  C   UNL     1      31.493  43.329  56.737  1.00  0.00     0.004 A 
HETATM   31  C   UNL     1      30.584  43.350  55.674  1.00  0.00     0.014 A 
ENDBRANCH  23  25
ENDBRANCH  18  19
ENDBRANCH  17  18
ENDBRANCH   1  17
TORSDOF 6
ENDMDL
MODEL 5
REMARK VINA RESULT:      -9.4     12.320     13.606
REMARK  6 active torsions:
REMARK  status: ('A' for Active; 'I' for Inactive)
REMARK       I    between atoms: N_2  and  C_3 
REMARK    1  A    between atoms: N_2  and  C_15 
REMARK       I    between atoms: C_3  and  N_4 
REMARK    2  A    between atoms: N_4  and  C_5 
REMARK    3  A    between atoms: C_15  and  C_16 
REMARK    4  A    between atoms: C_16  and  C_17 
REMARK    5  A    between atoms: C_17  and  C_18 
REMARK    6  A    between atoms: C_22  and  C_23 
ROOT
HETATM    1  C   UNL     1      27.037  47.015  40.235  1.00  0.00     0.127 C 
ENDROOT
BRANCH   1   2
HETATM    2  N   UNL     1      28.200  46.820  39.362  1.00  0.00    -0.338 N 
HETATM    3  C   UNL     1      27.907  46.352  38.011  1.00  0.00     0.154 C 
HETATM    4  C   UNL     1      29.435  47.443  39.539  1.00  0.00     0.322 C 
HETATM    5  N   UNL     1      29.737  47.774  40.836  1.00  0.00    -0.309 N 
HETATM    6  O   UNL     1      30.133  47.725  38.568  1.00  0.00    -0.247 OA
HETATM    7  H   UNL     1      29.223  47.282  41.549  1.00  0.00     0.170 HD
BRANCH   5   8
HETATM    8  C   UNL     1      30.791  48.593  41.299  1.00  0.00     0.036 A 
HETATM    9  C   UNL     1      30.616  49.672  42.171  1.00  0.00     0.039 A 
HETATM   10  C   UNL     1      31.730  50.395  42.570  1.00  0.00    -0.024 A 
HETATM   11  C   UNL     1      33.004  50.057  42.146  1.00  0.00    -0.026 A 
HETATM   12  C   UNL     1      31.807  51.569  43.475  1.00  0.00     0.207 C 
HETATM   13  C   UNL     1      33.986  50.978  42.769  1.00  0.00     0.207 C 
HETATM   14  C   UNL     1      33.209  48.987  41.296  1.00  0.00     0.012 A 
HETATM   15  O   UNL     1      33.182  52.016  43.375  1.00  0.00    -0.382 OA
HETATM   16  C   UNL     1      32.092  48.262  40.866  1.00  0.00     0.030 A 
ENDBRANCH   5   8
ENDBRANCH   1   2
BRANCH   1  17
HETATM   17  C   UNL     1      25.761  47.432  39.486  1.00  0.00     0.026 C 
BRANCH  17  18
HETATM   18  C   UNL     1      25.425  48.923  39.613  1.00  0.00     0.060 C 
BRANCH  18  19
HETATM   19  C   UNL     1      26.559  49.827  39.274  1.00  0.00     0.030 A 
HETATM   20  N   UNL     1      26.887  50.204  37.999  1.00  0.00    -0.282 N 
HETATM   21  H   UNL     1      26.424  49.968  37.124  1.00  0.00     0.189 HD
HETATM   22  N   UNL     1      27.979  50.980  37.936  1.00  0.00    -0.174 NA
HETATM   23  C   UNL     1      28.401  51.099  39.204  1.00  0.00     0.089 A 
HETATM   24  C   UNL     1      27.518  50.405  40.076  1.00  0.00     0.060 A 
BRANCH  23  25
HETATM   25  C   UNL     1      29.624  51.839  39.541  1.00  0.00    -0.003 A 
HETATM   26  C   UNL     1      30.871  51.455  39.034  1.00  0.00     0.056 A 
HETATM   27  C   UNL     1      32.010  52.189  39.352  1.00  0.00     0.117 A 
HETATM   28  F   UNL     1      33.195  51.810  38.854  1.00  0.00    -0.206 F 
HETATM   29  C   UNL     1      31.944  53.307  40.174  1.00  0.00     0.042 A 
HETATM   30  C   UNL     1      30.713  53.701  40.689  1.00  0.00     0.004 A 
HETATM   31  C   UNL     1      29.562  52.971  40.375  1.00  0.00     0.014 A 
ENDBRANCH  23  25
ENDBRANCH  18  19
ENDBRANCH  17  18
ENDBRANCH   1  17
TORSDOF 6
ENDMDL
MODEL 6
REMARK VINA RESULT:      -9.3      1.730      2.435
REMARK  6 active torsions:
REMARK  status: ('A' for Active; 'I' for Inactive)
REMARK       I    between atoms: N_2  and  C_3 
REMARK    1  A    between atoms: N_2  and  C_15 
REMARK       I    between atoms: C_3  and  N_4 
REMARK    2  A    between atoms: N_4  and  C_5 
REMARK    3  A    between atoms: C_15  and  C_16 
REMARK    4  A    between atoms: C_16  and  C_17 
REMARK    5  A    between atoms: C_17  and  C_18 
REMARK    6  A    between atoms: C_22  and  C_23 
ROOT
HETATM    1  C   UNL     1      27.823  43.623  50.611  1.00  0.00     0.127 C 
ENDROOT
BRANCH   1   2
HETATM    2  N   UNL     1      27.137  42.956  51.723  1.00  0.00    -0.338 N 
HETATM    3  C   UNL     1      26.320  41.801  51.362  1.00  0.00     0.154 C 
HETATM    4  C   UNL     1      27.536  43.030  53.057  1.00  0.00     0.322 C 
HETATM    5  N   UNL     1      28.205  44.178  53.400  1.00  0.00    -0.309 N 
HETATM    6  O   UNL     1      27.348  42.081  53.815  1.00  0.00    -0.247 OA
HETATM    7  H   UNL     1      28.079  44.963  52.782  1.00  0.00     0.170 HD
BRANCH   5   8
HETATM    8  C   UNL     1      28.913  44.445  54.593  1.00  0.00     0.036 A 
HETATM    9  C   UNL     1      30.003  43.692  55.039  1.00  0.00     0.039 A 
HETATM   10  C   UNL     1      30.631  44.060  56.220  1.00  0.00    -0.024 A 
HETATM   11  C   UNL     1      30.219  45.165  56.945  1.00  0.00    -0.026 A 
HETATM   12  C   UNL     1      31.791  43.429  56.898  1.00  0.00     0.207 C 
HETATM   13  C   UNL     1      31.102  45.330  58.126  1.00  0.00     0.207 C 
HETATM   14  C   UNL     1      29.154  45.937  56.521  1.00  0.00     0.012 A 
HETATM   15  O   UNL     1      31.885  44.115  58.170  1.00  0.00    -0.382 OA
HETATM   16  C   UNL     1      28.496  45.564  55.344  1.00  0.00     0.030 A 
ENDBRANCH   5   8
ENDBRANCH   1   2
BRANCH   1  17
HETATM   17  C   UNL     1      27.239  45.001  50.258  1.00  0.00     0.026 C 
BRANCH  17  18
HETATM   18  C   UNL     1      25.738  45.130  50.540  1.00  0.00     0.060 C 
BRANCH  18  19
HETATM   19  C   UNL     1      25.146  46.418  50.083  1.00  0.00     0.030 A 
HETATM   20  N   UNL     1      25.824  47.607  50.053  1.00  0.00    -0.282 N 
HETATM   21  H   UNL     1      26.794  47.796  50.294  1.00  0.00     0.189 HD
HETATM   22  N   UNL     1      25.068  48.642  49.656  1.00  0.00    -0.174 NA
HETATM   23  C   UNL     1      23.848  48.127  49.442  1.00  0.00     0.089 A 
HETATM   24  C   UNL     1      23.865  46.725  49.679  1.00  0.00     0.060 A 
BRANCH  23  25
HETATM   25  C   UNL     1      22.715  48.973  49.046  1.00  0.00    -0.003 A 
HETATM   26  C   UNL     1      21.460  48.422  48.761  1.00  0.00     0.056 A 
HETATM   27  C   UNL     1      20.398  49.251  48.409  1.00  0.00     0.117 A 
HETATM   28  F   UNL     1      19.202  48.707  48.144  1.00  0.00    -0.206 F 
HETATM   29  C   UNL     1      20.551  50.629  48.329  1.00  0.00     0.042 A 
HETATM   30  C   UNL     1      21.792  51.193  48.606  1.00  0.00     0.004 A 
HETATM   31  C   UNL     1      22.866  50.369  48.961  1.00  0.00     0.014 A 
ENDBRANCH  23  25
ENDBRANCH  18  19
ENDBRANCH  17  18
ENDBRANCH   1  17
TORSDOF 6
ENDMDL
MODEL 7
REMARK VINA RESULT:      -9.2     11.703     13.365
REMARK  6 active torsions:
REMARK  status: ('A' for Active; 'I' for Inactive)
REMARK       I    between atoms: N_2  and  C_3 
REMARK    1  A    between atoms: N_2  and  C_15 
REMARK       I    between atoms: C_3  and  N_4 
REMARK    2  A    between atoms: N_4  and  C_5 
REMARK    3  A    between atoms: C_15  and  C_16 
REMARK    4  A    between atoms: C_16  and  C_17 
REMARK    5  A    between atoms: C_17  and  C_18 
REMARK    6  A    between atoms: C_22  and  C_23 
ROOT
HETATM    1  C   UNL     1      24.876  47.669  40.230  1.00  0.00     0.127 C 
ENDROOT
BRANCH   1   2
HETATM    2  N   UNL     1      25.626  46.504  40.711  1.00  0.00    -0.338 N 
HETATM    3  C   UNL     1      24.977  45.210  40.520  1.00  0.00     0.154 C 
HETATM    4  C   UNL     1      27.008  46.474  40.897  1.00  0.00     0.322 C 
HETATM    5  N   UNL     1      27.580  47.687  41.187  1.00  0.00    -0.309 N 
HETATM    6  O   UNL     1      27.634  45.431  40.729  1.00  0.00    -0.247 OA
HETATM    7  H   UNL     1      26.957  48.396  41.539  1.00  0.00     0.170 HD
BRANCH   5   8
HETATM    8  C   UNL     1      28.954  48.013  41.212  1.00  0.00     0.036 A 
HETATM    9  C   UNL     1      29.551  48.805  42.198  1.00  0.00     0.039 A 
HETATM   10  C   UNL     1      30.916  49.044  42.127  1.00  0.00    -0.024 A 
HETATM   11  C   UNL     1      31.696  48.497  41.122  1.00  0.00    -0.026 A 
HETATM   12  C   UNL     1      31.773  49.842  43.038  1.00  0.00     0.207 C 
HETATM   13  C   UNL     1      33.111  48.891  41.334  1.00  0.00     0.207 C 
HETATM   14  C   UNL     1      31.136  47.700  40.143  1.00  0.00     0.012 A 
HETATM   15  O   UNL     1      33.059  49.897  42.372  1.00  0.00    -0.382 OA
HETATM   16  C   UNL     1      29.756  47.468  40.187  1.00  0.00     0.030 A 
ENDBRANCH   5   8
ENDBRANCH   1   2
BRANCH   1  17
HETATM   17  C   UNL     1      25.035  47.932  38.724  1.00  0.00     0.026 C 
BRANCH  17  18
HETATM   18  C   UNL     1      25.182  49.415  38.364  1.00  0.00     0.060 C 
BRANCH  18  19
HETATM   19  C   UNL     1      26.422  50.046  38.895  1.00  0.00     0.030 A 
HETATM   20  N   UNL     1      26.459  50.870  39.987  1.00  0.00    -0.282 N 
HETATM   21  H   UNL     1      25.698  51.152  40.601  1.00  0.00     0.189 HD
HETATM   22  N   UNL     1      27.680  51.362  40.244  1.00  0.00    -0.174 NA
HETATM   23  C   UNL     1      28.469  50.870  39.278  1.00  0.00     0.089 A 
HETATM   24  C   UNL     1      27.717  50.018  38.424  1.00  0.00     0.060 A 
BRANCH  23  25
HETATM   25  C   UNL     1      29.889  51.234  39.185  1.00  0.00    -0.003 A 
HETATM   26  C   UNL     1      30.509  52.004  40.176  1.00  0.00     0.056 A 
HETATM   27  C   UNL     1      31.863  52.315  40.074  1.00  0.00     0.117 A 
HETATM   28  F   UNL     1      32.442  53.049  41.034  1.00  0.00    -0.206 F 
HETATM   29  C   UNL     1      32.625  51.879  38.997  1.00  0.00     0.042 A 
HETATM   30  C   UNL     1      32.024  51.115  38.002  1.00  0.00     0.004 A 
HETATM   31  C   UNL     1      30.665  50.796  38.096  1.00  0.00     0.014 A 
ENDBRANCH  23  25
ENDBRANCH  18  19
ENDBRANCH  17  18
ENDBRANCH   1  17
TORSDOF 6
ENDMDL
MODEL 8
REMARK VINA RESULT:      -9.2      1.436      1.619
REMARK  6 active torsions:
REMARK  status: ('A' for Active; 'I' for Inactive)
REMARK       I    between atoms: N_2  and  C_3 
REMARK    1  A    between atoms: N_2  and  C_15 
REMARK       I    between atoms: C_3  and  N_4 
REMARK    2  A    between atoms: N_4  and  C_5 
REMARK    3  A    between atoms: C_15  and  C_16 
REMARK    4  A    between atoms: C_16  and  C_17 
REMARK    5  A    between atoms: C_17  and  C_18 
REMARK    6  A    between atoms: C_22  and  C_23 
ROOT
HETATM    1  C   UNL     1      24.790  45.910  51.120  1.00  0.00     0.127 C 
ENDROOT
BRANCH   1   2
HETATM    2  N   UNL     1      25.572  44.749  50.681  1.00  0.00    -0.338 N 
HETATM    3  C   UNL     1      25.437  44.390  49.273  1.00  0.00     0.154 C 
HETATM    4  C   UNL     1      26.712  44.273  51.327  1.00  0.00     0.322 C 
HETATM    5  N   UNL     1      26.762  44.525  52.676  1.00  0.00    -0.309 N 
HETATM    6  O   UNL     1      27.613  43.741  50.685  1.00  0.00    -0.247 OA
HETATM    7  H   UNL     1      25.882  44.734  53.119  1.00  0.00     0.170 HD
BRANCH   5   8
HETATM    8  C   UNL     1      27.863  44.367  53.546  1.00  0.00     0.036 A 
HETATM    9  C   UNL     1      28.164  45.245  54.592  1.00  0.00     0.039 A 
HETATM   10  C   UNL     1      29.264  44.977  55.394  1.00  0.00    -0.024 A 
HETATM   11  C   UNL     1      30.048  43.854  55.196  1.00  0.00    -0.026 A 
HETATM   12  C   UNL     1      29.788  45.747  56.549  1.00  0.00     0.207 C 
HETATM   13  C   UNL     1      31.115  43.815  56.227  1.00  0.00     0.207 C 
HETATM   14  C   UNL     1      29.767  42.961  54.180  1.00  0.00     0.012 A 
HETATM   15  O   UNL     1      31.048  45.109  56.870  1.00  0.00    -0.382 OA
HETATM   16  C   UNL     1      28.674  43.229  53.348  1.00  0.00     0.030 A 
ENDBRANCH   5   8
ENDBRANCH   1   2
BRANCH   1  17
HETATM   17  C   UNL     1      25.556  47.241  51.040  1.00  0.00     0.026 C 
BRANCH  17  18
HETATM   18  C   UNL     1      25.693  47.794  49.617  1.00  0.00     0.060 C 
BRANCH  18  19
HETATM   19  C   UNL     1      24.553  48.651  49.189  1.00  0.00     0.030 A 
HETATM   20  N   UNL     1      24.670  49.720  48.341  1.00  0.00    -0.282 N 
HETATM   21  H   UNL     1      25.499  50.070  47.865  1.00  0.00     0.189 HD
HETATM   22  N   UNL     1      23.516  50.374  48.144  1.00  0.00    -0.174 NA
HETATM   23  C   UNL     1      22.614  49.736  48.905  1.00  0.00     0.089 A 
HETATM   24  C   UNL     1      23.226  48.632  49.559  1.00  0.00     0.060 A 
BRANCH  23  25
HETATM   25  C   UNL     1      21.224  50.200  49.001  1.00  0.00    -0.003 A 
HETATM   26  C   UNL     1      20.849  51.473  48.556  1.00  0.00     0.056 A 
HETATM   27  C   UNL     1      19.519  51.878  48.639  1.00  0.00     0.117 A 
HETATM   28  F   UNL     1      19.177  53.098  48.203  1.00  0.00    -0.206 F 
HETATM   29  C   UNL     1      18.540  51.042  49.162  1.00  0.00     0.042 A 
HETATM   30  C   UNL     1      18.896  49.775  49.611  1.00  0.00     0.004 A 
HETATM   31  C   UNL     1      20.229  49.358  49.532  1.00  0.00     0.014 A 
ENDBRANCH  23  25
ENDBRANCH  18  19
ENDBRANCH  17  18
ENDBRANCH   1  17
TORSDOF 6
ENDMDL
MODEL 9
REMARK VINA RESULT:      -9.2     12.676     15.000
REMARK  6 active torsions:
REMARK  status: ('A' for Active; 'I' for Inactive)
REMARK       I    between atoms: N_2  and  C_3 
REMARK    1  A    between atoms: N_2  and  C_15 
REMARK       I    between atoms: C_3  and  N_4 
REMARK    2  A    between atoms: N_4  and  C_5 
REMARK    3  A    between atoms: C_15  and  C_16 
REMARK    4  A    between atoms: C_16  and  C_17 
REMARK    5  A    between atoms: C_17  and  C_18 
REMARK    6  A    between atoms: C_22  and  C_23 
ROOT
HETATM    1  C   UNL     1      26.873  47.079  37.937  1.00  0.00     0.127 C 
ENDROOT
BRANCH   1   2
HETATM    2  N   UNL     1      26.364  48.384  37.502  1.00  0.00    -0.338 N 
HETATM    3  C   UNL     1      24.994  48.394  36.999  1.00  0.00     0.154 C 
HETATM    4  C   UNL     1      26.867  49.613  37.929  1.00  0.00     0.322 C 
HETATM    5  N   UNL     1      28.192  49.602  38.290  1.00  0.00    -0.309 N 
HETATM    6  O   UNL     1      26.126  50.586  38.030  1.00  0.00    -0.247 OA
HETATM    7  H   UNL     1      28.740  48.836  37.935  1.00  0.00     0.170 HD
BRANCH   5   8
HETATM    8  C   UNL     1      28.915  50.615  38.958  1.00  0.00     0.036 A 
HETATM    9  C   UNL     1      30.268  50.886  38.732  1.00  0.00     0.039 A 
HETATM   10  C   UNL     1      30.869  51.919  39.437  1.00  0.00    -0.024 A 
HETATM   11  C   UNL     1      30.155  52.696  40.333  1.00  0.00    -0.026 A 
HETATM   12  C   UNL     1      32.273  52.397  39.379  1.00  0.00     0.207 C 
HETATM   13  C   UNL     1      31.049  53.739  40.894  1.00  0.00     0.207 C 
HETATM   14  C   UNL     1      28.814  52.461  40.566  1.00  0.00     0.012 A 
HETATM   15  O   UNL     1      32.374  53.359  40.457  1.00  0.00    -0.382 OA
HETATM   16  C   UNL     1      28.199  51.407  39.880  1.00  0.00     0.030 A 
ENDBRANCH   5   8
ENDBRANCH   1   2
BRANCH   1  17
HETATM   17  C   UNL     1      26.873  46.889  39.463  1.00  0.00     0.026 C 
BRANCH  17  18
HETATM   18  C   UNL     1      28.188  46.331  40.019  1.00  0.00     0.060 C 
BRANCH  18  19
HETATM   19  C   UNL     1      28.970  47.313  40.820  1.00  0.00     0.030 A 
HETATM   20  N   UNL     1      28.426  48.141  41.765  1.00  0.00    -0.282 N 
HETATM   21  H   UNL     1      27.462  48.202  42.082  1.00  0.00     0.189 HD
HETATM   22  N   UNL     1      29.317  48.978  42.317  1.00  0.00    -0.174 NA
HETATM   23  C   UNL     1      30.479  48.714  41.701  1.00  0.00     0.089 A 
HETATM   24  C   UNL     1      30.304  47.656  40.768  1.00  0.00     0.060 A 
BRANCH  23  25
HETATM   25  C   UNL     1      31.698  49.478  41.998  1.00  0.00    -0.003 A 
HETATM   26  C   UNL     1      32.891  49.243  41.304  1.00  0.00     0.056 A 
HETATM   27  C   UNL     1      34.025  49.999  41.591  1.00  0.00     0.117 A 
HETATM   28  F   UNL     1      35.157  49.764  40.913  1.00  0.00    -0.206 F 
HETATM   29  C   UNL     1      34.007  50.990  42.563  1.00  0.00     0.042 A 
HETATM   30  C   UNL     1      32.831  51.235  43.264  1.00  0.00     0.004 A 
HETATM   31  C   UNL     1      31.685  50.483  42.983  1.00  0.00     0.014 A 
ENDBRANCH  23  25
ENDBRANCH  18  19
ENDBRANCH  17  18
ENDBRANCH   1  17
TORSDOF 6
ENDMDL
MODEL 10
REMARK VINA RESULT:      -9.1      2.297      2.840
REMARK  6 active torsions:
REMARK  status: ('A' for Active; 'I' for Inactive)
REMARK       I    between atoms: N_2  and  C_3 
REMARK    1  A    between atoms: N_2  and  C_15 
REMARK       I    between atoms: C_3  and  N_4 
REMARK    2  A    between atoms: N_4  and  C_5 
REMARK    3  A    between atoms: C_15  and  C_16 
REMARK    4  A    between atoms: C_16  and  C_17 
REMARK    5  A    between atoms: C_17  and  C_18 
REMARK    6  A    between atoms: C_22  and  C_23 
ROOT
HETATM    1  C   UNL     1      24.620  42.736  50.782  1.00  0.00     0.127 C 
ENDROOT
BRANCH   1   2
HETATM    2  N   UNL     1      25.768  41.825  50.723  1.00  0.00    -0.338 N 
HETATM    3  C   UNL     1      25.870  41.012  49.515  1.00  0.00     0.154 C 
HETATM    4  C   UNL     1      26.946  41.987  51.452  1.00  0.00     0.322 C 
HETATM    5  N   UNL     1      26.803  42.658  52.641  1.00  0.00    -0.309 N 
HETATM    6  O   UNL     1      28.019  41.609  50.990  1.00  0.00    -0.247 OA
HETATM    7  H   UNL     1      25.871  42.692  53.020  1.00  0.00     0.170 HD
BRANCH   5   8
HETATM    8  C   UNL     1      27.823  43.161  53.480  1.00  0.00     0.036 A 
HETATM    9  C   UNL     1      27.755  44.392  54.139  1.00  0.00     0.039 A 
HETATM   10  C   UNL     1      28.812  44.774  54.952  1.00  0.00    -0.024 A 
HETATM   11  C   UNL     1      29.913  43.956  55.141  1.00  0.00    -0.026 A 
HETATM   12  C   UNL     1      28.979  46.016  55.746  1.00  0.00     0.207 C 
HETATM   13  C   UNL     1      30.850  44.609  56.088  1.00  0.00     0.207 C 
HETATM   14  C   UNL     1      30.001  42.728  54.514  1.00  0.00     0.012 A 
HETATM   15  O   UNL     1      30.341  45.955  56.235  1.00  0.00    -0.382 OA
HETATM   16  C   UNL     1      28.953  42.339  53.672  1.00  0.00     0.030 A 
ENDBRANCH   5   8
ENDBRANCH   1   2
BRANCH   1  17
HETATM   17  C   UNL     1      24.621  43.810  49.682  1.00  0.00     0.026 C 
BRANCH  17  18
HETATM   18  C   UNL     1      25.575  44.979  49.956  1.00  0.00     0.060 C 
BRANCH  18  19
HETATM   19  C   UNL     1      24.966  46.320  49.736  1.00  0.00     0.030 A 
HETATM   20  N   UNL     1      25.591  47.504  50.022  1.00  0.00    -0.282 N 
HETATM   21  H   UNL     1      26.529  47.661  50.384  1.00  0.00     0.189 HD
HETATM   22  N   UNL     1      24.825  48.581  49.791  1.00  0.00    -0.174 NA
HETATM   23  C   UNL     1      23.651  48.094  49.364  1.00  0.00     0.089 A 
HETATM   24  C   UNL     1      23.710  46.675  49.294  1.00  0.00     0.060 A 
BRANCH  23  25
HETATM   25  C   UNL     1      22.518  48.976  49.058  1.00  0.00    -0.003 A 
HETATM   26  C   UNL     1      21.200  48.503  49.078  1.00  0.00     0.056 A 
HETATM   27  C   UNL     1      20.143  49.368  48.807  1.00  0.00     0.117 A 
HETATM   28  F   UNL     1      18.888  48.900  48.835  1.00  0.00    -0.206 F 
HETATM   29  C   UNL     1      20.363  50.707  48.509  1.00  0.00     0.042 A 
HETATM   30  C   UNL     1      21.666  51.194  48.482  1.00  0.00     0.004 A 
HETATM   31  C   UNL     1      22.735  50.333  48.754  1.00  0.00     0.014 A 
ENDBRANCH  23  25
ENDBRANCH  18  19
ENDBRANCH  17  18
ENDBRANCH   1  17
TORSDOF 6
ENDMDL
