MODEL 1
REMARK VINA RESULT:      -9.0      0.000      0.000
REMARK  2 active torsions:
REMARK  status: ('A' for Active; 'I' for Inactive)
REMARK    1  A    between atoms: C_3  and  C_4 
REMARK    2  A    between atoms: C_11  and  C_12 
REMARK       I    between atoms: C_12  and  N_13 
ROOT
HETATM    1  C   UNL     1      24.884  43.839  51.478  1.00  0.00     0.256 C 
HETATM    2  N   UNL     1      25.890  42.961  51.049  1.00  0.00    -0.348 N 
HETATM    3  C   UNL     1      27.303  43.319  50.956  1.00  0.00     0.128 C 
HETATM    4  C   UNL     1      28.233  42.123  51.127  1.00  0.00     0.055 C 
HETATM    5  C   UNL     1      27.847  40.934  50.232  1.00  0.00     0.100 C 
HETATM    6  N   UNL     1      28.061  41.306  48.798  1.00  0.00    -0.273 NA
HETATM    7  C   UNL     1      28.006  40.186  47.927  1.00  0.00     0.036 A 
HETATM    8  C   UNL     1      28.417  38.907  48.343  1.00  0.00     0.056 A 
HETATM    9  N   UNL     1      28.808  38.709  49.672  1.00  0.00    -0.324 N 
HETATM   10  C   UNL     1      28.699  39.692  50.626  1.00  0.00     0.245 C 
HETATM   11  O   UNL     1      29.183  39.521  51.744  1.00  0.00    -0.271 OA
HETATM   12  C   UNL     1      27.702  40.392  46.579  1.00  0.00     0.026 A 
HETATM   13  C   UNL     1      27.741  39.327  45.677  1.00  0.00     0.002 A 
HETATM   14  C   UNL     1      28.125  38.056  46.108  1.00  0.00     0.002 A 
HETATM   15  C   UNL     1      28.476  37.845  47.442  1.00  0.00     0.031 A 
HETATM   16  C   UNL     1      26.363  40.599  50.476  1.00  0.00     0.055 C 
HETATM   17  C   UNL     1      25.467  41.810  50.259  1.00  0.00     0.128 C 
HETATM   18  O   UNL     1      23.690  43.566  51.380  1.00  0.00    -0.267 OA
HETATM   19  H   UNL     1      28.994  41.705  48.682  1.00  0.00     0.129 HD
HETATM   20  H   UNL     1      29.254  37.847  49.954  1.00  0.00     0.169 HD
ENDROOT
BRANCH   1  21
HETATM   21  C   UNL     1      25.288  45.090  52.125  1.00  0.00     0.062 A 
HETATM   22  C   UNL     1      25.754  45.235  53.483  1.00  0.00    -0.014 A 
HETATM   23  C   UNL     1      25.927  44.106  54.441  1.00  0.00     0.052 C 
HETATM   24  C   UNL     1      25.993  46.591  53.696  1.00  0.00     0.085 A 
HETATM   25  N   UNL     1      25.661  47.242  52.527  1.00  0.00    -0.356 N 
HETATM   26  H   UNL     1      25.724  48.248  52.423  1.00  0.00     0.166 HD
HETATM   27  C   UNL     1      25.195  46.364  51.586  1.00  0.00     0.022 A 
HETATM   28  C   UNL     1      24.695  46.849  50.274  1.00  0.00     0.069 C 
BRANCH  24  29
HETATM   29  C   UNL     1      26.473  47.361  54.832  1.00  0.00     0.172 C 
HETATM   30  C   UNL     1      27.881  47.155  55.324  1.00  0.00     0.098 C 
HETATM   31  O   UNL     1      25.740  48.172  55.402  1.00  0.00    -0.291 OA
ENDBRANCH  24  29
ENDBRANCH   1  21
TORSDOF 2
ENDMDL
MODEL 2
REMARK VINA RESULT:      -8.2      3.812      7.470
REMARK  2 active torsions:
REMARK  status: ('A' for Active; 'I' for Inactive)
REMARK    1  A    between atoms: C_3  and  C_4 
REMARK    2  A    between atoms: C_11  and  C_12 
REMARK       I    between atoms: C_12  and  N_13 
ROOT
HETATM    1  C   UNL     1      23.297  42.851  49.007  1.00  0.00     0.256 C 
HETATM    2  N   UNL     1      24.229  43.580  49.759  1.00  0.00    -0.348 N 
HETATM    3  C   UNL     1      25.117  44.595  49.198  1.00  0.00     0.128 C 
HETATM    4  C   UNL     1      25.516  45.663  50.211  1.00  0.00     0.055 C 
HETATM    5  C   UNL     1      26.030  45.068  51.533  1.00  0.00     0.100 C 
HETATM    6  N   UNL     1      27.325  44.359  51.285  1.00  0.00    -0.273 NA
HETATM    7  C   UNL     1      28.009  44.032  52.485  1.00  0.00     0.036 A 
HETATM    8  C   UNL     1      27.909  44.837  53.634  1.00  0.00     0.056 A 
HETATM    9  N   UNL     1      27.048  45.939  53.628  1.00  0.00    -0.324 N 
HETATM   10  C   UNL     1      26.202  46.208  52.579  1.00  0.00     0.245 C 
HETATM   11  O   UNL     1      25.567  47.261  52.555  1.00  0.00    -0.271 OA
HETATM   12  C   UNL     1      28.936  42.986  52.472  1.00  0.00     0.026 A 
HETATM   13  C   UNL     1      29.700  42.707  53.607  1.00  0.00     0.002 A 
HETATM   14  C   UNL     1      29.572  43.497  54.751  1.00  0.00     0.002 A 
HETATM   15  C   UNL     1      28.684  44.573  54.763  1.00  0.00     0.031 A 
HETATM   16  C   UNL     1      24.977  44.078  52.066  1.00  0.00     0.055 C 
HETATM   17  C   UNL     1      24.635  43.009  51.038  1.00  0.00     0.128 C 
HETATM   18  O   UNL     1      22.690  41.887  49.470  1.00  0.00    -0.267 OA
HETATM   19  H   UNL     1      27.955  44.969  50.761  1.00  0.00     0.129 HD
HETATM   20  H   UNL     1      27.077  46.618  54.376  1.00  0.00     0.169 HD
ENDROOT
BRANCH   1  21
HETATM   21  C   UNL     1      22.997  43.307  47.647  1.00  0.00     0.062 A 
HETATM   22  C   UNL     1      22.089  44.369  47.286  1.00  0.00    -0.014 A 
HETATM   23  C   UNL     1      21.331  45.201  48.265  1.00  0.00     0.052 C 
HETATM   24  C   UNL     1      22.075  44.447  45.896  1.00  0.00     0.085 A 
HETATM   25  N   UNL     1      22.916  43.457  45.433  1.00  0.00    -0.356 N 
HETATM   26  H   UNL     1      23.067  43.283  44.447  1.00  0.00     0.166 HD
HETATM   27  C   UNL     1      23.445  42.734  46.467  1.00  0.00     0.022 A 
HETATM   28  C   UNL     1      24.314  41.557  46.207  1.00  0.00     0.069 C 
BRANCH  24  29
HETATM   29  C   UNL     1      21.383  45.301  44.942  1.00  0.00     0.172 C 
HETATM   30  C   UNL     1      19.881  45.391  44.985  1.00  0.00     0.098 C 
HETATM   31  O   UNL     1      22.010  45.941  44.095  1.00  0.00    -0.291 OA
ENDBRANCH  24  29
ENDBRANCH   1  21
TORSDOF 2
ENDMDL
MODEL 3
REMARK VINA RESULT:      -8.2     17.356     19.919
REMARK  2 active torsions:
REMARK  status: ('A' for Active; 'I' for Inactive)
REMARK    1  A    between atoms: C_3  and  C_4 
REMARK    2  A    between atoms: C_11  and  C_12 
REMARK       I    between atoms: C_12  and  N_13 
ROOT
HETATM    1  C   UNL     1      41.432  46.908  65.125  1.00  0.00     0.256 C 
HETATM    2  N   UNL     1      40.699  45.729  64.925  1.00  0.00    -0.348 N 
HETATM    3  C   UNL     1      39.531  45.349  65.714  1.00  0.00     0.128 C 
HETATM    4  C   UNL     1      38.556  44.462  64.945  1.00  0.00     0.055 C 
HETATM    5  C   UNL     1      39.246  43.268  64.265  1.00  0.00     0.100 C 
HETATM    6  N   UNL     1      39.770  42.337  65.313  1.00  0.00    -0.273 NA
HETATM    7  C   UNL     1      40.162  41.080  64.784  1.00  0.00     0.036 A 
HETATM    8  C   UNL     1      39.520  40.517  63.667  1.00  0.00     0.056 A 
HETATM    9  N   UNL     1      38.528  41.248  63.004  1.00  0.00    -0.324 N 
HETATM   10  C   UNL     1      38.230  42.549  63.329  1.00  0.00     0.245 C 
HETATM   11  O   UNL     1      37.260  43.105  62.817  1.00  0.00    -0.271 OA
HETATM   12  C   UNL     1      41.088  40.308  65.490  1.00  0.00     0.026 A 
HETATM   13  C   UNL     1      41.416  39.023  65.050  1.00  0.00     0.002 A 
HETATM   14  C   UNL     1      40.791  38.486  63.924  1.00  0.00     0.002 A 
HETATM   15  C   UNL     1      39.830  39.228  63.236  1.00  0.00     0.031 A 
HETATM   16  C   UNL     1      40.406  43.800  63.401  1.00  0.00     0.055 C 
HETATM   17  C   UNL     1      41.373  44.648  64.214  1.00  0.00     0.128 C 
HETATM   18  O   UNL     1      42.506  47.116  64.566  1.00  0.00    -0.267 OA
HETATM   19  H   UNL     1      39.035  42.137  65.994  1.00  0.00     0.129 HD
HETATM   20  H   UNL     1      37.946  40.808  62.304  1.00  0.00     0.169 HD
ENDROOT
BRANCH   1  21
HETATM   21  C   UNL     1      40.850  47.947  65.979  1.00  0.00     0.062 A 
HETATM   22  C   UNL     1      39.939  48.984  65.559  1.00  0.00    -0.014 A 
HETATM   23  C   UNL     1      39.417  49.138  64.170  1.00  0.00     0.052 C 
HETATM   24  C   UNL     1      39.665  49.772  66.674  1.00  0.00     0.085 A 
HETATM   25  N   UNL     1      40.400  49.252  67.719  1.00  0.00    -0.356 N 
HETATM   26  H   UNL     1      40.398  49.658  68.647  1.00  0.00     0.166 HD
HETATM   27  C   UNL     1      41.151  48.183  67.312  1.00  0.00     0.022 A 
HETATM   28  C   UNL     1      42.091  47.512  68.247  1.00  0.00     0.069 C 
BRANCH  24  29
HETATM   29  C   UNL     1      38.831  50.942  66.900  1.00  0.00     0.172 C 
HETATM   30  C   UNL     1      37.472  50.771  67.526  1.00  0.00     0.098 C 
HETATM   31  O   UNL     1      39.217  52.067  66.577  1.00  0.00    -0.291 OA
ENDBRANCH  24  29
ENDBRANCH   1  21
TORSDOF 2
ENDMDL
MODEL 4
REMARK VINA RESULT:      -8.2      3.982      6.690
REMARK  2 active torsions:
REMARK  status: ('A' for Active; 'I' for Inactive)
REMARK    1  A    between atoms: C_3  and  C_4 
REMARK    2  A    between atoms: C_11  and  C_12 
REMARK       I    between atoms: C_12  and  N_13 
ROOT
HETATM    1  C   UNL     1      25.472  46.182  49.530  1.00  0.00     0.256 C 
HETATM    2  N   UNL     1      25.935  45.323  50.537  1.00  0.00    -0.348 N 
HETATM    3  C   UNL     1      25.067  44.634  51.488  1.00  0.00     0.128 C 
HETATM    4  C   UNL     1      25.661  43.325  51.997  1.00  0.00     0.055 C 
HETATM    5  C   UNL     1      27.107  43.482  52.498  1.00  0.00     0.100 C 
HETATM    6  N   UNL     1      27.115  44.339  53.724  1.00  0.00    -0.273 NA
HETATM    7  C   UNL     1      28.356  44.299  54.413  1.00  0.00     0.036 A 
HETATM    8  C   UNL     1      29.167  43.150  54.407  1.00  0.00     0.056 A 
HETATM    9  N   UNL     1      28.788  42.046  53.637  1.00  0.00    -0.324 N 
HETATM   10  C   UNL     1      27.709  42.076  52.787  1.00  0.00     0.245 C 
HETATM   11  O   UNL     1      27.330  41.042  52.237  1.00  0.00    -0.271 OA
HETATM   12  C   UNL     1      28.698  45.362  55.252  1.00  0.00     0.026 A 
HETATM   13  C   UNL     1      29.862  45.307  56.022  1.00  0.00     0.002 A 
HETATM   14  C   UNL     1      30.673  44.171  55.988  1.00  0.00     0.002 A 
HETATM   15  C   UNL     1      30.319  43.083  55.189  1.00  0.00     0.031 A 
HETATM   16  C   UNL     1      27.942  44.144  51.384  1.00  0.00     0.055 C 
HETATM   17  C   UNL     1      27.333  45.463  50.931  1.00  0.00     0.128 C 
HETATM   18  O   UNL     1      26.232  46.879  48.862  1.00  0.00    -0.267 OA
HETATM   19  H   UNL     1      26.417  43.996  54.387  1.00  0.00     0.129 HD
HETATM   20  H   UNL     1      29.264  41.160  53.739  1.00  0.00     0.169 HD
ENDROOT
BRANCH   1  21
HETATM   21  C   UNL     1      24.038  46.186  49.231  1.00  0.00     0.062 A 
HETATM   22  C   UNL     1      23.278  45.086  48.687  1.00  0.00    -0.014 A 
HETATM   23  C   UNL     1      23.845  43.743  48.372  1.00  0.00     0.052 C 
HETATM   24  C   UNL     1      21.967  45.527  48.527  1.00  0.00     0.085 A 
HETATM   25  N   UNL     1      21.939  46.845  48.930  1.00  0.00    -0.356 N 
HETATM   26  H   UNL     1      21.100  47.412  48.893  1.00  0.00     0.166 HD
HETATM   27  C   UNL     1      23.180  47.272  49.316  1.00  0.00     0.022 A 
HETATM   28  C   UNL     1      23.412  48.686  49.709  1.00  0.00     0.069 C 
BRANCH  24  29
HETATM   29  C   UNL     1      20.746  44.901  48.042  1.00  0.00     0.172 C 
HETATM   30  C   UNL     1      20.689  44.389  46.628  1.00  0.00     0.098 C 
HETATM   31  O   UNL     1      19.758  44.795  48.771  1.00  0.00    -0.291 OA
ENDBRANCH  24  29
ENDBRANCH   1  21
TORSDOF 2
ENDMDL
MODEL 5
REMARK VINA RESULT:      -8.2      2.480      4.011
REMARK  2 active torsions:
REMARK  status: ('A' for Active; 'I' for Inactive)
REMARK    1  A    between atoms: C_3  and  C_4 
REMARK    2  A    between atoms: C_11  and  C_12 
REMARK       I    between atoms: C_12  and  N_13 
ROOT
HETATM    1  C   UNL     1      23.541  44.583  49.829  1.00  0.00     0.256 C 
HETATM    2  N   UNL     1      24.760  43.892  49.876  1.00  0.00    -0.348 N 
HETATM    3  C   UNL     1      26.046  44.478  49.510  1.00  0.00     0.128 C 
HETATM    4  C   UNL     1      27.222  43.834  50.239  1.00  0.00     0.055 C 
HETATM    5  C   UNL     1      27.207  42.299  50.155  1.00  0.00     0.100 C 
HETATM    6  N   UNL     1      27.437  41.879  48.737  1.00  0.00    -0.273 NA
HETATM    7  C   UNL     1      27.725  40.494  48.615  1.00  0.00     0.036 A 
HETATM    8  C   UNL     1      28.398  39.788  49.628  1.00  0.00     0.056 A 
HETATM    9  N   UNL     1      28.719  40.440  50.823  1.00  0.00    -0.324 N 
HETATM   10  C   UNL     1      28.300  41.719  51.100  1.00  0.00     0.245 C 
HETATM   11  O   UNL     1      28.722  42.302  52.098  1.00  0.00    -0.271 OA
HETATM   12  C   UNL     1      27.487  39.860  47.393  1.00  0.00     0.026 A 
HETATM   13  C   UNL     1      27.854  38.525  47.209  1.00  0.00     0.002 A 
HETATM   14  C   UNL     1      28.499  37.827  48.232  1.00  0.00     0.002 A 
HETATM   15  C   UNL     1      28.784  38.462  49.441  1.00  0.00     0.031 A 
HETATM   16  C   UNL     1      25.834  41.796  50.640  1.00  0.00     0.055 C 
HETATM   17  C   UNL     1      24.691  42.435  49.863  1.00  0.00     0.128 C 
HETATM   18  O   UNL     1      22.459  44.018  49.973  1.00  0.00    -0.267 OA
HETATM   19  H   UNL     1      28.253  42.368  48.362  1.00  0.00     0.129 HD
HETATM   20  H   UNL     1      29.336  40.007  51.496  1.00  0.00     0.169 HD
ENDROOT
BRANCH   1  21
HETATM   21  C   UNL     1      23.578  46.039  49.669  1.00  0.00     0.062 A 
HETATM   22  C   UNL     1      23.009  46.791  48.576  1.00  0.00    -0.014 A 
HETATM   23  C   UNL     1      22.256  46.188  47.438  1.00  0.00     0.052 C 
HETATM   24  C   UNL     1      23.302  48.134  48.800  1.00  0.00     0.085 A 
HETATM   25  N   UNL     1      24.039  48.191  49.964  1.00  0.00    -0.356 N 
HETATM   26  H   UNL     1      24.400  49.059  50.342  1.00  0.00     0.166 HD
HETATM   27  C   UNL     1      24.252  46.941  50.477  1.00  0.00     0.022 A 
HETATM   28  C   UNL     1      25.097  46.747  51.684  1.00  0.00     0.069 C 
BRANCH  24  29
HETATM   29  C   UNL     1      23.004  49.363  48.081  1.00  0.00     0.172 C 
HETATM   30  C   UNL     1      21.658  50.014  48.256  1.00  0.00     0.098 C 
HETATM   31  O   UNL     1      23.834  49.871  47.325  1.00  0.00    -0.291 OA
ENDBRANCH  24  29
ENDBRANCH   1  21
TORSDOF 2
ENDMDL
MODEL 6
REMARK VINA RESULT:      -7.9      3.878      6.998
REMARK  2 active torsions:
REMARK  status: ('A' for Active; 'I' for Inactive)
REMARK    1  A    between atoms: C_3  and  C_4 
REMARK    2  A    between atoms: C_11  and  C_12 
REMARK       I    between atoms: C_12  and  N_13 
ROOT
HETATM    1  C   UNL     1      24.392  48.473  48.948  1.00  0.00     0.256 C 
HETATM    2  N   UNL     1      24.764  47.282  49.587  1.00  0.00    -0.348 N 
HETATM    3  C   UNL     1      23.826  46.387  50.260  1.00  0.00     0.128 C 
HETATM    4  C   UNL     1      24.294  44.936  50.274  1.00  0.00     0.055 C 
HETATM    5  C   UNL     1      25.742  44.781  50.768  1.00  0.00     0.100 C 
HETATM    6  N   UNL     1      25.814  45.157  52.214  1.00  0.00    -0.273 NA
HETATM    7  C   UNL     1      27.039  44.773  52.821  1.00  0.00     0.036 A 
HETATM    8  C   UNL     1      27.742  43.629  52.403  1.00  0.00     0.056 A 
HETATM    9  N   UNL     1      27.274  42.897  51.307  1.00  0.00    -0.324 N 
HETATM   10  C   UNL     1      26.211  43.314  50.542  1.00  0.00     0.245 C 
HETATM   11  O   UNL     1      25.747  42.572  49.678  1.00  0.00    -0.271 OA
HETATM   12  C   UNL     1      27.465  45.446  53.969  1.00  0.00     0.026 A 
HETATM   13  C   UNL     1      28.611  45.025  54.648  1.00  0.00     0.002 A 
HETATM   14  C   UNL     1      29.316  43.904  54.207  1.00  0.00     0.002 A 
HETATM   15  C   UNL     1      28.875  43.195  53.090  1.00  0.00     0.031 A 
HETATM   16  C   UNL     1      26.646  45.710  49.934  1.00  0.00     0.055 C 
HETATM   17  C   UNL     1      26.164  47.153  49.976  1.00  0.00     0.128 C 
HETATM   18  O   UNL     1      25.219  49.288  48.546  1.00  0.00    -0.267 OA
HETATM   19  H   UNL     1      25.080  44.670  52.733  1.00  0.00     0.129 HD
HETATM   20  H   UNL     1      27.666  41.992  51.088  1.00  0.00     0.169 HD
ENDROOT
BRANCH   1  21
HETATM   21  C   UNL     1      22.967  48.707  48.698  1.00  0.00     0.062 A 
HETATM   22  C   UNL     1      22.179  49.799  49.217  1.00  0.00    -0.014 A 
HETATM   23  C   UNL     1      22.715  50.893  50.078  1.00  0.00     0.052 C 
HETATM   24  C   UNL     1      20.874  49.620  48.765  1.00  0.00     0.085 A 
HETATM   25  N   UNL     1      20.865  48.455  48.026  1.00  0.00    -0.356 N 
HETATM   26  H   UNL     1      20.026  48.083  47.599  1.00  0.00     0.166 HD
HETATM   27  C   UNL     1      22.102  47.870  48.010  1.00  0.00     0.022 A 
HETATM   28  C   UNL     1      22.315  46.557  47.347  1.00  0.00     0.069 C 
BRANCH  24  29
HETATM   29  C   UNL     1      19.638  50.369  48.932  1.00  0.00     0.172 C 
HETATM   30  C   UNL     1      19.619  51.842  48.622  1.00  0.00     0.098 C 
HETATM   31  O   UNL     1      18.613  49.816  49.334  1.00  0.00    -0.291 OA
ENDBRANCH  24  29
ENDBRANCH   1  21
TORSDOF 2
ENDMDL
MODEL 7
REMARK VINA RESULT:      -7.9     11.542     12.919
REMARK  2 active torsions:
REMARK  status: ('A' for Active; 'I' for Inactive)
REMARK    1  A    between atoms: C_3  and  C_4 
REMARK    2  A    between atoms: C_11  and  C_12 
REMARK       I    between atoms: C_12  and  N_13 
ROOT
HETATM    1  C   UNL     1      30.844  50.020  39.351  1.00  0.00     0.256 C 
HETATM    2  N   UNL     1      29.790  49.143  39.641  1.00  0.00    -0.348 N 
HETATM    3  C   UNL     1      29.350  48.812  40.994  1.00  0.00     0.128 C 
HETATM    4  C   UNL     1      27.876  48.427  41.064  1.00  0.00     0.055 C 
HETATM    5  C   UNL     1      27.487  47.366  40.022  1.00  0.00     0.100 C 
HETATM    6  N   UNL     1      28.173  46.077  40.350  1.00  0.00    -0.273 NA
HETATM    7  C   UNL     1      27.653  44.976  39.619  1.00  0.00     0.036 A 
HETATM    8  C   UNL     1      26.303  44.923  39.228  1.00  0.00     0.056 A 
HETATM    9  N   UNL     1      25.469  46.015  39.488  1.00  0.00    -0.324 N 
HETATM   10  C   UNL     1      25.940  47.195  40.010  1.00  0.00     0.245 C 
HETATM   11  O   UNL     1      25.152  48.075  40.352  1.00  0.00    -0.271 OA
HETATM   12  C   UNL     1      28.455  43.848  39.433  1.00  0.00     0.026 A 
HETATM   13  C   UNL     1      27.938  42.711  38.809  1.00  0.00     0.002 A 
HETATM   14  C   UNL     1      26.604  42.679  38.401  1.00  0.00     0.002 A 
HETATM   15  C   UNL     1      25.778  43.782  38.622  1.00  0.00     0.031 A 
HETATM   16  C   UNL     1      27.929  47.861  38.630  1.00  0.00     0.055 C 
HETATM   17  C   UNL     1      29.412  48.199  38.596  1.00  0.00     0.128 C 
HETATM   18  O   UNL     1      31.303  50.144  38.218  1.00  0.00    -0.267 OA
HETATM   19  H   UNL     1      28.027  45.851  41.336  1.00  0.00     0.129 HD
HETATM   20  H   UNL     1      24.469  45.939  39.362  1.00  0.00     0.169 HD
ENDROOT
BRANCH   1  21
HETATM   21  C   UNL     1      31.361  50.863  40.434  1.00  0.00     0.062 A 
HETATM   22  C   UNL     1      32.353  50.482  41.410  1.00  0.00    -0.014 A 
HETATM   23  C   UNL     1      33.040  49.159  41.443  1.00  0.00     0.052 C 
HETATM   24  C   UNL     1      32.523  51.563  42.271  1.00  0.00     0.085 A 
HETATM   25  N   UNL     1      31.652  52.546  41.852  1.00  0.00    -0.356 N 
HETATM   26  H   UNL     1      31.560  53.437  42.327  1.00  0.00     0.166 HD
HETATM   27  C   UNL     1      30.914  52.130  40.778  1.00  0.00     0.022 A 
HETATM   28  C   UNL     1      29.846  52.990  40.207  1.00  0.00     0.069 C 
BRANCH  24  29
HETATM   29  C   UNL     1      33.369  51.804  43.430  1.00  0.00     0.172 C 
HETATM   30  C   UNL     1      32.746  51.878  44.798  1.00  0.00     0.098 C 
HETATM   31  O   UNL     1      34.586  51.959  43.304  1.00  0.00    -0.291 OA
ENDBRANCH  24  29
ENDBRANCH   1  21
TORSDOF 2
ENDMDL
MODEL 8
REMARK VINA RESULT:      -7.9     11.785     13.219
REMARK  2 active torsions:
REMARK  status: ('A' for Active; 'I' for Inactive)
REMARK    1  A    between atoms: C_3  and  C_4 
REMARK    2  A    between atoms: C_11  and  C_12 
REMARK       I    between atoms: C_12  and  N_13 
ROOT
HETATM    1  C   UNL     1      28.992  50.551  41.349  1.00  0.00     0.256 C 
HETATM    2  N   UNL     1      28.803  49.386  40.593  1.00  0.00    -0.348 N 
HETATM    3  C   UNL     1      29.806  48.822  39.694  1.00  0.00     0.128 C 
HETATM    4  C   UNL     1      29.674  47.312  39.526  1.00  0.00     0.055 C 
HETATM    5  C   UNL     1      28.240  46.872  39.188  1.00  0.00     0.100 C 
HETATM    6  N   UNL     1      27.875  47.381  37.829  1.00  0.00    -0.273 NA
HETATM    7  C   UNL     1      26.690  46.787  37.321  1.00  0.00     0.036 A 
HETATM    8  C   UNL     1      26.327  45.469  37.650  1.00  0.00     0.056 A 
HETATM    9  N   UNL     1      27.101  44.751  38.566  1.00  0.00    -0.324 N 
HETATM   10  C   UNL     1      28.146  45.320  39.254  1.00  0.00     0.245 C 
HETATM   11  O   UNL     1      28.885  44.618  39.942  1.00  0.00    -0.271 OA
HETATM   12  C   UNL     1      25.961  47.463  36.340  1.00  0.00     0.026 A 
HETATM   13  C   UNL     1      24.849  46.861  35.746  1.00  0.00     0.002 A 
HETATM   14  C   UNL     1      24.483  45.561  36.100  1.00  0.00     0.002 A 
HETATM   15  C   UNL     1      25.230  44.856  37.045  1.00  0.00     0.031 A 
HETATM   16  C   UNL     1      27.286  47.459  40.247  1.00  0.00     0.055 C 
HETATM   17  C   UNL     1      27.425  48.971  40.356  1.00  0.00     0.128 C 
HETATM   18  O   UNL     1      28.074  51.095  41.958  1.00  0.00    -0.267 OA
HETATM   19  H   UNL     1      28.613  47.145  37.163  1.00  0.00     0.129 HD
HETATM   20  H   UNL     1      26.956  43.759  38.698  1.00  0.00     0.169 HD
ENDROOT
BRANCH   1  21
HETATM   21  C   UNL     1      30.350  51.089  41.461  1.00  0.00     0.062 A 
HETATM   22  C   UNL     1      31.448  50.488  42.180  1.00  0.00    -0.014 A 
HETATM   23  C   UNL     1      31.370  49.186  42.904  1.00  0.00     0.052 C 
HETATM   24  C   UNL     1      32.541  51.343  42.060  1.00  0.00     0.085 A 
HETATM   25  N   UNL     1      32.116  52.428  41.322  1.00  0.00    -0.356 N 
HETATM   26  H   UNL     1      32.718  53.214  41.108  1.00  0.00     0.166 HD
HETATM   27  C   UNL     1      30.794  52.316  40.991  1.00  0.00     0.022 A 
HETATM   28  C   UNL     1      30.094  53.410  40.270  1.00  0.00     0.069 C 
BRANCH  24  29
HETATM   29  C   UNL     1      33.912  51.298  42.541  1.00  0.00     0.172 C 
HETATM   30  C   UNL     1      34.885  50.337  41.912  1.00  0.00     0.098 C 
HETATM   31  O   UNL     1      34.284  52.027  43.462  1.00  0.00    -0.291 OA
ENDBRANCH  24  29
ENDBRANCH   1  21
TORSDOF 2
ENDMDL
MODEL 9
REMARK VINA RESULT:      -7.8     11.569     13.363
REMARK  2 active torsions:
REMARK  status: ('A' for Active; 'I' for Inactive)
REMARK    1  A    between atoms: C_3  and  C_4 
REMARK    2  A    between atoms: C_11  and  C_12 
REMARK       I    between atoms: C_12  and  N_13 
ROOT
HETATM    1  C   UNL     1      30.505  48.491  39.850  1.00  0.00     0.256 C 
HETATM    2  N   UNL     1      29.111  48.625  39.905  1.00  0.00    -0.348 N 
HETATM    3  C   UNL     1      28.417  49.620  40.718  1.00  0.00     0.128 C 
HETATM    4  C   UNL     1      27.061  50.017  40.144  1.00  0.00     0.055 C 
HETATM    5  C   UNL     1      26.185  48.804  39.790  1.00  0.00     0.100 C 
HETATM    6  N   UNL     1      25.806  48.085  41.047  1.00  0.00    -0.273 NA
HETATM    7  C   UNL     1      24.773  47.132  40.844  1.00  0.00     0.036 A 
HETATM    8  C   UNL     1      23.778  47.320  39.867  1.00  0.00     0.056 A 
HETATM    9  N   UNL     1      23.852  48.426  39.015  1.00  0.00    -0.324 N 
HETATM   10  C   UNL     1      24.925  49.284  39.013  1.00  0.00     0.245 C 
HETATM   11  O   UNL     1      24.884  50.319  38.348  1.00  0.00    -0.271 OA
HETATM   12  C   UNL     1      24.642  46.074  41.746  1.00  0.00     0.026 A 
HETATM   13  C   UNL     1      23.576  45.179  41.634  1.00  0.00     0.002 A 
HETATM   14  C   UNL     1      22.609  45.360  40.643  1.00  0.00     0.002 A 
HETATM   15  C   UNL     1      22.702  46.440  39.764  1.00  0.00     0.031 A 
HETATM   16  C   UNL     1      26.993  47.869  38.869  1.00  0.00     0.055 C 
HETATM   17  C   UNL     1      28.321  47.469  39.495  1.00  0.00     0.128 C 
HETATM   18  O   UNL     1      31.052  47.539  39.298  1.00  0.00    -0.267 OA
HETATM   19  H   UNL     1      25.439  48.754  41.728  1.00  0.00     0.129 HD
HETATM   20  H   UNL     1      23.074  48.667  38.417  1.00  0.00     0.169 HD
ENDROOT
BRANCH   1  21
HETATM   21  C   UNL     1      31.326  49.566  40.413  1.00  0.00     0.062 A 
HETATM   22  C   UNL     1      31.744  49.688  41.789  1.00  0.00    -0.014 A 
HETATM   23  C   UNL     1      31.422  48.700  42.859  1.00  0.00     0.052 C 
HETATM   24  C   UNL     1      32.474  50.869  41.898  1.00  0.00     0.085 A 
HETATM   25  N   UNL     1      32.476  51.451  40.648  1.00  0.00    -0.356 N 
HETATM   26  H   UNL     1      32.925  52.340  40.458  1.00  0.00     0.166 HD
HETATM   27  C   UNL     1      31.756  50.708  39.753  1.00  0.00     0.022 A 
HETATM   28  C   UNL     1      31.546  51.184  38.362  1.00  0.00     0.069 C 
BRANCH  24  29
HETATM   29  C   UNL     1      33.156  51.533  42.997  1.00  0.00     0.172 C 
HETATM   30  C   UNL     1      32.420  51.772  44.288  1.00  0.00     0.098 C 
HETATM   31  O   UNL     1      34.324  51.911  42.882  1.00  0.00    -0.291 OA
ENDBRANCH  24  29
ENDBRANCH   1  21
TORSDOF 2
ENDMDL
MODEL 10
REMARK VINA RESULT:      -7.7      9.130     14.162
REMARK  2 active torsions:
REMARK  status: ('A' for Active; 'I' for Inactive)
REMARK    1  A    between atoms: C_3  and  C_4 
REMARK    2  A    between atoms: C_11  and  C_12 
REMARK       I    between atoms: C_12  and  N_13 
ROOT
HETATM    1  C   UNL     1      19.466  49.023  49.399  1.00  0.00     0.256 C 
HETATM    2  N   UNL     1      18.646  50.048  48.908  1.00  0.00    -0.348 N 
HETATM    3  C   UNL     1      19.125  51.151  48.079  1.00  0.00     0.128 C 
HETATM    4  C   UNL     1      18.048  51.712  47.156  1.00  0.00     0.055 C 
HETATM    5  C   UNL     1      16.737  52.031  47.893  1.00  0.00     0.100 C 
HETATM    6  N   UNL     1      16.968  53.163  48.845  1.00  0.00    -0.273 NA
HETATM    7  C   UNL     1      15.759  53.708  49.352  1.00  0.00     0.036 A 
HETATM    8  C   UNL     1      14.579  53.722  48.588  1.00  0.00     0.056 A 
HETATM    9  N   UNL     1      14.566  53.107  47.332  1.00  0.00    -0.324 N 
HETATM   10  C   UNL     1      15.632  52.384  46.855  1.00  0.00     0.245 C 
HETATM   11  O   UNL     1      15.631  51.980  45.693  1.00  0.00    -0.271 OA
HETATM   12  C   UNL     1      15.787  54.400  50.566  1.00  0.00     0.026 A 
HETATM   13  C   UNL     1      14.637  55.037  51.040  1.00  0.00     0.002 A 
HETATM   14  C   UNL     1      13.463  55.020  50.285  1.00  0.00     0.002 A 
HETATM   15  C   UNL     1      13.435  54.372  49.050  1.00  0.00     0.031 A 
HETATM   16  C   UNL     1      16.291  50.773  48.664  1.00  0.00     0.055 C 
HETATM   17  C   UNL     1      17.381  50.268  49.599  1.00  0.00     0.128 C 
HETATM   18  O   UNL     1      19.072  48.210  50.233  1.00  0.00    -0.267 OA
HETATM   19  H   UNL     1      17.439  53.929  48.360  1.00  0.00     0.129 HD
HETATM   20  H   UNL     1      13.786  53.239  46.703  1.00  0.00     0.169 HD
ENDROOT
BRANCH   1  21
HETATM   21  C   UNL     1      20.813  48.886  48.839  1.00  0.00     0.062 A 
HETATM   22  C   UNL     1      21.960  49.698  49.170  1.00  0.00    -0.014 A 
HETATM   23  C   UNL     1      21.952  50.799  50.176  1.00  0.00     0.052 C 
HETATM   24  C   UNL     1      23.022  49.255  48.386  1.00  0.00     0.085 A 
HETATM   25  N   UNL     1      22.534  48.236  47.595  1.00  0.00    -0.356 N 
HETATM   26  H   UNL     1      23.103  47.752  46.911  1.00  0.00     0.166 HD
HETATM   27  C   UNL     1      21.200  48.029  47.820  1.00  0.00     0.022 A 
HETATM   28  C   UNL     1      20.437  47.038  47.019  1.00  0.00     0.069 C 
BRANCH  24  29
HETATM   29  C   UNL     1      24.416  49.651  48.262  1.00  0.00     0.172 C 
HETATM   30  C   UNL     1      25.462  48.942  49.081  1.00  0.00     0.098 C 
HETATM   31  O   UNL     1      24.749  50.565  47.504  1.00  0.00    -0.291 OA
ENDBRANCH  24  29
ENDBRANCH   1  21
TORSDOF 2
ENDMDL
