MODEL 1
REMARK VINA RESULT:      -8.9      0.000      0.000
REMARK  7 active torsions:
REMARK  status: ('A' for Active; 'I' for Inactive)
REMARK    1  A    between atoms: C_2  and  N_3 
REMARK    2  A    between atoms: C_2  and  C_17 
REMARK       I    between atoms: N_3  and  C_4 
REMARK    3  A    between atoms: C_4  and  C_5 
REMARK    4  A    between atoms: C_7  and  N_8 
REMARK    5  A    between atoms: C_17  and  O_18 
REMARK    6  A    between atoms: C_17  and  C_19 
REMARK    7  A    between atoms: C_22  and  O_23 
ROOT
HETATM    1  N   UNL     1      26.490  45.546  50.978  1.00  0.00    -0.349 N 
HETATM    2  C   UNL     1      26.078  46.791  51.395  1.00  0.00     0.270 C 
HETATM    3  O   UNL     1      25.763  47.059  52.549  1.00  0.00    -0.266 OA
HETATM    4  H   UNL     1      26.595  45.412  49.975  1.00  0.00     0.163 HD
ENDROOT
BRANCH   1   5
HETATM    5  C   UNL     1      26.477  44.359  51.837  1.00  0.00     0.114 C 
HETATM    6  C   UNL     1      25.411  43.383  51.330  1.00  0.00     0.035 C 
BRANCH   5   7
HETATM    7  C   UNL     1      27.903  43.747  51.891  1.00  0.00     0.173 C 
BRANCH   7   8
HETATM    8  O   UNL     1      27.866  42.355  51.546  1.00  0.00    -0.389 OA
HETATM    9  H   UNL     1      27.068  42.226  51.003  1.00  0.00     0.210 HD
ENDBRANCH   7   8
BRANCH   7  10
HETATM   10  C   UNL     1      28.626  43.957  53.207  1.00  0.00    -0.028 A 
HETATM   11  C   UNL     1      29.727  43.153  53.532  1.00  0.00     0.012 A 
HETATM   12  C   UNL     1      30.407  43.335  54.738  1.00  0.00     0.037 A 
HETATM   13  C   UNL     1      30.014  44.327  55.638  1.00  0.00     0.068 A 
HETATM   14  C   UNL     1      28.921  45.133  55.323  1.00  0.00     0.037 A 
HETATM   15  C   UNL     1      28.232  44.948  54.118  1.00  0.00     0.012 A 
BRANCH  13  16
HETATM   16  O   UNL     1      30.768  44.399  56.775  1.00  0.00    -0.356 OA
HETATM   17  C   UNL     1      31.676  43.331  57.014  1.00  0.00     0.210 C 
ENDBRANCH  13  16
ENDBRANCH   7  10
ENDBRANCH   5   7
ENDBRANCH   1   5
BRANCH   2  18
HETATM   18  C   UNL     1      26.027  47.822  50.309  1.00  0.00     0.126 A 
HETATM   19  N   UNL     1      24.792  48.307  49.995  1.00  0.00    -0.224 NA
HETATM   20  C   UNL     1      24.734  49.231  48.997  1.00  0.00     0.151 A 
HETATM   21  C   UNL     1      25.868  49.696  48.329  1.00  0.00     0.052 A 
HETATM   22  C   UNL     1      27.115  49.187  48.685  1.00  0.00     0.006 A 
HETATM   23  C   UNL     1      27.201  48.227  49.687  1.00  0.00     0.037 A 
BRANCH  20  24
HETATM   24  N   UNL     1      23.451  49.729  48.614  1.00  0.00    -0.227 N 
HETATM   25  N   UNL     1      22.640  49.067  47.742  1.00  0.00    -0.179 NA
HETATM   26  C   UNL     1      21.548  49.829  47.663  1.00  0.00     0.141 A 
HETATM   27  C   UNL     1      21.629  50.978  48.463  1.00  0.00     0.040 A 
HETATM   28  C   UNL     1      22.863  50.893  49.062  1.00  0.00     0.122 A 
ENDBRANCH  20  24
ENDBRANCH   2  18
TORSDOF 7
ENDMDL
MODEL 2
REMARK VINA RESULT:      -8.2      4.355     10.238
REMARK  7 active torsions:
REMARK  status: ('A' for Active; 'I' for Inactive)
REMARK    1  A    between atoms: C_2  and  N_3 
REMARK    2  A    between atoms: C_2  and  C_17 
REMARK       I    between atoms: N_3  and  C_4 
REMARK    3  A    between atoms: C_4  and  C_5 
REMARK    4  A    between atoms: C_7  and  N_8 
REMARK    5  A    between atoms: C_17  and  O_18 
REMARK    6  A    between atoms: C_17  and  C_19 
REMARK    7  A    between atoms: C_22  and  O_23 
ROOT
HETATM    1  N   UNL     1      22.472  49.146  48.817  1.00  0.00    -0.349 N 
HETATM    2  C   UNL     1      23.538  49.681  48.129  1.00  0.00     0.270 C 
HETATM    3  O   UNL     1      23.426  50.419  47.157  1.00  0.00    -0.266 OA
HETATM    4  H   UNL     1      22.689  48.443  49.520  1.00  0.00     0.163 HD
ENDROOT
BRANCH   1   5
HETATM    5  C   UNL     1      21.079  49.289  48.388  1.00  0.00     0.114 C 
HETATM    6  C   UNL     1      20.720  48.132  47.451  1.00  0.00     0.035 C 
BRANCH   5   7
HETATM    7  C   UNL     1      20.163  49.381  49.638  1.00  0.00     0.173 C 
BRANCH   7   8
HETATM    8  O   UNL     1      19.759  48.071  50.063  1.00  0.00    -0.389 OA
HETATM    9  H   UNL     1      19.163  48.198  50.823  1.00  0.00     0.210 HD
ENDBRANCH   7   8
BRANCH   7  10
HETATM   10  C   UNL     1      18.958  50.286  49.468  1.00  0.00    -0.028 A 
HETATM   11  C   UNL     1      19.039  51.630  49.854  1.00  0.00     0.012 A 
HETATM   12  C   UNL     1      17.940  52.480  49.700  1.00  0.00     0.037 A 
HETATM   13  C   UNL     1      16.746  52.011  49.151  1.00  0.00     0.068 A 
HETATM   14  C   UNL     1      16.657  50.675  48.762  1.00  0.00     0.037 A 
HETATM   15  C   UNL     1      17.754  49.819  48.922  1.00  0.00     0.012 A 
BRANCH  13  16
HETATM   16  O   UNL     1      15.755  52.947  49.053  1.00  0.00    -0.356 OA
HETATM   17  C   UNL     1      15.219  53.445  50.273  1.00  0.00     0.210 C 
ENDBRANCH  13  16
ENDBRANCH   7  10
ENDBRANCH   5   7
ENDBRANCH   1   5
BRANCH   2  18
HETATM   18  C   UNL     1      24.881  49.279  48.659  1.00  0.00     0.126 A 
HETATM   19  N   UNL     1      24.889  48.280  49.586  1.00  0.00    -0.224 NA
HETATM   20  C   UNL     1      26.102  47.920  50.086  1.00  0.00     0.151 A 
HETATM   21  C   UNL     1      27.297  48.509  49.671  1.00  0.00     0.052 A 
HETATM   22  C   UNL     1      27.252  49.520  48.713  1.00  0.00     0.006 A 
HETATM   23  C   UNL     1      26.023  49.920  48.199  1.00  0.00     0.037 A 
BRANCH  20  24
HETATM   24  N   UNL     1      26.142  46.905  51.091  1.00  0.00    -0.227 N 
HETATM   25  N   UNL     1      26.505  45.621  50.820  1.00  0.00    -0.179 NA
HETATM   26  C   UNL     1      26.437  45.001  51.999  1.00  0.00     0.141 A 
HETATM   27  C   UNL     1      26.033  45.855  53.037  1.00  0.00     0.040 A 
HETATM   28  C   UNL     1      25.847  47.072  52.428  1.00  0.00     0.122 A 
ENDBRANCH  20  24
ENDBRANCH   2  18
TORSDOF 7
ENDMDL
MODEL 3
REMARK VINA RESULT:      -8.2      3.604     10.186
REMARK  7 active torsions:
REMARK  status: ('A' for Active; 'I' for Inactive)
REMARK    1  A    between atoms: C_2  and  N_3 
REMARK    2  A    between atoms: C_2  and  C_17 
REMARK       I    between atoms: N_3  and  C_4 
REMARK    3  A    between atoms: C_4  and  C_5 
REMARK    4  A    between atoms: C_7  and  N_8 
REMARK    5  A    between atoms: C_17  and  O_18 
REMARK    6  A    between atoms: C_17  and  C_19 
REMARK    7  A    between atoms: C_22  and  O_23 
ROOT
HETATM    1  N   UNL     1      22.899  48.536  49.549  1.00  0.00    -0.349 N 
HETATM    2  C   UNL     1      24.239  48.223  49.607  1.00  0.00     0.270 C 
HETATM    3  O   UNL     1      25.108  48.806  48.970  1.00  0.00    -0.266 OA
HETATM    4  H   UNL     1      22.261  47.897  50.017  1.00  0.00     0.163 HD
ENDROOT
BRANCH   1   5
HETATM    5  C   UNL     1      22.338  49.518  48.618  1.00  0.00     0.114 C 
HETATM    6  C   UNL     1      21.191  48.870  47.836  1.00  0.00     0.035 C 
BRANCH   5   7
HETATM    7  C   UNL     1      21.912  50.787  49.405  1.00  0.00     0.173 C 
BRANCH   7   8
HETATM    8  O   UNL     1      22.353  50.706  50.767  1.00  0.00    -0.389 OA
HETATM    9  H   UNL     1      22.003  49.869  51.122  1.00  0.00     0.210 HD
ENDBRANCH   7   8
BRANCH   7  10
HETATM   10  C   UNL     1      20.429  51.099  49.337  1.00  0.00    -0.028 A 
HETATM   11  C   UNL     1      19.535  50.413  50.169  1.00  0.00     0.012 A 
HETATM   12  C   UNL     1      18.167  50.691  50.123  1.00  0.00     0.037 A 
HETATM   13  C   UNL     1      17.664  51.663  49.257  1.00  0.00     0.068 A 
HETATM   14  C   UNL     1      18.546  52.353  48.426  1.00  0.00     0.037 A 
HETATM   15  C   UNL     1      19.917  52.071  48.465  1.00  0.00     0.012 A 
BRANCH  13  16
HETATM   16  O   UNL     1      16.310  51.838  49.317  1.00  0.00    -0.356 OA
HETATM   17  C   UNL     1      15.641  52.099  48.090  1.00  0.00     0.210 C 
ENDBRANCH  13  16
ENDBRANCH   7  10
ENDBRANCH   5   7
ENDBRANCH   1   5
BRANCH   2  18
HETATM   18  C   UNL     1      24.568  47.081  50.520  1.00  0.00     0.126 A 
HETATM   19  N   UNL     1      25.255  47.395  51.654  1.00  0.00    -0.224 NA
HETATM   20  C   UNL     1      25.574  46.362  52.481  1.00  0.00     0.151 A 
HETATM   21  C   UNL     1      25.208  45.042  52.219  1.00  0.00     0.052 A 
HETATM   22  C   UNL     1      24.496  44.759  51.055  1.00  0.00     0.006 A 
HETATM   23  C   UNL     1      24.173  45.793  50.184  1.00  0.00     0.037 A 
BRANCH  20  24
HETATM   24  N   UNL     1      26.331  46.651  53.658  1.00  0.00    -0.227 N 
HETATM   25  N   UNL     1      27.344  45.849  54.092  1.00  0.00    -0.179 NA
HETATM   26  C   UNL     1      27.804  46.460  55.185  1.00  0.00     0.141 A 
HETATM   27  C   UNL     1      27.110  47.644  55.478  1.00  0.00     0.040 A 
HETATM   28  C   UNL     1      26.167  47.743  54.484  1.00  0.00     0.122 A 
ENDBRANCH  20  24
ENDBRANCH   2  18
TORSDOF 7
ENDMDL
MODEL 4
REMARK VINA RESULT:      -8.0      2.958      8.481
REMARK  7 active torsions:
REMARK  status: ('A' for Active; 'I' for Inactive)
REMARK    1  A    between atoms: C_2  and  N_3 
REMARK    2  A    between atoms: C_2  and  C_17 
REMARK       I    between atoms: N_3  and  C_4 
REMARK    3  A    between atoms: C_4  and  C_5 
REMARK    4  A    between atoms: C_7  and  N_8 
REMARK    5  A    between atoms: C_17  and  O_18 
REMARK    6  A    between atoms: C_17  and  C_19 
REMARK    7  A    between atoms: C_22  and  O_23 
ROOT
HETATM    1  N   UNL     1      26.093  44.263  51.996  1.00  0.00    -0.349 N 
HETATM    2  C   UNL     1      27.396  44.264  52.440  1.00  0.00     0.270 C 
HETATM    3  O   UNL     1      28.298  43.617  51.923  1.00  0.00    -0.266 OA
HETATM    4  H   UNL     1      25.409  44.731  52.586  1.00  0.00     0.163 HD
ENDROOT
BRANCH   1   5
HETATM    5  C   UNL     1      25.603  43.385  50.931  1.00  0.00     0.114 C 
HETATM    6  C   UNL     1      24.157  42.982  51.237  1.00  0.00     0.035 C 
BRANCH   5   7
HETATM    7  C   UNL     1      25.770  44.096  49.560  1.00  0.00     0.173 C 
BRANCH   7   8
HETATM    8  O   UNL     1      27.139  44.047  49.133  1.00  0.00    -0.389 OA
HETATM    9  H   UNL     1      27.681  44.019  49.942  1.00  0.00     0.210 HD
ENDBRANCH   7   8
BRANCH   7  10
HETATM   10  C   UNL     1      25.245  45.518  49.522  1.00  0.00    -0.028 A 
HETATM   11  C   UNL     1      26.115  46.587  49.769  1.00  0.00     0.012 A 
HETATM   12  C   UNL     1      25.649  47.904  49.734  1.00  0.00     0.037 A 
HETATM   13  C   UNL     1      24.312  48.181  49.442  1.00  0.00     0.068 A 
HETATM   14  C   UNL     1      23.439  47.123  49.193  1.00  0.00     0.037 A 
HETATM   15  C   UNL     1      23.902  45.802  49.235  1.00  0.00     0.012 A 
BRANCH  13  16
HETATM   16  O   UNL     1      23.992  49.510  49.435  1.00  0.00    -0.356 OA
HETATM   17  C   UNL     1      22.608  49.837  49.453  1.00  0.00     0.210 C 
ENDBRANCH  13  16
ENDBRANCH   7  10
ENDBRANCH   5   7
ENDBRANCH   1   5
BRANCH   2  18
HETATM   18  C   UNL     1      27.639  45.127  53.642  1.00  0.00     0.126 A 
HETATM   19  N   UNL     1      28.637  44.727  54.479  1.00  0.00    -0.224 NA
HETATM   20  C   UNL     1      28.854  45.495  55.582  1.00  0.00     0.151 A 
HETATM   21  C   UNL     1      28.123  46.651  55.854  1.00  0.00     0.052 A 
HETATM   22  C   UNL     1      27.117  47.036  54.970  1.00  0.00     0.006 A 
HETATM   23  C   UNL     1      26.862  46.260  53.845  1.00  0.00     0.037 A 
BRANCH  20  24
HETATM   24  N   UNL     1      29.865  45.080  56.502  1.00  0.00    -0.227 N 
HETATM   25  N   UNL     1      30.729  44.062  56.231  1.00  0.00    -0.179 NA
HETATM   26  C   UNL     1      31.515  43.999  57.307  1.00  0.00     0.141 A 
HETATM   27  C   UNL     1      31.181  44.955  58.279  1.00  0.00     0.040 A 
HETATM   28  C   UNL     1      30.116  45.634  57.740  1.00  0.00     0.122 A 
ENDBRANCH  20  24
ENDBRANCH   2  18
TORSDOF 7
ENDMDL
MODEL 5
REMARK VINA RESULT:      -8.0      2.779      9.473
REMARK  7 active torsions:
REMARK  status: ('A' for Active; 'I' for Inactive)
REMARK    1  A    between atoms: C_2  and  N_3 
REMARK    2  A    between atoms: C_2  and  C_17 
REMARK       I    between atoms: N_3  and  C_4 
REMARK    3  A    between atoms: C_4  and  C_5 
REMARK    4  A    between atoms: C_7  and  N_8 
REMARK    5  A    between atoms: C_17  and  O_18 
REMARK    6  A    between atoms: C_17  and  C_19 
REMARK    7  A    between atoms: C_22  and  O_23 
ROOT
HETATM    1  N   UNL     1      24.627  47.368  49.664  1.00  0.00    -0.349 N 
HETATM    2  C   UNL     1      24.969  46.890  50.909  1.00  0.00     0.270 C 
HETATM    3  O   UNL     1      25.179  47.603  51.883  1.00  0.00    -0.266 OA
HETATM    4  H   UNL     1      24.610  46.691  48.904  1.00  0.00     0.163 HD
ENDROOT
BRANCH   1   5
HETATM    5  C   UNL     1      24.602  48.792  49.322  1.00  0.00     0.114 C 
HETATM    6  C   UNL     1      25.990  49.216  48.834  1.00  0.00     0.035 C 
BRANCH   5   7
HETATM    7  C   UNL     1      23.474  49.053  48.288  1.00  0.00     0.173 C 
BRANCH   7   8
HETATM    8  O   UNL     1      23.877  50.058  47.347  1.00  0.00    -0.389 OA
HETATM    9  H   UNL     1      24.838  49.953  47.224  1.00  0.00     0.210 HD
ENDBRANCH   7   8
BRANCH   7  10
HETATM   10  C   UNL     1      22.129  49.397  48.899  1.00  0.00    -0.028 A 
HETATM   11  C   UNL     1      21.942  50.643  49.513  1.00  0.00     0.012 A 
HETATM   12  C   UNL     1      20.709  50.978  50.077  1.00  0.00     0.037 A 
HETATM   13  C   UNL     1      19.637  50.085  50.032  1.00  0.00     0.068 A 
HETATM   14  C   UNL     1      19.812  48.844  49.422  1.00  0.00     0.037 A 
HETATM   15  C   UNL     1      21.050  48.503  48.862  1.00  0.00     0.012 A 
BRANCH  13  16
HETATM   16  O   UNL     1      18.488  50.541  50.617  1.00  0.00    -0.356 OA
HETATM   17  C   UNL     1      17.520  51.128  49.758  1.00  0.00     0.210 C 
ENDBRANCH  13  16
ENDBRANCH   7  10
ENDBRANCH   5   7
ENDBRANCH   1   5
BRANCH   2  18
HETATM   18  C   UNL     1      25.081  45.398  50.990  1.00  0.00     0.126 A 
HETATM   19  N   UNL     1      26.247  44.907  51.497  1.00  0.00    -0.224 NA
HETATM   20  C   UNL     1      26.365  43.553  51.559  1.00  0.00     0.151 A 
HETATM   21  C   UNL     1      25.350  42.686  51.153  1.00  0.00     0.052 A 
HETATM   22  C   UNL     1      24.167  43.223  50.650  1.00  0.00     0.006 A 
HETATM   23  C   UNL     1      24.027  44.603  50.558  1.00  0.00     0.037 A 
BRANCH  20  24
HETATM   24  N   UNL     1      27.591  43.005  52.046  1.00  0.00    -0.227 N 
HETATM   25  N   UNL     1      27.830  41.665  52.085  1.00  0.00    -0.179 NA
HETATM   26  C   UNL     1      29.066  41.563  52.574  1.00  0.00     0.141 A 
HETATM   27  C   UNL     1      29.641  42.810  52.860  1.00  0.00     0.040 A 
HETATM   28  C   UNL     1      28.672  43.721  52.516  1.00  0.00     0.122 A 
ENDBRANCH  20  24
ENDBRANCH   2  18
TORSDOF 7
ENDMDL
MODEL 6
REMARK VINA RESULT:      -7.9      4.061      7.363
REMARK  7 active torsions:
REMARK  status: ('A' for Active; 'I' for Inactive)
REMARK    1  A    between atoms: C_2  and  N_3 
REMARK    2  A    between atoms: C_2  and  C_17 
REMARK       I    between atoms: N_3  and  C_4 
REMARK    3  A    between atoms: C_4  and  C_5 
REMARK    4  A    between atoms: C_7  and  N_8 
REMARK    5  A    between atoms: C_17  and  O_18 
REMARK    6  A    between atoms: C_17  and  C_19 
REMARK    7  A    between atoms: C_22  and  O_23 
ROOT
HETATM    1  N   UNL     1      25.958  45.045  51.846  1.00  0.00    -0.349 N 
HETATM    2  C   UNL     1      25.790  46.314  52.352  1.00  0.00     0.270 C 
HETATM    3  O   UNL     1      25.094  47.175  51.827  1.00  0.00    -0.266 OA
HETATM    4  H   UNL     1      26.664  44.465  52.294  1.00  0.00     0.163 HD
ENDROOT
BRANCH   1   5
HETATM    5  C   UNL     1      25.428  44.613  50.550  1.00  0.00     0.114 C 
HETATM    6  C   UNL     1      26.499  44.820  49.475  1.00  0.00     0.035 C 
BRANCH   5   7
HETATM    7  C   UNL     1      24.934  43.145  50.660  1.00  0.00     0.173 C 
BRANCH   7   8
HETATM    8  O   UNL     1      24.140  42.968  51.841  1.00  0.00    -0.389 OA
HETATM    9  H   UNL     1      24.709  42.523  52.494  1.00  0.00     0.210 HD
ENDBRANCH   7   8
BRANCH   7  10
HETATM   10  C   UNL     1      26.037  42.105  50.592  1.00  0.00    -0.028 A 
HETATM   11  C   UNL     1      26.069  41.194  49.529  1.00  0.00     0.012 A 
HETATM   12  C   UNL     1      27.080  40.233  49.449  1.00  0.00     0.037 A 
HETATM   13  C   UNL     1      28.082  40.168  50.418  1.00  0.00     0.068 A 
HETATM   14  C   UNL     1      28.060  41.072  51.479  1.00  0.00     0.037 A 
HETATM   15  C   UNL     1      27.044  42.032  51.566  1.00  0.00     0.012 A 
BRANCH  13  16
HETATM   16  O   UNL     1      29.010  39.185  50.216  1.00  0.00    -0.356 OA
HETATM   17  C   UNL     1      28.823  38.348  49.082  1.00  0.00     0.210 C 
ENDBRANCH  13  16
ENDBRANCH   7  10
ENDBRANCH   5   7
ENDBRANCH   1   5
BRANCH   2  18
HETATM   18  C   UNL     1      26.548  46.581  53.616  1.00  0.00     0.126 A 
HETATM   19  N   UNL     1      27.577  45.731  53.894  1.00  0.00    -0.224 NA
HETATM   20  C   UNL     1      28.261  45.956  55.049  1.00  0.00     0.151 A 
HETATM   21  C   UNL     1      27.962  47.010  55.912  1.00  0.00     0.052 A 
HETATM   22  C   UNL     1      26.911  47.867  55.591  1.00  0.00     0.006 A 
HETATM   23  C   UNL     1      26.184  47.649  54.426  1.00  0.00     0.037 A 
BRANCH  20  24
HETATM   24  N   UNL     1      29.317  45.058  55.391  1.00  0.00    -0.227 N 
HETATM   25  N   UNL     1      30.231  45.339  56.362  1.00  0.00    -0.179 NA
HETATM   26  C   UNL     1      31.022  44.265  56.393  1.00  0.00     0.141 A 
HETATM   27  C   UNL     1      30.645  43.287  55.459  1.00  0.00     0.040 A 
HETATM   28  C   UNL     1      29.550  43.821  54.826  1.00  0.00     0.122 A 
ENDBRANCH  20  24
ENDBRANCH   2  18
TORSDOF 7
ENDMDL
MODEL 7
REMARK VINA RESULT:      -7.8      3.576      7.042
REMARK  7 active torsions:
REMARK  status: ('A' for Active; 'I' for Inactive)
REMARK    1  A    between atoms: C_2  and  N_3 
REMARK    2  A    between atoms: C_2  and  C_17 
REMARK       I    between atoms: N_3  and  C_4 
REMARK    3  A    between atoms: C_4  and  C_5 
REMARK    4  A    between atoms: C_7  and  N_8 
REMARK    5  A    between atoms: C_17  and  O_18 
REMARK    6  A    between atoms: C_17  and  C_19 
REMARK    7  A    between atoms: C_22  and  O_23 
ROOT
HETATM    1  N   UNL     1      26.229  44.496  51.662  1.00  0.00    -0.349 N 
HETATM    2  C   UNL     1      26.812  44.226  50.445  1.00  0.00     0.270 C 
HETATM    3  O   UNL     1      27.614  44.967  49.889  1.00  0.00    -0.266 OA
HETATM    4  H   UNL     1      25.480  43.873  51.957  1.00  0.00     0.163 HD
ENDROOT
BRANCH   1   5
HETATM    5  C   UNL     1      26.397  45.763  52.377  1.00  0.00     0.114 C 
HETATM    6  C   UNL     1      25.317  46.747  51.917  1.00  0.00     0.035 C 
BRANCH   5   7
HETATM    7  C   UNL     1      26.383  45.497  53.907  1.00  0.00     0.173 C 
BRANCH   7   8
HETATM    8  O   UNL     1      25.813  46.612  54.606  1.00  0.00    -0.389 OA
HETATM    9  H   UNL     1      24.995  46.848  54.131  1.00  0.00     0.210 HD
ENDBRANCH   7   8
BRANCH   7  10
HETATM   10  C   UNL     1      27.733  45.128  54.492  1.00  0.00    -0.028 A 
HETATM   11  C   UNL     1      28.380  46.016  55.361  1.00  0.00     0.012 A 
HETATM   12  C   UNL     1      29.621  45.690  55.913  1.00  0.00     0.037 A 
HETATM   13  C   UNL     1      30.237  44.472  55.619  1.00  0.00     0.068 A 
HETATM   14  C   UNL     1      29.600  43.582  54.756  1.00  0.00     0.037 A 
HETATM   15  C   UNL     1      28.358  43.908  54.196  1.00  0.00     0.012 A 
BRANCH  13  16
HETATM   16  O   UNL     1      31.444  44.280  56.229  1.00  0.00    -0.356 OA
HETATM   17  C   UNL     1      31.503  43.278  57.236  1.00  0.00     0.210 C 
ENDBRANCH  13  16
ENDBRANCH   7  10
ENDBRANCH   5   7
ENDBRANCH   1   5
BRANCH   2  18
HETATM   18  C   UNL     1      26.378  42.933  49.824  1.00  0.00     0.126 A 
HETATM   19  N   UNL     1      27.306  41.935  49.797  1.00  0.00    -0.224 NA
HETATM   20  C   UNL     1      26.927  40.762  49.220  1.00  0.00     0.151 A 
HETATM   21  C   UNL     1      25.651  40.555  48.695  1.00  0.00     0.052 A 
HETATM   22  C   UNL     1      24.724  41.594  48.750  1.00  0.00     0.006 A 
HETATM   23  C   UNL     1      25.091  42.809  49.318  1.00  0.00     0.037 A 
BRANCH  20  24
HETATM   24  N   UNL     1      27.890  39.710  49.137  1.00  0.00    -0.227 N 
HETATM   25  N   UNL     1      28.633  39.313  50.207  1.00  0.00    -0.179 NA
HETATM   26  C   UNL     1      29.382  38.314  49.738  1.00  0.00     0.141 A 
HETATM   27  C   UNL     1      29.146  38.051  48.380  1.00  0.00     0.040 A 
HETATM   28  C   UNL     1      28.186  38.964  48.016  1.00  0.00     0.122 A 
ENDBRANCH  20  24
ENDBRANCH   2  18
TORSDOF 7
ENDMDL
MODEL 8
REMARK VINA RESULT:      -7.7      1.935      2.775
REMARK  7 active torsions:
REMARK  status: ('A' for Active; 'I' for Inactive)
REMARK    1  A    between atoms: C_2  and  N_3 
REMARK    2  A    between atoms: C_2  and  C_17 
REMARK       I    between atoms: N_3  and  C_4 
REMARK    3  A    between atoms: C_4  and  C_5 
REMARK    4  A    between atoms: C_7  and  N_8 
REMARK    5  A    between atoms: C_17  and  O_18 
REMARK    6  A    between atoms: C_17  and  C_19 
REMARK    7  A    between atoms: C_22  and  O_23 
ROOT
HETATM    1  N   UNL     1      25.419  46.484  52.174  1.00  0.00    -0.349 N 
HETATM    2  C   UNL     1      25.648  46.008  50.903  1.00  0.00     0.270 C 
HETATM    3  O   UNL     1      26.682  45.449  50.556  1.00  0.00    -0.266 OA
HETATM    4  H   UNL     1      24.582  47.048  52.306  1.00  0.00     0.163 HD
ENDROOT
BRANCH   1   5
HETATM    5  C   UNL     1      26.435  46.497  53.229  1.00  0.00     0.114 C 
HETATM    6  C   UNL     1      26.048  47.534  54.287  1.00  0.00     0.035 C 
BRANCH   5   7
HETATM    7  C   UNL     1      26.603  45.063  53.799  1.00  0.00     0.173 C 
BRANCH   7   8
HETATM    8  O   UNL     1      25.524  44.746  54.690  1.00  0.00    -0.389 OA
HETATM    9  H   UNL     1      24.959  45.539  54.733  1.00  0.00     0.210 HD
ENDBRANCH   7   8
BRANCH   7  10
HETATM   10  C   UNL     1      27.942  44.804  54.462  1.00  0.00    -0.028 A 
HETATM   11  C   UNL     1      28.452  45.728  55.383  1.00  0.00     0.012 A 
HETATM   12  C   UNL     1      29.682  45.503  56.007  1.00  0.00     0.037 A 
HETATM   13  C   UNL     1      30.421  44.351  55.734  1.00  0.00     0.068 A 
HETATM   14  C   UNL     1      29.921  43.424  54.820  1.00  0.00     0.037 A 
HETATM   15  C   UNL     1      28.692  43.650  54.188  1.00  0.00     0.012 A 
BRANCH  13  16
HETATM   16  O   UNL     1      31.602  44.254  56.415  1.00  0.00    -0.356 OA
HETATM   17  C   UNL     1      31.797  43.084  57.200  1.00  0.00     0.210 C 
ENDBRANCH  13  16
ENDBRANCH   7  10
ENDBRANCH   5   7
ENDBRANCH   1   5
BRANCH   2  18
HETATM   18  C   UNL     1      24.520  46.237  49.943  1.00  0.00     0.126 A 
HETATM   19  N   UNL     1      24.083  47.522  49.822  1.00  0.00    -0.224 NA
HETATM   20  C   UNL     1      23.047  47.737  48.966  1.00  0.00     0.151 A 
HETATM   21  C   UNL     1      22.460  46.717  48.218  1.00  0.00     0.052 A 
HETATM   22  C   UNL     1      22.940  45.417  48.358  1.00  0.00     0.006 A 
HETATM   23  C   UNL     1      23.985  45.166  49.241  1.00  0.00     0.037 A 
BRANCH  20  24
HETATM   24  N   UNL     1      22.537  49.066  48.847  1.00  0.00    -0.227 N 
HETATM   25  N   UNL     1      23.077  50.120  49.520  1.00  0.00    -0.179 NA
HETATM   26  C   UNL     1      22.348  51.168  49.134  1.00  0.00     0.141 A 
HETATM   27  C   UNL     1      21.338  50.820  48.224  1.00  0.00     0.040 A 
HETATM   28  C   UNL     1      21.478  49.464  48.058  1.00  0.00     0.122 A 
ENDBRANCH  20  24
ENDBRANCH   2  18
TORSDOF 7
ENDMDL
MODEL 9
REMARK VINA RESULT:      -7.7      4.081      8.395
REMARK  7 active torsions:
REMARK  status: ('A' for Active; 'I' for Inactive)
REMARK    1  A    between atoms: C_2  and  N_3 
REMARK    2  A    between atoms: C_2  and  C_17 
REMARK       I    between atoms: N_3  and  C_4 
REMARK    3  A    between atoms: C_4  and  C_5 
REMARK    4  A    between atoms: C_7  and  N_8 
REMARK    5  A    between atoms: C_17  and  O_18 
REMARK    6  A    between atoms: C_17  and  C_19 
REMARK    7  A    between atoms: C_22  and  O_23 
ROOT
HETATM    1  N   UNL     1      26.725  43.954  51.628  1.00  0.00    -0.349 N 
HETATM    2  C   UNL     1      27.134  44.632  52.754  1.00  0.00     0.270 C 
HETATM    3  O   UNL     1      26.553  45.607  53.216  1.00  0.00    -0.266 OA
HETATM    4  H   UNL     1      27.360  43.247  51.266  1.00  0.00     0.163 HD
ENDROOT
BRANCH   1   5
HETATM    5  C   UNL     1      25.621  44.396  50.773  1.00  0.00     0.114 C 
HETATM    6  C   UNL     1      26.190  45.162  49.575  1.00  0.00     0.035 C 
BRANCH   5   7
HETATM    7  C   UNL     1      24.758  43.170  50.371  1.00  0.00     0.173 C 
BRANCH   7   8
HETATM    8  O   UNL     1      23.889  42.792  51.449  1.00  0.00    -0.389 OA
HETATM    9  H   UNL     1      23.521  43.619  51.810  1.00  0.00     0.210 HD
ENDBRANCH   7   8
BRANCH   7  10
HETATM   10  C   UNL     1      25.553  41.977  49.878  1.00  0.00    -0.028 A 
HETATM   11  C   UNL     1      25.721  41.773  48.503  1.00  0.00     0.012 A 
HETATM   12  C   UNL     1      26.455  40.682  48.031  1.00  0.00     0.037 A 
HETATM   13  C   UNL     1      27.044  39.780  48.918  1.00  0.00     0.068 A 
HETATM   14  C   UNL     1      26.884  39.975  50.289  1.00  0.00     0.037 A 
HETATM   15  C   UNL     1      26.143  41.064  50.765  1.00  0.00     0.012 A 
BRANCH  13  16
HETATM   16  O   UNL     1      27.736  38.762  48.324  1.00  0.00    -0.356 OA
HETATM   17  C   UNL     1      29.054  38.519  48.798  1.00  0.00     0.210 C 
ENDBRANCH  13  16
ENDBRANCH   7  10
ENDBRANCH   5   7
ENDBRANCH   1   5
BRANCH   2  18
HETATM   18  C   UNL     1      28.379  44.088  53.386  1.00  0.00     0.126 A 
HETATM   19  N   UNL     1      28.710  44.601  54.605  1.00  0.00    -0.224 NA
HETATM   20  C   UNL     1      29.848  44.126  55.179  1.00  0.00     0.151 A 
HETATM   21  C   UNL     1      30.643  43.145  54.585  1.00  0.00     0.052 A 
HETATM   22  C   UNL     1      30.268  42.635  53.344  1.00  0.00     0.006 A 
HETATM   23  C   UNL     1      29.119  43.117  52.726  1.00  0.00     0.037 A 
BRANCH  20  24
HETATM   24  N   UNL     1      30.247  44.673  56.437  1.00  0.00    -0.227 N 
HETATM   25  N   UNL     1      31.177  44.076  57.234  1.00  0.00    -0.179 NA
HETATM   26  C   UNL     1      31.283  44.889  58.286  1.00  0.00     0.141 A 
HETATM   27  C   UNL     1      30.439  46.006  58.195  1.00  0.00     0.040 A 
HETATM   28  C   UNL     1      29.781  45.843  57.000  1.00  0.00     0.122 A 
ENDBRANCH  20  24
ENDBRANCH   2  18
TORSDOF 7
ENDMDL
MODEL 10
REMARK VINA RESULT:      -7.6      3.990     10.369
REMARK  7 active torsions:
REMARK  status: ('A' for Active; 'I' for Inactive)
REMARK    1  A    between atoms: C_2  and  N_3 
REMARK    2  A    between atoms: C_2  and  C_17 
REMARK       I    between atoms: N_3  and  C_4 
REMARK    3  A    between atoms: C_4  and  C_5 
REMARK    4  A    between atoms: C_7  and  N_8 
REMARK    5  A    between atoms: C_17  and  O_18 
REMARK    6  A    between atoms: C_17  and  C_19 
REMARK    7  A    between atoms: C_22  and  O_23 
ROOT
HETATM    1  N   UNL     1      22.464  47.595  49.399  1.00  0.00    -0.349 N 
HETATM    2  C   UNL     1      23.691  48.142  49.701  1.00  0.00     0.270 C 
HETATM    3  O   UNL     1      24.019  49.289  49.420  1.00  0.00    -0.266 OA
HETATM    4  H   UNL     1      22.358  46.596  49.561  1.00  0.00     0.163 HD
ENDROOT
BRANCH   1   5
HETATM    5  C   UNL     1      21.452  48.276  48.589  1.00  0.00     0.114 C 
HETATM    6  C   UNL     1      21.171  47.446  47.333  1.00  0.00     0.035 C 
BRANCH   5   7
HETATM    7  C   UNL     1      20.190  48.537  49.455  1.00  0.00     0.173 C 
BRANCH   7   8
HETATM    8  O   UNL     1      19.549  47.300  49.795  1.00  0.00    -0.389 OA
HETATM    9  H   UNL     1      19.065  47.011  49.000  1.00  0.00     0.210 HD
ENDBRANCH   7   8
BRANCH   7  10
HETATM   10  C   UNL     1      19.198  49.507  48.842  1.00  0.00    -0.028 A 
HETATM   11  C   UNL     1      19.652  50.716  48.299  1.00  0.00     0.012 A 
HETATM   12  C   UNL     1      18.752  51.618  47.727  1.00  0.00     0.037 A 
HETATM   13  C   UNL     1      17.387  51.331  47.675  1.00  0.00     0.068 A 
HETATM   14  C   UNL     1      16.926  50.129  48.210  1.00  0.00     0.037 A 
HETATM   15  C   UNL     1      17.825  49.226  48.791  1.00  0.00     0.012 A 
BRANCH  13  16
HETATM   16  O   UNL     1      16.621  52.297  47.084  1.00  0.00    -0.356 OA
HETATM   17  C   UNL     1      15.671  51.863  46.119  1.00  0.00     0.210 C 
ENDBRANCH  13  16
ENDBRANCH   7  10
ENDBRANCH   5   7
ENDBRANCH   1   5
BRANCH   2  18
HETATM   18  C   UNL     1      24.628  47.209  50.406  1.00  0.00     0.126 A 
HETATM   19  N   UNL     1      25.013  47.576  51.661  1.00  0.00    -0.224 NA
HETATM   20  C   UNL     1      25.878  46.744  52.303  1.00  0.00     0.151 A 
HETATM   21  C   UNL     1      26.343  45.556  51.740  1.00  0.00     0.052 A 
HETATM   22  C   UNL     1      25.919  45.206  50.460  1.00  0.00     0.006 A 
HETATM   23  C   UNL     1      25.051  46.048  49.774  1.00  0.00     0.037 A 
BRANCH  20  24
HETATM   24  N   UNL     1      26.335  47.121  53.603  1.00  0.00    -0.227 N 
HETATM   25  N   UNL     1      25.721  48.086  54.343  1.00  0.00    -0.179 NA
HETATM   26  C   UNL     1      26.420  48.127  55.479  1.00  0.00     0.141 A 
HETATM   27  C   UNL     1      27.482  47.209  55.495  1.00  0.00     0.040 A 
HETATM   28  C   UNL     1      27.408  46.578  54.278  1.00  0.00     0.122 A 
ENDBRANCH  20  24
ENDBRANCH   2  18
TORSDOF 7
ENDMDL
