MODEL 1
REMARK VINA RESULT:      -9.7      0.000      0.000
REMARK  6 active torsions:
REMARK  status: ('A' for Active; 'I' for Inactive)
REMARK    1  A    between atoms: C_5  and  C_6 
REMARK    2  A    between atoms: C_6  and  S_7 
REMARK    3  A    between atoms: S_7  and  C_8 
REMARK    4  A    between atoms: C_10  and  N_11 
REMARK       I    between atoms: N_11  and  C_12 
REMARK    5  A    between atoms: C_12  and  C_13 
REMARK    6  A    between atoms: C_14  and  C_15 
ROOT
HETATM    1  C   UNL     1      26.140  45.682  51.311  1.00  0.00     0.160 A 
HETATM    2  S   UNL     1      25.348  45.790  49.799  1.00  0.00    -0.022 SA
HETATM    3  C   UNL     1      24.711  47.283  50.315  1.00  0.00     0.197 A 
HETATM    4  N   UNL     1      25.065  47.630  51.535  1.00  0.00    -0.122 NA
HETATM    5  N   UNL     1      25.898  46.693  52.119  1.00  0.00    -0.133 NA
ENDROOT
BRANCH   3   6
HETATM    6  N   UNL     1      23.920  48.085  49.527  1.00  0.00    -0.301 N 
HETATM    7  C   UNL     1      24.338  49.167  48.793  1.00  0.00     0.247 C 
HETATM    8  O   UNL     1      25.486  49.566  48.648  1.00  0.00    -0.268 OA
HETATM    9  H   UNL     1      22.945  47.822  49.544  1.00  0.00     0.171 HD
BRANCH   7  10
HETATM   10  C   UNL     1      23.198  49.879  48.145  1.00  0.00     0.075 C 
HETATM   11  C   UNL     1      21.994  49.853  48.738  1.00  0.00     0.017 C 
BRANCH  11  12
HETATM   12  C   UNL     1      20.770  50.476  48.209  1.00  0.00    -0.033 A 
HETATM   13  C   UNL     1      19.983  49.871  47.218  1.00  0.00     0.051 A 
HETATM   14  C   UNL     1      18.817  50.503  46.836  1.00  0.00     0.105 A 
HETATM   15  C   UNL     1      18.412  51.689  47.400  1.00  0.00     0.105 A 
HETATM   16  O   UNL     1      17.939  50.048  45.902  1.00  0.00    -0.323 OA
HETATM   17  O   UNL     1      17.232  52.131  46.892  1.00  0.00    -0.323 OA
HETATM   18  C   UNL     1      19.152  52.312  48.378  1.00  0.00     0.040 A 
HETATM   19  C   UNL     1      16.929  51.078  45.954  1.00  0.00     0.352 A 
HETATM   20  C   UNL     1      20.340  51.694  48.786  1.00  0.00     0.014 A 
ENDBRANCH  11  12
ENDBRANCH   7  10
ENDBRANCH   3   6
BRANCH   1  21
HETATM   21  S   UNL     1      27.192  44.351  51.721  1.00  0.00    -0.096 SA
BRANCH  21  22
HETATM   22  C   UNL     1      26.886  44.207  53.507  1.00  0.00     0.123 C 
BRANCH  22  23
HETATM   23  C   UNL     1      28.187  44.206  54.278  1.00  0.00    -0.005 A 
HETATM   24  C   UNL     1      28.987  43.047  54.362  1.00  0.00     0.042 A 
HETATM   25  C   UNL     1      30.174  43.036  55.103  1.00  0.00     0.024 A 
HETATM   26 CL   UNL     1      28.552  41.569  53.572  1.00  0.00    -0.084 Cl
HETATM   27  C   UNL     1      30.588  44.177  55.783  1.00  0.00     0.003 A 
HETATM   28  C   UNL     1      29.812  45.330  55.725  1.00  0.00     0.024 A 
HETATM   29  C   UNL     1      28.623  45.346  54.983  1.00  0.00     0.042 A 
HETATM   30 CL   UNL     1      27.724  46.824  54.989  1.00  0.00    -0.084 Cl
ENDBRANCH  22  23
ENDBRANCH  21  22
ENDBRANCH   1  21
TORSDOF 6
ENDMDL
MODEL 2
REMARK VINA RESULT:      -9.6      0.699      1.849
REMARK  6 active torsions:
REMARK  status: ('A' for Active; 'I' for Inactive)
REMARK    1  A    between atoms: C_5  and  C_6 
REMARK    2  A    between atoms: C_6  and  S_7 
REMARK    3  A    between atoms: S_7  and  C_8 
REMARK    4  A    between atoms: C_10  and  N_11 
REMARK       I    between atoms: N_11  and  C_12 
REMARK    5  A    between atoms: C_12  and  C_13 
REMARK    6  A    between atoms: C_14  and  C_15 
ROOT
HETATM    1  C   UNL     1      26.198  45.560  51.522  1.00  0.00     0.160 A 
HETATM    2  S   UNL     1      25.080  45.424  50.234  1.00  0.00    -0.022 SA
HETATM    3  C   UNL     1      24.546  46.994  50.622  1.00  0.00     0.197 A 
HETATM    4  N   UNL     1      25.161  47.536  51.652  1.00  0.00    -0.122 NA
HETATM    5  N   UNL     1      26.124  46.697  52.181  1.00  0.00    -0.133 NA
ENDROOT
BRANCH   3   6
HETATM    6  N   UNL     1      23.579  47.665  49.911  1.00  0.00    -0.301 N 
HETATM    7  C   UNL     1      23.743  48.850  49.239  1.00  0.00     0.247 C 
HETATM    8  O   UNL     1      24.781  49.481  49.088  1.00  0.00    -0.268 OA
HETATM    9  H   UNL     1      22.678  47.210  49.938  1.00  0.00     0.171 HD
BRANCH   7  10
HETATM   10  C   UNL     1      22.458  49.355  48.672  1.00  0.00     0.075 C 
HETATM   11  C   UNL     1      21.801  50.331  49.318  1.00  0.00     0.017 C 
BRANCH  11  12
HETATM   12  C   UNL     1      20.512  50.909  48.905  1.00  0.00    -0.033 A 
HETATM   13  C   UNL     1      20.002  50.765  47.607  1.00  0.00     0.051 A 
HETATM   14  C   UNL     1      18.752  51.285  47.336  1.00  0.00     0.105 A 
HETATM   15  C   UNL     1      18.006  51.925  48.296  1.00  0.00     0.105 A 
HETATM   16  O   UNL     1      18.111  51.222  46.138  1.00  0.00    -0.323 OA
HETATM   17  O   UNL     1      16.804  52.348  47.824  1.00  0.00    -0.323 OA
HETATM   18  C   UNL     1      18.467  52.083  49.582  1.00  0.00     0.040 A 
HETATM   19  C   UNL     1      16.870  51.885  46.459  1.00  0.00     0.352 A 
HETATM   20  C   UNL     1      19.731  51.564  49.886  1.00  0.00     0.014 A 
ENDBRANCH  11  12
ENDBRANCH   7  10
ENDBRANCH   3   6
BRANCH   1  21
HETATM   21  S   UNL     1      27.344  44.298  51.900  1.00  0.00    -0.096 SA
BRANCH  21  22
HETATM   22  C   UNL     1      27.033  44.072  53.677  1.00  0.00     0.123 C 
BRANCH  22  23
HETATM   23  C   UNL     1      28.327  44.111  54.459  1.00  0.00    -0.005 A 
HETATM   24  C   UNL     1      28.724  45.268  55.159  1.00  0.00     0.042 A 
HETATM   25  C   UNL     1      29.937  45.316  55.856  1.00  0.00     0.024 A 
HETATM   26 CL   UNL     1      27.753  46.701  55.196  1.00  0.00    -0.084 Cl
HETATM   27  C   UNL     1      30.786  44.214  55.863  1.00  0.00     0.003 A 
HETATM   28  C   UNL     1      30.423  43.063  55.171  1.00  0.00     0.024 A 
HETATM   29  C   UNL     1      29.209  43.011  54.474  1.00  0.00     0.042 A 
HETATM   30 CL   UNL     1      28.859  41.539  53.633  1.00  0.00    -0.084 Cl
ENDBRANCH  22  23
ENDBRANCH  21  22
ENDBRANCH   1  21
TORSDOF 6
ENDMDL
MODEL 3
REMARK VINA RESULT:      -9.5      4.487     12.059
REMARK  6 active torsions:
REMARK  status: ('A' for Active; 'I' for Inactive)
REMARK    1  A    between atoms: C_5  and  C_6 
REMARK    2  A    between atoms: C_6  and  S_7 
REMARK    3  A    between atoms: S_7  and  C_8 
REMARK    4  A    between atoms: C_10  and  N_11 
REMARK       I    between atoms: N_11  and  C_12 
REMARK    5  A    between atoms: C_12  and  C_13 
REMARK    6  A    between atoms: C_14  and  C_15 
ROOT
HETATM    1  C   UNL     1      23.198  47.547  49.091  1.00  0.00     0.160 A 
HETATM    2  S   UNL     1      23.857  45.987  49.325  1.00  0.00    -0.022 SA
HETATM    3  C   UNL     1      24.905  46.676  50.478  1.00  0.00     0.197 A 
HETATM    4  N   UNL     1      24.761  47.975  50.631  1.00  0.00    -0.122 NA
HETATM    5  N   UNL     1      23.765  48.486  49.818  1.00  0.00    -0.133 NA
ENDROOT
BRANCH   3   6
HETATM    6  N   UNL     1      25.808  45.948  51.216  1.00  0.00    -0.301 N 
HETATM    7  C   UNL     1      25.506  44.977  52.137  1.00  0.00     0.247 C 
HETATM    8  O   UNL     1      24.398  44.535  52.413  1.00  0.00    -0.268 OA
HETATM    9  H   UNL     1      26.768  46.209  51.041  1.00  0.00     0.171 HD
BRANCH   7  10
HETATM   10  C   UNL     1      26.722  44.470  52.838  1.00  0.00     0.075 C 
HETATM   11  C   UNL     1      27.232  45.184  53.855  1.00  0.00     0.017 C 
BRANCH  11  12
HETATM   12  C   UNL     1      28.440  44.836  54.619  1.00  0.00    -0.033 A 
HETATM   13  C   UNL     1      28.808  45.505  55.795  1.00  0.00     0.051 A 
HETATM   14  C   UNL     1      29.922  45.060  56.477  1.00  0.00     0.105 A 
HETATM   15  C   UNL     1      30.664  43.988  56.041  1.00  0.00     0.105 A 
HETATM   16  O   UNL     1      30.407  45.589  57.633  1.00  0.00    -0.323 OA
HETATM   17  O   UNL     1      31.708  43.709  56.864  1.00  0.00    -0.323 OA
HETATM   18  C   UNL     1      30.334  43.301  54.896  1.00  0.00     0.040 A 
HETATM   19  C   UNL     1      31.530  44.717  57.881  1.00  0.00     0.352 A 
HETATM   20  C   UNL     1      29.207  43.730  54.184  1.00  0.00     0.014 A 
ENDBRANCH  11  12
ENDBRANCH   7  10
ENDBRANCH   3   6
BRANCH   1  21
HETATM   21  S   UNL     1      21.873  47.845  47.994  1.00  0.00    -0.096 SA
BRANCH  21  22
HETATM   22  C   UNL     1      20.569  48.348  49.157  1.00  0.00     0.123 C 
BRANCH  22  23
HETATM   23  C   UNL     1      19.906  49.628  48.702  1.00  0.00    -0.005 A 
HETATM   24  C   UNL     1      20.406  50.888  49.090  1.00  0.00     0.042 A 
HETATM   25  C   UNL     1      19.773  52.074  48.696  1.00  0.00     0.024 A 
HETATM   26 CL   UNL     1      21.816  51.055  50.080  1.00  0.00    -0.084 Cl
HETATM   27  C   UNL     1      18.623  52.030  47.914  1.00  0.00     0.003 A 
HETATM   28  C   UNL     1      18.104  50.798  47.528  1.00  0.00     0.024 A 
HETATM   29  C   UNL     1      18.735  49.610  47.918  1.00  0.00     0.042 A 
HETATM   30 CL   UNL     1      17.999  48.133  47.397  1.00  0.00    -0.084 Cl
ENDBRANCH  22  23
ENDBRANCH  21  22
ENDBRANCH   1  21
TORSDOF 6
ENDMDL
MODEL 4
REMARK VINA RESULT:      -9.3      1.309      2.302
REMARK  6 active torsions:
REMARK  status: ('A' for Active; 'I' for Inactive)
REMARK    1  A    between atoms: C_5  and  C_6 
REMARK    2  A    between atoms: C_6  and  S_7 
REMARK    3  A    between atoms: S_7  and  C_8 
REMARK    4  A    between atoms: C_10  and  N_11 
REMARK       I    between atoms: N_11  and  C_12 
REMARK    5  A    between atoms: C_12  and  C_13 
REMARK    6  A    between atoms: C_14  and  C_15 
ROOT
HETATM    1  C   UNL     1      25.852  46.266  50.433  1.00  0.00     0.160 A 
HETATM    2  S   UNL     1      24.253  46.097  49.850  1.00  0.00    -0.022 SA
HETATM    3  C   UNL     1      24.245  47.779  49.580  1.00  0.00     0.197 A 
HETATM    4  N   UNL     1      25.357  48.388  49.932  1.00  0.00    -0.122 NA
HETATM    5  N   UNL     1      26.296  47.505  50.434  1.00  0.00    -0.133 NA
ENDROOT
BRANCH   3   6
HETATM    6  N   UNL     1      23.188  48.453  49.016  1.00  0.00    -0.301 N 
HETATM    7  C   UNL     1      23.272  49.457  48.084  1.00  0.00     0.247 C 
HETATM    8  O   UNL     1      24.282  49.880  47.537  1.00  0.00    -0.268 OA
HETATM    9  H   UNL     1      22.291  48.156  49.372  1.00  0.00     0.171 HD
BRANCH   7  10
HETATM   10  C   UNL     1      21.936  50.045  47.772  1.00  0.00     0.075 C 
HETATM   11  C   UNL     1      21.215  50.586  48.767  1.00  0.00     0.017 C 
BRANCH  11  12
HETATM   12  C   UNL     1      19.873  51.173  48.627  1.00  0.00    -0.033 A 
HETATM   13  C   UNL     1      19.130  51.080  47.441  1.00  0.00     0.051 A 
HETATM   14  C   UNL     1      17.853  51.604  47.429  1.00  0.00     0.105 A 
HETATM   15  C   UNL     1      17.299  52.198  48.538  1.00  0.00     0.105 A 
HETATM   16  O   UNL     1      17.000  51.588  46.370  1.00  0.00    -0.323 OA
HETATM   17  O   UNL     1      16.031  52.633  48.316  1.00  0.00    -0.323 OA
HETATM   18  C   UNL     1      17.992  52.304  49.722  1.00  0.00     0.040 A 
HETATM   19  C   UNL     1      15.841  52.229  46.945  1.00  0.00     0.352 A 
HETATM   20  C   UNL     1      19.290  51.781  49.763  1.00  0.00     0.014 A 
ENDBRANCH  11  12
ENDBRANCH   7  10
ENDBRANCH   3   6
BRANCH   1  21
HETATM   21  S   UNL     1      26.804  44.900  50.956  1.00  0.00    -0.096 SA
BRANCH  21  22
HETATM   22  C   UNL     1      26.172  44.666  52.645  1.00  0.00     0.123 C 
BRANCH  22  23
HETATM   23  C   UNL     1      27.189  45.118  53.668  1.00  0.00    -0.005 A 
HETATM   24  C   UNL     1      27.118  46.399  54.253  1.00  0.00     0.042 A 
HETATM   25  C   UNL     1      28.078  46.831  55.176  1.00  0.00     0.024 A 
HETATM   26 CL   UNL     1      25.858  47.521  53.864  1.00  0.00    -0.084 Cl
HETATM   27  C   UNL     1      29.135  45.998  55.531  1.00  0.00     0.003 A 
HETATM   28  C   UNL     1      29.233  44.734  54.960  1.00  0.00     0.024 A 
HETATM   29  C   UNL     1      28.273  44.297  54.038  1.00  0.00     0.042 A 
HETATM   30 CL   UNL     1      28.497  42.714  53.375  1.00  0.00    -0.084 Cl
ENDBRANCH  22  23
ENDBRANCH  21  22
ENDBRANCH   1  21
TORSDOF 6
ENDMDL
MODEL 5
REMARK VINA RESULT:      -8.6      1.717      2.106
REMARK  6 active torsions:
REMARK  status: ('A' for Active; 'I' for Inactive)
REMARK    1  A    between atoms: C_5  and  C_6 
REMARK    2  A    between atoms: C_6  and  S_7 
REMARK    3  A    between atoms: S_7  and  C_8 
REMARK    4  A    between atoms: C_10  and  N_11 
REMARK       I    between atoms: N_11  and  C_12 
REMARK    5  A    between atoms: C_12  and  C_13 
REMARK    6  A    between atoms: C_14  and  C_15 
ROOT
HETATM    1  C   UNL     1      26.158  44.896  50.538  1.00  0.00     0.160 A 
HETATM    2  S   UNL     1      25.617  46.467  50.943  1.00  0.00    -0.022 SA
HETATM    3  C   UNL     1      24.375  46.261  49.795  1.00  0.00     0.197 A 
HETATM    4  N   UNL     1      24.409  45.108  49.163  1.00  0.00    -0.122 NA
HETATM    5  N   UNL     1      25.453  44.310  49.594  1.00  0.00    -0.133 NA
ENDROOT
BRANCH   3   6
HETATM    6  N   UNL     1      23.396  47.197  49.560  1.00  0.00    -0.301 N 
HETATM    7  C   UNL     1      23.589  48.540  49.353  1.00  0.00     0.247 C 
HETATM    8  O   UNL     1      24.658  49.131  49.269  1.00  0.00    -0.268 OA
HETATM    9  H   UNL     1      22.463  46.808  49.573  1.00  0.00     0.171 HD
BRANCH   7  10
HETATM   10  C   UNL     1      22.300  49.282  49.243  1.00  0.00     0.075 C 
HETATM   11  C   UNL     1      21.152  48.587  49.189  1.00  0.00     0.017 C 
BRANCH  11  12
HETATM   12  C   UNL     1      19.809  49.170  49.047  1.00  0.00    -0.033 A 
HETATM   13  C   UNL     1      19.339  50.196  49.880  1.00  0.00     0.051 A 
HETATM   14  C   UNL     1      18.090  50.724  49.624  1.00  0.00     0.105 A 
HETATM   15  C   UNL     1      17.310  50.280  48.583  1.00  0.00     0.105 A 
HETATM   16  O   UNL     1      17.494  51.725  50.326  1.00  0.00    -0.323 OA
HETATM   17  O   UNL     1      16.127  50.941  48.500  1.00  0.00    -0.323 OA
HETATM   18  C   UNL     1      17.736  49.280  47.739  1.00  0.00     0.040 A 
HETATM   19  C   UNL     1      16.256  51.868  49.598  1.00  0.00     0.352 A 
HETATM   20  C   UNL     1      19.000  48.726  47.974  1.00  0.00     0.014 A 
ENDBRANCH  11  12
ENDBRANCH   7  10
ENDBRANCH   3   6
BRANCH   1  21
HETATM   21  S   UNL     1      27.517  44.143  51.335  1.00  0.00    -0.096 SA
BRANCH  21  22
HETATM   22  C   UNL     1      26.941  44.128  53.059  1.00  0.00     0.123 C 
BRANCH  22  23
HETATM   23  C   UNL     1      28.101  44.289  54.016  1.00  0.00    -0.005 A 
HETATM   24  C   UNL     1      28.970  43.216  54.298  1.00  0.00     0.042 A 
HETATM   25  C   UNL     1      30.025  43.355  55.209  1.00  0.00     0.024 A 
HETATM   26 CL   UNL     1      28.789  41.662  53.555  1.00  0.00    -0.084 Cl
HETATM   27  C   UNL     1      30.231  44.565  55.865  1.00  0.00     0.003 A 
HETATM   28  C   UNL     1      29.381  45.636  55.611  1.00  0.00     0.024 A 
HETATM   29  C   UNL     1      28.326  45.501  54.699  1.00  0.00     0.042 A 
HETATM   30 CL   UNL     1      27.317  46.889  54.468  1.00  0.00    -0.084 Cl
ENDBRANCH  22  23
ENDBRANCH  21  22
ENDBRANCH   1  21
TORSDOF 6
ENDMDL
MODEL 6
REMARK VINA RESULT:      -8.6      1.873      2.856
REMARK  6 active torsions:
REMARK  status: ('A' for Active; 'I' for Inactive)
REMARK    1  A    between atoms: C_5  and  C_6 
REMARK    2  A    between atoms: C_6  and  S_7 
REMARK    3  A    between atoms: S_7  and  C_8 
REMARK    4  A    between atoms: C_10  and  N_11 
REMARK       I    between atoms: N_11  and  C_12 
REMARK    5  A    between atoms: C_12  and  C_13 
REMARK    6  A    between atoms: C_14  and  C_15 
ROOT
HETATM    1  C   UNL     1      25.803  46.489  50.213  1.00  0.00     0.160 A 
HETATM    2  S   UNL     1      24.174  46.077  49.895  1.00  0.00    -0.022 SA
HETATM    3  C   UNL     1      23.851  47.744  49.753  1.00  0.00     0.197 A 
HETATM    4  N   UNL     1      24.897  48.517  49.958  1.00  0.00    -0.122 NA
HETATM    5  N   UNL     1      26.038  47.784  50.230  1.00  0.00    -0.133 NA
ENDROOT
BRANCH   3   6
HETATM    6  N   UNL     1      22.618  48.254  49.424  1.00  0.00    -0.301 N 
HETATM    7  C   UNL     1      22.342  49.093  48.373  1.00  0.00     0.247 C 
HETATM    8  O   UNL     1      23.117  49.477  47.507  1.00  0.00    -0.268 OA
HETATM    9  H   UNL     1      21.887  47.970  50.060  1.00  0.00     0.171 HD
BRANCH   7  10
HETATM   10  C   UNL     1      20.919  49.544  48.375  1.00  0.00     0.075 C 
HETATM   11  C   UNL     1      20.655  50.860  48.389  1.00  0.00     0.017 C 
BRANCH  11  12
HETATM   12  C   UNL     1      19.311  51.459  48.426  1.00  0.00    -0.033 A 
HETATM   13  C   UNL     1      18.463  51.478  47.309  1.00  0.00     0.051 A 
HETATM   14  C   UNL     1      17.195  52.002  47.463  1.00  0.00     0.105 A 
HETATM   15  C   UNL     1      16.750  52.492  48.668  1.00  0.00     0.105 A 
HETATM   16  O   UNL     1      16.248  52.085  46.489  1.00  0.00    -0.323 OA
HETATM   17  O   UNL     1      15.471  52.946  48.604  1.00  0.00    -0.323 OA
HETATM   18  C   UNL     1      17.549  52.486  49.788  1.00  0.00     0.040 A 
HETATM   19  C   UNL     1      15.153  52.671  47.224  1.00  0.00     0.352 A 
HETATM   20  C   UNL     1      18.839  51.960  49.662  1.00  0.00     0.014 A 
ENDBRANCH  11  12
ENDBRANCH   7  10
ENDBRANCH   3   6
BRANCH   1  21
HETATM   21  S   UNL     1      27.038  45.282  50.469  1.00  0.00    -0.096 SA
BRANCH  21  22
HETATM   22  C   UNL     1      26.377  44.416  51.925  1.00  0.00     0.123 C 
BRANCH  22  23
HETATM   23  C   UNL     1      27.288  43.281  52.336  1.00  0.00    -0.005 A 
HETATM   24  C   UNL     1      28.246  43.445  53.356  1.00  0.00     0.042 A 
HETATM   25  C   UNL     1      29.112  42.404  53.715  1.00  0.00     0.024 A 
HETATM   26 CL   UNL     1      28.427  44.934  54.221  1.00  0.00    -0.084 Cl
HETATM   27  C   UNL     1      29.047  41.180  53.058  1.00  0.00     0.003 A 
HETATM   28  C   UNL     1      28.117  40.996  52.040  1.00  0.00     0.024 A 
HETATM   29  C   UNL     1      27.247  42.034  51.680  1.00  0.00     0.042 A 
HETATM   30 CL   UNL     1      26.140  41.707  50.391  1.00  0.00    -0.084 Cl
ENDBRANCH  22  23
ENDBRANCH  21  22
ENDBRANCH   1  21
TORSDOF 6
ENDMDL
MODEL 7
REMARK VINA RESULT:      -8.4      1.738      2.056
REMARK  6 active torsions:
REMARK  status: ('A' for Active; 'I' for Inactive)
REMARK    1  A    between atoms: C_5  and  C_6 
REMARK    2  A    between atoms: C_6  and  S_7 
REMARK    3  A    between atoms: S_7  and  C_8 
REMARK    4  A    between atoms: C_10  and  N_11 
REMARK       I    between atoms: N_11  and  C_12 
REMARK    5  A    between atoms: C_12  and  C_13 
REMARK    6  A    between atoms: C_14  and  C_15 
ROOT
HETATM    1  C   UNL     1      25.647  46.236  50.234  1.00  0.00     0.160 A 
HETATM    2  S   UNL     1      24.162  45.829  49.491  1.00  0.00    -0.022 SA
HETATM    3  C   UNL     1      23.649  47.424  49.796  1.00  0.00     0.197 A 
HETATM    4  N   UNL     1      24.536  48.166  50.425  1.00  0.00    -0.122 NA
HETATM    5  N   UNL     1      25.703  47.471  50.686  1.00  0.00    -0.133 NA
ENDROOT
BRANCH   3   6
HETATM    6  N   UNL     1      22.431  47.920  49.397  1.00  0.00    -0.301 N 
HETATM    7  C   UNL     1      21.885  47.819  48.142  1.00  0.00     0.247 C 
HETATM    8  O   UNL     1      22.343  47.215  47.181  1.00  0.00    -0.268 OA
HETATM    9  H   UNL     1      21.943  48.415  50.131  1.00  0.00     0.171 HD
BRANCH   7  10
HETATM   10  C   UNL     1      20.600  48.569  48.027  1.00  0.00     0.075 C 
HETATM   11  C   UNL     1      20.551  49.843  48.447  1.00  0.00     0.017 C 
BRANCH  11  12
HETATM   12  C   UNL     1      19.355  50.700  48.431  1.00  0.00    -0.033 A 
HETATM   13  C   UNL     1      18.406  50.652  47.399  1.00  0.00     0.051 A 
HETATM   14  C   UNL     1      17.283  51.448  47.509  1.00  0.00     0.105 A 
HETATM   15  C   UNL     1      17.073  52.267  48.592  1.00  0.00     0.105 A 
HETATM   16  O   UNL     1      16.267  51.512  46.606  1.00  0.00    -0.323 OA
HETATM   17  O   UNL     1      15.902  52.951  48.507  1.00  0.00    -0.323 OA
HETATM   18  C   UNL     1      17.976  52.339  49.628  1.00  0.00     0.040 A 
HETATM   19  C   UNL     1      15.388  52.456  47.253  1.00  0.00     0.352 A 
HETATM   20  C   UNL     1      19.124  51.542  49.544  1.00  0.00     0.014 A 
ENDBRANCH  11  12
ENDBRANCH   7  10
ENDBRANCH   3   6
BRANCH   1  21
HETATM   21  S   UNL     1      26.971  45.105  50.355  1.00  0.00    -0.096 SA
BRANCH  21  22
HETATM   22  C   UNL     1      26.592  44.297  51.939  1.00  0.00     0.123 C 
BRANCH  22  23
HETATM   23  C   UNL     1      27.854  43.797  52.604  1.00  0.00    -0.005 A 
HETATM   24  C   UNL     1      28.500  42.625  52.161  1.00  0.00     0.042 A 
HETATM   25  C   UNL     1      29.650  42.143  52.798  1.00  0.00     0.024 A 
HETATM   26 CL   UNL     1      27.913  41.700  50.820  1.00  0.00    -0.084 Cl
HETATM   27  C   UNL     1      30.178  42.815  53.896  1.00  0.00     0.003 A 
HETATM   28  C   UNL     1      29.554  43.969  54.359  1.00  0.00     0.024 A 
HETATM   29  C   UNL     1      28.404  44.455  53.723  1.00  0.00     0.042 A 
HETATM   30 CL   UNL     1      27.696  45.888  54.388  1.00  0.00    -0.084 Cl
ENDBRANCH  22  23
ENDBRANCH  21  22
ENDBRANCH   1  21
TORSDOF 6
ENDMDL
MODEL 8
REMARK VINA RESULT:      -8.4      1.886      2.788
REMARK  6 active torsions:
REMARK  status: ('A' for Active; 'I' for Inactive)
REMARK    1  A    between atoms: C_5  and  C_6 
REMARK    2  A    between atoms: C_6  and  S_7 
REMARK    3  A    between atoms: S_7  and  C_8 
REMARK    4  A    between atoms: C_10  and  N_11 
REMARK       I    between atoms: N_11  and  C_12 
REMARK    5  A    between atoms: C_12  and  C_13 
REMARK    6  A    between atoms: C_14  and  C_15 
ROOT
HETATM    1  C   UNL     1      26.076  45.696  50.848  1.00  0.00     0.160 A 
HETATM    2  S   UNL     1      24.566  45.297  50.152  1.00  0.00    -0.022 SA
HETATM    3  C   UNL     1      24.206  46.961  50.144  1.00  0.00     0.197 A 
HETATM    4  N   UNL     1      25.153  47.722  50.650  1.00  0.00    -0.122 NA
HETATM    5  N   UNL     1      26.246  46.983  51.066  1.00  0.00    -0.133 NA
ENDROOT
BRANCH   3   6
HETATM    6  N   UNL     1      23.045  47.485  49.628  1.00  0.00    -0.301 N 
HETATM    7  C   UNL     1      22.809  48.806  49.338  1.00  0.00     0.247 C 
HETATM    8  O   UNL     1      23.602  49.735  49.415  1.00  0.00    -0.268 OA
HETATM    9  H   UNL     1      22.323  46.792  49.489  1.00  0.00     0.171 HD
BRANCH   7  10
HETATM   10  C   UNL     1      21.402  49.041  48.899  1.00  0.00     0.075 C 
HETATM   11  C   UNL     1      20.551  48.004  48.860  1.00  0.00     0.017 C 
BRANCH  11  12
HETATM   12  C   UNL     1      19.148  48.069  48.420  1.00  0.00    -0.033 A 
HETATM   13  C   UNL     1      18.785  48.363  47.098  1.00  0.00     0.051 A 
HETATM   14  C   UNL     1      17.445  48.334  46.768  1.00  0.00     0.105 A 
HETATM   15  C   UNL     1      16.474  48.020  47.689  1.00  0.00     0.105 A 
HETATM   16  O   UNL     1      16.927  48.583  45.535  1.00  0.00    -0.323 OA
HETATM   17  O   UNL     1      15.226  48.035  47.154  1.00  0.00    -0.323 OA
HETATM   18  C   UNL     1      16.789  47.720  48.994  1.00  0.00     0.040 A 
HETATM   19  C   UNL     1      15.521  48.377  45.784  1.00  0.00     0.352 A 
HETATM   20  C   UNL     1      18.140  47.741  49.357  1.00  0.00     0.014 A 
ENDBRANCH  11  12
ENDBRANCH   7  10
ENDBRANCH   3   6
BRANCH   1  21
HETATM   21  S   UNL     1      27.285  44.489  51.211  1.00  0.00    -0.096 SA
BRANCH  21  22
HETATM   22  C   UNL     1      26.789  43.999  52.890  1.00  0.00     0.123 C 
BRANCH  22  23
HETATM   23  C   UNL     1      27.963  44.073  53.841  1.00  0.00    -0.005 A 
HETATM   24  C   UNL     1      28.248  45.251  54.561  1.00  0.00     0.042 A 
HETATM   25  C   UNL     1      29.354  45.331  55.416  1.00  0.00     0.024 A 
HETATM   26 CL   UNL     1      27.267  46.672  54.429  1.00  0.00    -0.084 Cl
HETATM   27  C   UNL     1      30.205  44.241  55.567  1.00  0.00     0.003 A 
HETATM   28  C   UNL     1      29.951  43.070  54.859  1.00  0.00     0.024 A 
HETATM   29  C   UNL     1      28.845  42.986  54.004  1.00  0.00     0.042 A 
HETATM   30 CL   UNL     1      28.629  41.491  53.159  1.00  0.00    -0.084 Cl
ENDBRANCH  22  23
ENDBRANCH  21  22
ENDBRANCH   1  21
TORSDOF 6
ENDMDL
MODEL 9
REMARK VINA RESULT:      -8.1      9.379     12.502
REMARK  6 active torsions:
REMARK  status: ('A' for Active; 'I' for Inactive)
REMARK    1  A    between atoms: C_5  and  C_6 
REMARK    2  A    between atoms: C_6  and  S_7 
REMARK    3  A    between atoms: S_7  and  C_8 
REMARK    4  A    between atoms: C_10  and  N_11 
REMARK       I    between atoms: N_11  and  C_12 
REMARK    5  A    between atoms: C_12  and  C_13 
REMARK    6  A    between atoms: C_14  and  C_15 
ROOT
HETATM    1  C   UNL     1      27.893  37.793  48.135  1.00  0.00     0.160 A 
HETATM    2  S   UNL     1      27.112  38.593  49.430  1.00  0.00    -0.022 SA
HETATM    3  C   UNL     1      28.657  38.962  50.044  1.00  0.00     0.197 A 
HETATM    4  N   UNL     1      29.653  38.488  49.325  1.00  0.00    -0.122 NA
HETATM    5  N   UNL     1      29.207  37.802  48.210  1.00  0.00    -0.133 NA
ENDROOT
BRANCH   3   6
HETATM    6  N   UNL     1      28.865  39.715  51.176  1.00  0.00    -0.301 N 
HETATM    7  C   UNL     1      28.517  41.031  51.349  1.00  0.00     0.247 C 
HETATM    8  O   UNL     1      27.900  41.744  50.568  1.00  0.00    -0.268 OA
HETATM    9  H   UNL     1      29.343  39.209  51.908  1.00  0.00     0.171 HD
BRANCH   7  10
HETATM   10  C   UNL     1      28.993  41.570  52.656  1.00  0.00     0.075 C 
HETATM   11  C   UNL     1      28.794  42.868  52.937  1.00  0.00     0.017 C 
BRANCH  11  12
HETATM   12  C   UNL     1      29.233  43.552  54.163  1.00  0.00    -0.033 A 
HETATM   13  C   UNL     1      30.226  43.028  55.005  1.00  0.00     0.051 A 
HETATM   14  C   UNL     1      30.617  43.778  56.096  1.00  0.00     0.105 A 
HETATM   15  C   UNL     1      30.070  45.009  56.368  1.00  0.00     0.105 A 
HETATM   16  O   UNL     1      31.569  43.423  57.001  1.00  0.00    -0.323 OA
HETATM   17  O   UNL     1      30.605  45.582  57.478  1.00  0.00    -0.323 OA
HETATM   18  C   UNL     1      29.098  45.560  55.565  1.00  0.00     0.040 A 
HETATM   19  C   UNL     1      31.566  44.579  57.865  1.00  0.00     0.352 A 
HETATM   20  C   UNL     1      28.683  44.823  54.450  1.00  0.00     0.014 A 
ENDBRANCH  11  12
ENDBRANCH   7  10
ENDBRANCH   3   6
BRANCH   1  21
HETATM   21  S   UNL     1      27.007  37.054  46.825  1.00  0.00    -0.096 SA
BRANCH  21  22
HETATM   22  C   UNL     1      26.250  38.516  46.053  1.00  0.00     0.123 C 
BRANCH  22  23
HETATM   23  C   UNL     1      27.153  39.090  44.985  1.00  0.00    -0.005 A 
HETATM   24  C   UNL     1      27.262  38.484  43.717  1.00  0.00     0.042 A 
HETATM   25  C   UNL     1      28.123  38.995  42.738  1.00  0.00     0.024 A 
HETATM   26 CL   UNL     1      26.358  37.070  43.290  1.00  0.00    -0.084 Cl
HETATM   27  C   UNL     1      28.901  40.118  43.004  1.00  0.00     0.003 A 
HETATM   28  C   UNL     1      28.818  40.728  44.251  1.00  0.00     0.024 A 
HETATM   29  C   UNL     1      27.957  40.221  45.233  1.00  0.00     0.042 A 
HETATM   30 CL   UNL     1      27.942  41.044  46.755  1.00  0.00    -0.084 Cl
ENDBRANCH  22  23
ENDBRANCH  21  22
ENDBRANCH   1  21
TORSDOF 6
ENDMDL
MODEL 10
REMARK VINA RESULT:      -8.0      2.594      2.919
REMARK  6 active torsions:
REMARK  status: ('A' for Active; 'I' for Inactive)
REMARK    1  A    between atoms: C_5  and  C_6 
REMARK    2  A    between atoms: C_6  and  S_7 
REMARK    3  A    between atoms: S_7  and  C_8 
REMARK    4  A    between atoms: C_10  and  N_11 
REMARK       I    between atoms: N_11  and  C_12 
REMARK    5  A    between atoms: C_12  and  C_13 
REMARK    6  A    between atoms: C_14  and  C_15 
ROOT
HETATM    1  C   UNL     1      25.643  44.208  51.204  1.00  0.00     0.160 A 
HETATM    2  S   UNL     1      25.062  45.428  50.157  1.00  0.00    -0.022 SA
HETATM    3  C   UNL     1      23.544  44.657  50.210  1.00  0.00     0.197 A 
HETATM    4  N   UNL     1      23.518  43.564  50.943  1.00  0.00    -0.122 NA
HETATM    5  N   UNL     1      24.746  43.299  51.522  1.00  0.00    -0.133 NA
ENDROOT
BRANCH   3   6
HETATM    6  N   UNL     1      22.424  45.138  49.574  1.00  0.00    -0.301 N 
HETATM    7  C   UNL     1      21.726  44.507  48.575  1.00  0.00     0.247 C 
HETATM    8  O   UNL     1      21.924  43.386  48.124  1.00  0.00    -0.268 OA
HETATM    9  H   UNL     1      22.147  46.054  49.895  1.00  0.00     0.171 HD
BRANCH   7  10
HETATM   10  C   UNL     1      20.630  45.362  48.031  1.00  0.00     0.075 C 
HETATM   11  C   UNL     1      20.511  46.625  48.471  1.00  0.00     0.017 C 
BRANCH  11  12
HETATM   12  C   UNL     1      19.468  47.577  48.058  1.00  0.00    -0.033 A 
HETATM   13  C   UNL     1      19.754  48.737  47.324  1.00  0.00     0.051 A 
HETATM   14  C   UNL     1      18.699  49.533  46.925  1.00  0.00     0.105 A 
HETATM   15  C   UNL     1      17.395  49.215  47.219  1.00  0.00     0.105 A 
HETATM   16  O   UNL     1      18.802  50.681  46.201  1.00  0.00    -0.323 OA
HETATM   17  O   UNL     1      16.513  50.122  46.722  1.00  0.00    -0.323 OA
HETATM   18  C   UNL     1      17.071  48.083  47.932  1.00  0.00     0.040 A 
HETATM   19  C   UNL     1      17.411  51.040  46.064  1.00  0.00     0.352 A 
HETATM   20  C   UNL     1      18.121  47.257  48.349  1.00  0.00     0.014 A 
ENDBRANCH  11  12
ENDBRANCH   7  10
ENDBRANCH   3   6
BRANCH   1  21
HETATM   21  S   UNL     1      27.281  44.198  51.807  1.00  0.00    -0.096 SA
BRANCH  21  22
HETATM   22  C   UNL     1      26.990  44.061  53.596  1.00  0.00     0.123 C 
BRANCH  22  23
HETATM   23  C   UNL     1      28.295  44.106  54.359  1.00  0.00    -0.005 A 
HETATM   24  C   UNL     1      29.139  42.979  54.432  1.00  0.00     0.042 A 
HETATM   25  C   UNL     1      30.331  43.010  55.166  1.00  0.00     0.024 A 
HETATM   26 CL   UNL     1      28.757  41.489  53.637  1.00  0.00    -0.084 Cl
HETATM   27  C   UNL     1      30.704  44.163  55.850  1.00  0.00     0.003 A 
HETATM   28  C   UNL     1      29.884  45.285  55.802  1.00  0.00     0.024 A 
HETATM   29  C   UNL     1      28.691  45.259  55.068  1.00  0.00     0.042 A 
HETATM   30 CL   UNL     1      27.735  46.701  55.087  1.00  0.00    -0.084 Cl
ENDBRANCH  22  23
ENDBRANCH  21  22
ENDBRANCH   1  21
TORSDOF 6
ENDMDL
