MODEL 1
REMARK VINA RESULT:      -8.6      0.000      0.000
REMARK  10 active torsions:
REMARK  status: ('A' for Active; 'I' for Inactive)
REMARK    1  A    between atoms: C_2  and  O_3 
REMARK    2  A    between atoms: O_3  and  C_4 
REMARK    3  A    between atoms: C_4  and  O_5 
REMARK    4  A    between atoms: C_4  and  C_8 
REMARK    5  A    between atoms: C_4  and  C_14 
REMARK    6  A    between atoms: O_5  and  C_6 
REMARK    7  A    between atoms: C_14  and  N_15 
REMARK       I    between atoms: N_15  and  C_16 
REMARK    8  A    between atoms: C_16  and  C_17 
REMARK    9  A    between atoms: C_19  and  N_20 
REMARK       I    between atoms: N_20  and  C_21 
REMARK   10  A    between atoms: C_21  and  C_22 
ROOT
HETATM    1  N   UNL     1      26.240  46.648  51.540  1.00  0.00    -0.351 N 
HETATM    2  C   UNL     1      26.432  46.684  50.177  1.00  0.00     0.251 C 
HETATM    3  O   UNL     1      26.936  45.771  49.538  1.00  0.00    -0.268 OA
HETATM    4  H   UNL     1      25.627  47.331  51.972  1.00  0.00     0.162 HD
ENDROOT
BRANCH   2   5
HETATM    5  C   UNL     1      25.963  47.921  49.496  1.00  0.00     0.034 A 
HETATM    6  C   UNL     1      24.603  48.263  49.496  1.00  0.00     0.046 A 
HETATM    7  C   UNL     1      24.157  49.411  48.842  1.00  0.00     0.035 A 
HETATM    8  C   UNL     1      25.097  50.231  48.206  1.00  0.00     0.029 A 
HETATM    9  C   UNL     1      26.458  49.912  48.230  1.00  0.00     0.003 A 
HETATM   10  C   UNL     1      26.894  48.757  48.879  1.00  0.00     0.017 A 
BRANCH   7  11
HETATM   11  N   UNL     1      22.802  49.793  48.775  1.00  0.00    -0.322 N 
HETATM   12  C   UNL     1      22.091  50.584  49.666  1.00  0.00     0.263 C 
HETATM   13  O   UNL     1      22.582  51.125  50.654  1.00  0.00    -0.267 OA
HETATM   14  H   UNL     1      22.270  49.444  47.987  1.00  0.00     0.169 HD
BRANCH  12  15
HETATM   15  C   UNL     1      20.672  50.747  49.351  1.00  0.00     0.072 A 
HETATM   16  S   UNL     1      19.473  49.636  49.873  1.00  0.00    -0.097 SA
HETATM   17  C   UNL     1      18.217  50.542  49.151  1.00  0.00     0.050 A 
HETATM   18  C   UNL     1      18.691  51.666  48.515  1.00  0.00     0.009 A 
HETATM   19  C   UNL     1      20.105  51.784  48.631  1.00  0.00     0.025 A 
ENDBRANCH  12  15
ENDBRANCH   7  11
ENDBRANCH   2   5
BRANCH   1  20
HETATM   20  C   UNL     1      26.718  45.533  52.351  1.00  0.00     0.198 C 
BRANCH  20  21
HETATM   21  C   UNL     1      26.909  45.817  53.882  1.00  0.00     0.227 C 
BRANCH  21  22
HETATM   22  O   UNL     1      25.748  45.471  54.664  1.00  0.00    -0.349 OA
BRANCH  22  23
HETATM   23  C   UNL     1      25.087  44.257  54.329  1.00  0.00     0.167 C 
HETATM   24  C   UNL     1      25.444  43.219  55.376  1.00  0.00     0.033 C 
ENDBRANCH  22  23
ENDBRANCH  21  22
BRANCH  21  25
HETATM   25  O   UNL     1      27.169  47.235  54.056  1.00  0.00    -0.349 OA
BRANCH  25  26
HETATM   26  C   UNL     1      26.082  47.977  54.598  1.00  0.00     0.167 C 
HETATM   27  C   UNL     1      26.552  48.618  55.890  1.00  0.00     0.033 C 
ENDBRANCH  25  26
ENDBRANCH  21  25
BRANCH  21  28
HETATM   28  C   UNL     1      28.197  45.149  54.433  1.00  0.00     0.097 A 
HETATM   29  N   UNL     1      28.829  45.713  55.502  1.00  0.00    -0.260 NA
HETATM   30  C   UNL     1      29.964  45.139  55.953  1.00  0.00     0.117 A 
HETATM   31  C   UNL     1      30.513  43.992  55.410  1.00  0.00     0.019 A 
HETATM   32  C   UNL     1      29.868  43.408  54.331  1.00  0.00     0.004 A 
HETATM   33  C   UNL     1      28.707  43.994  53.828  1.00  0.00     0.033 A 
ENDBRANCH  21  28
ENDBRANCH  20  21
ENDBRANCH   1  20
TORSDOF 10
ENDMDL
MODEL 2
REMARK VINA RESULT:      -8.2      2.209      4.121
REMARK  10 active torsions:
REMARK  status: ('A' for Active; 'I' for Inactive)
REMARK    1  A    between atoms: C_2  and  O_3 
REMARK    2  A    between atoms: O_3  and  C_4 
REMARK    3  A    between atoms: C_4  and  O_5 
REMARK    4  A    between atoms: C_4  and  C_8 
REMARK    5  A    between atoms: C_4  and  C_14 
REMARK    6  A    between atoms: O_5  and  C_6 
REMARK    7  A    between atoms: C_14  and  N_15 
REMARK       I    between atoms: N_15  and  C_16 
REMARK    8  A    between atoms: C_16  and  C_17 
REMARK    9  A    between atoms: C_19  and  N_20 
REMARK       I    between atoms: N_20  and  C_21 
REMARK   10  A    between atoms: C_21  and  C_22 
ROOT
HETATM    1  N   UNL     1      26.088  46.187  51.121  1.00  0.00    -0.351 N 
HETATM    2  C   UNL     1      26.628  46.565  49.912  1.00  0.00     0.251 C 
HETATM    3  O   UNL     1      27.465  45.910  49.307  1.00  0.00    -0.268 OA
HETATM    4  H   UNL     1      25.252  46.653  51.457  1.00  0.00     0.162 HD
ENDROOT
BRANCH   2   5
HETATM    5  C   UNL     1      26.111  47.842  49.351  1.00  0.00     0.034 A 
HETATM    6  C   UNL     1      24.735  48.117  49.354  1.00  0.00     0.046 A 
HETATM    7  C   UNL     1      24.245  49.304  48.811  1.00  0.00     0.035 A 
HETATM    8  C   UNL     1      25.155  50.230  48.284  1.00  0.00     0.029 A 
HETATM    9  C   UNL     1      26.529  49.975  48.308  1.00  0.00     0.003 A 
HETATM   10  C   UNL     1      27.010  48.782  48.845  1.00  0.00     0.017 A 
BRANCH   7  11
HETATM   11  N   UNL     1      22.874  49.627  48.751  1.00  0.00    -0.322 N 
HETATM   12  C   UNL     1      22.150  50.445  49.606  1.00  0.00     0.263 C 
HETATM   13  O   UNL     1      22.639  51.068  50.545  1.00  0.00    -0.267 OA
HETATM   14  H   UNL     1      22.341  49.206  48.000  1.00  0.00     0.169 HD
BRANCH  12  15
HETATM   15  C   UNL     1      20.719  50.530  49.316  1.00  0.00     0.072 A 
HETATM   16  S   UNL     1      19.670  49.176  49.418  1.00  0.00    -0.097 SA
HETATM   17  C   UNL     1      18.306  50.110  48.983  1.00  0.00     0.050 A 
HETATM   18  C   UNL     1      18.633  51.426  48.754  1.00  0.00     0.009 A 
HETATM   19  C   UNL     1      20.023  51.668  48.946  1.00  0.00     0.025 A 
ENDBRANCH  12  15
ENDBRANCH   7  11
ENDBRANCH   2   5
BRANCH   1  20
HETATM   20  C   UNL     1      26.552  44.998  51.827  1.00  0.00     0.198 C 
BRANCH  20  21
HETATM   21  C   UNL     1      25.540  43.802  51.918  1.00  0.00     0.227 C 
BRANCH  21  22
HETATM   22  O   UNL     1      24.758  43.824  53.130  1.00  0.00    -0.349 OA
BRANCH  22  23
HETATM   23  C   UNL     1      25.277  44.580  54.216  1.00  0.00     0.167 C 
HETATM   24  C   UNL     1      25.804  43.612  55.259  1.00  0.00     0.033 C 
ENDBRANCH  22  23
ENDBRANCH  21  22
BRANCH  21  25
HETATM   25  O   UNL     1      26.293  42.561  51.885  1.00  0.00    -0.349 OA
BRANCH  25  26
HETATM   26  C   UNL     1      27.687  42.703  52.138  1.00  0.00     0.167 C 
HETATM   27  C   UNL     1      28.106  41.588  53.078  1.00  0.00     0.033 C 
ENDBRANCH  25  26
ENDBRANCH  21  25
BRANCH  21  28
HETATM   28  C   UNL     1      24.646  43.710  50.654  1.00  0.00     0.097 A 
HETATM   29  N   UNL     1      23.372  44.195  50.708  1.00  0.00    -0.260 NA
HETATM   30  C   UNL     1      22.594  44.083  49.611  1.00  0.00     0.117 A 
HETATM   31  C   UNL     1      23.023  43.526  48.420  1.00  0.00     0.019 A 
HETATM   32  C   UNL     1      24.320  43.042  48.356  1.00  0.00     0.004 A 
HETATM   33  C   UNL     1      25.138  43.122  49.482  1.00  0.00     0.033 A 
ENDBRANCH  21  28
ENDBRANCH  20  21
ENDBRANCH   1  20
TORSDOF 10
ENDMDL
MODEL 3
REMARK VINA RESULT:      -8.0      3.071      4.051
REMARK  10 active torsions:
REMARK  status: ('A' for Active; 'I' for Inactive)
REMARK    1  A    between atoms: C_2  and  O_3 
REMARK    2  A    between atoms: O_3  and  C_4 
REMARK    3  A    between atoms: C_4  and  O_5 
REMARK    4  A    between atoms: C_4  and  C_8 
REMARK    5  A    between atoms: C_4  and  C_14 
REMARK    6  A    between atoms: O_5  and  C_6 
REMARK    7  A    between atoms: C_14  and  N_15 
REMARK       I    between atoms: N_15  and  C_16 
REMARK    8  A    between atoms: C_16  and  C_17 
REMARK    9  A    between atoms: C_19  and  N_20 
REMARK       I    between atoms: N_20  and  C_21 
REMARK   10  A    between atoms: C_21  and  C_22 
ROOT
HETATM    1  N   UNL     1      26.923  45.765  49.691  1.00  0.00    -0.351 N 
HETATM    2  C   UNL     1      26.326  46.773  50.414  1.00  0.00     0.251 C 
HETATM    3  O   UNL     1      26.153  46.729  51.625  1.00  0.00    -0.268 OA
HETATM    4  H   UNL     1      27.233  45.953  48.743  1.00  0.00     0.162 HD
ENDROOT
BRANCH   2   5
HETATM    5  C   UNL     1      25.907  47.964  49.628  1.00  0.00     0.034 A 
HETATM    6  C   UNL     1      24.555  48.331  49.556  1.00  0.00     0.046 A 
HETATM    7  C   UNL     1      24.156  49.435  48.803  1.00  0.00     0.035 A 
HETATM    8  C   UNL     1      25.135  50.187  48.140  1.00  0.00     0.029 A 
HETATM    9  C   UNL     1      26.487  49.844  48.235  1.00  0.00     0.003 A 
HETATM   10  C   UNL     1      26.876  48.733  48.982  1.00  0.00     0.017 A 
BRANCH   7  11
HETATM   11  N   UNL     1      22.813  49.838  48.660  1.00  0.00    -0.322 N 
HETATM   12  C   UNL     1      22.044  50.580  49.545  1.00  0.00     0.263 C 
HETATM   13  O   UNL     1      22.465  51.051  50.599  1.00  0.00    -0.267 OA
HETATM   14  H   UNL     1      22.338  49.546  47.814  1.00  0.00     0.169 HD
BRANCH  12  15
HETATM   15  C   UNL     1      20.653  50.780  49.138  1.00  0.00     0.072 A 
HETATM   16  S   UNL     1      19.425  49.618  49.431  1.00  0.00    -0.097 SA
HETATM   17  C   UNL     1      18.224  50.603  48.718  1.00  0.00     0.050 A 
HETATM   18  C   UNL     1      18.739  51.792  48.255  1.00  0.00     0.009 A 
HETATM   19  C   UNL     1      20.138  51.894  48.497  1.00  0.00     0.025 A 
ENDBRANCH  12  15
ENDBRANCH   7  11
ENDBRANCH   2   5
BRANCH   1  20
HETATM   20  C   UNL     1      27.318  44.506  50.314  1.00  0.00     0.198 C 
BRANCH  20  21
HETATM   21  C   UNL     1      26.219  43.387  50.381  1.00  0.00     0.227 C 
BRANCH  21  22
HETATM   22  O   UNL     1      24.969  43.796  49.789  1.00  0.00    -0.349 OA
BRANCH  22  23
HETATM   23  C   UNL     1      23.819  43.759  50.625  1.00  0.00     0.167 C 
HETATM   24  C   UNL     1      22.793  42.849  49.978  1.00  0.00     0.033 C 
ENDBRANCH  22  23
ENDBRANCH  21  22
BRANCH  21  25
HETATM   25  O   UNL     1      25.978  43.066  51.777  1.00  0.00    -0.349 OA
BRANCH  25  26
HETATM   26  C   UNL     1      26.972  43.540  52.678  1.00  0.00     0.167 C 
HETATM   27  C   UNL     1      26.269  44.048  53.923  1.00  0.00     0.033 C 
ENDBRANCH  25  26
ENDBRANCH  21  25
BRANCH  21  28
HETATM   28  C   UNL     1      26.729  42.047  49.790  1.00  0.00     0.097 A 
HETATM   29  N   UNL     1      27.451  42.066  48.633  1.00  0.00    -0.260 NA
HETATM   30  C   UNL     1      27.864  40.891  48.113  1.00  0.00     0.117 A 
HETATM   31  C   UNL     1      27.620  39.664  48.700  1.00  0.00     0.019 A 
HETATM   32  C   UNL     1      26.896  39.639  49.883  1.00  0.00     0.004 A 
HETATM   33  C   UNL     1      26.436  40.836  50.430  1.00  0.00     0.033 A 
ENDBRANCH  21  28
ENDBRANCH  20  21
ENDBRANCH   1  20
TORSDOF 10
ENDMDL
MODEL 4
REMARK VINA RESULT:      -7.8      3.394      8.586
REMARK  10 active torsions:
REMARK  status: ('A' for Active; 'I' for Inactive)
REMARK    1  A    between atoms: C_2  and  O_3 
REMARK    2  A    between atoms: O_3  and  C_4 
REMARK    3  A    between atoms: C_4  and  O_5 
REMARK    4  A    between atoms: C_4  and  C_8 
REMARK    5  A    between atoms: C_4  and  C_14 
REMARK    6  A    between atoms: O_5  and  C_6 
REMARK    7  A    between atoms: C_14  and  N_15 
REMARK       I    between atoms: N_15  and  C_16 
REMARK    8  A    between atoms: C_16  and  C_17 
REMARK    9  A    between atoms: C_19  and  N_20 
REMARK       I    between atoms: N_20  and  C_21 
REMARK   10  A    between atoms: C_21  and  C_22 
ROOT
HETATM    1  N   UNL     1      22.360  48.973  48.549  1.00  0.00    -0.351 N 
HETATM    2  C   UNL     1      23.457  49.604  48.007  1.00  0.00     0.251 C 
HETATM    3  O   UNL     1      23.388  50.453  47.129  1.00  0.00    -0.268 OA
HETATM    4  H   UNL     1      22.466  48.451  49.412  1.00  0.00     0.162 HD
ENDROOT
BRANCH   2   5
HETATM    5  C   UNL     1      24.772  49.202  48.574  1.00  0.00     0.034 A 
HETATM    6  C   UNL     1      24.866  48.120  49.462  1.00  0.00     0.046 A 
HETATM    7  C   UNL     1      26.094  47.753  50.011  1.00  0.00     0.035 A 
HETATM    8  C   UNL     1      27.238  48.470  49.640  1.00  0.00     0.029 A 
HETATM    9  C   UNL     1      27.156  49.529  48.732  1.00  0.00     0.003 A 
HETATM   10  C   UNL     1      25.922  49.895  48.194  1.00  0.00     0.017 A 
BRANCH   7  11
HETATM   11  N   UNL     1      26.252  46.699  50.934  1.00  0.00    -0.322 N 
HETATM   12  C   UNL     1      25.901  46.678  52.277  1.00  0.00     0.263 C 
HETATM   13  O   UNL     1      25.333  47.601  52.857  1.00  0.00    -0.267 OA
HETATM   14  H   UNL     1      26.683  45.852  50.586  1.00  0.00     0.169 HD
BRANCH  12  15
HETATM   15  C   UNL     1      26.257  45.451  52.989  1.00  0.00     0.072 A 
HETATM   16  S   UNL     1      25.308  44.813  54.268  1.00  0.00    -0.097 SA
HETATM   17  C   UNL     1      26.353  43.476  54.471  1.00  0.00     0.050 A 
HETATM   18  C   UNL     1      27.411  43.509  53.592  1.00  0.00     0.009 A 
HETATM   19  C   UNL     1      27.355  44.647  52.738  1.00  0.00     0.025 A 
ENDBRANCH  12  15
ENDBRANCH   7  11
ENDBRANCH   2   5
BRANCH   1  20
HETATM   20  C   UNL     1      21.013  49.210  48.042  1.00  0.00     0.198 C 
BRANCH  20  21
HETATM   21  C   UNL     1      20.089  47.949  47.901  1.00  0.00     0.227 C 
BRANCH  21  22
HETATM   22  O   UNL     1      19.097  48.097  46.865  1.00  0.00    -0.349 OA
BRANCH  22  23
HETATM   23  C   UNL     1      18.117  47.071  46.763  1.00  0.00     0.167 C 
HETATM   24  C   UNL     1      16.759  47.727  46.603  1.00  0.00     0.033 C 
ENDBRANCH  22  23
ENDBRANCH  21  22
BRANCH  21  25
HETATM   25  O   UNL     1      19.402  47.742  49.163  1.00  0.00    -0.349 OA
BRANCH  25  26
HETATM   26  C   UNL     1      18.861  48.922  49.748  1.00  0.00     0.167 C 
HETATM   27  C   UNL     1      18.641  48.652  51.224  1.00  0.00     0.033 C 
ENDBRANCH  25  26
ENDBRANCH  21  25
BRANCH  21  28
HETATM   28  C   UNL     1      20.917  46.648  47.728  1.00  0.00     0.097 A 
HETATM   29  N   UNL     1      21.666  46.487  46.600  1.00  0.00    -0.260 NA
HETATM   30  C   UNL     1      22.359  45.339  46.447  1.00  0.00     0.117 A 
HETATM   31  C   UNL     1      22.375  44.322  47.383  1.00  0.00     0.019 A 
HETATM   32  C   UNL     1      21.624  44.486  48.538  1.00  0.00     0.004 A 
HETATM   33  C   UNL     1      20.879  45.651  48.710  1.00  0.00     0.033 A 
ENDBRANCH  21  28
ENDBRANCH  20  21
ENDBRANCH   1  20
TORSDOF 10
ENDMDL
MODEL 5
REMARK VINA RESULT:      -7.7      3.362     10.223
REMARK  10 active torsions:
REMARK  status: ('A' for Active; 'I' for Inactive)
REMARK    1  A    between atoms: C_2  and  O_3 
REMARK    2  A    between atoms: O_3  and  C_4 
REMARK    3  A    between atoms: C_4  and  O_5 
REMARK    4  A    between atoms: C_4  and  C_8 
REMARK    5  A    between atoms: C_4  and  C_14 
REMARK    6  A    between atoms: O_5  and  C_6 
REMARK    7  A    between atoms: C_14  and  N_15 
REMARK       I    between atoms: N_15  and  C_16 
REMARK    8  A    between atoms: C_16  and  C_17 
REMARK    9  A    between atoms: C_19  and  N_20 
REMARK       I    between atoms: N_20  and  C_21 
REMARK   10  A    between atoms: C_21  and  C_22 
ROOT
HETATM    1  N   UNL     1      22.806  47.448  49.608  1.00  0.00    -0.351 N 
HETATM    2  C   UNL     1      24.122  47.423  50.012  1.00  0.00     0.251 C 
HETATM    3  O   UNL     1      24.863  48.395  49.972  1.00  0.00    -0.268 OA
HETATM    4  H   UNL     1      22.193  46.683  49.869  1.00  0.00     0.162 HD
ENDROOT
BRANCH   2   5
HETATM    5  C   UNL     1      24.606  46.117  50.536  1.00  0.00     0.034 A 
HETATM    6  C   UNL     1      25.688  46.063  51.428  1.00  0.00     0.046 A 
HETATM    7  C   UNL     1      26.157  44.840  51.905  1.00  0.00     0.035 A 
HETATM    8  C   UNL     1      25.512  43.666  51.496  1.00  0.00     0.029 A 
HETATM    9  C   UNL     1      24.413  43.716  50.633  1.00  0.00     0.003 A 
HETATM   10  C   UNL     1      23.956  44.943  50.154  1.00  0.00     0.017 A 
BRANCH   7  11
HETATM   11  N   UNL     1      27.259  44.713  52.774  1.00  0.00    -0.322 N 
HETATM   12  C   UNL     1      27.253  44.371  54.119  1.00  0.00     0.263 C 
HETATM   13  O   UNL     1      26.243  44.069  54.750  1.00  0.00    -0.267 OA
HETATM   14  H   UNL     1      28.173  44.903  52.380  1.00  0.00     0.169 HD
BRANCH  12  15
HETATM   15  C   UNL     1      28.564  44.388  54.767  1.00  0.00     0.072 A 
HETATM   16  S   UNL     1      29.075  45.663  55.794  1.00  0.00    -0.097 SA
HETATM   17  C   UNL     1      30.577  44.909  56.103  1.00  0.00     0.050 A 
HETATM   18  C   UNL     1      30.701  43.712  55.435  1.00  0.00     0.009 A 
HETATM   19  C   UNL     1      29.541  43.412  54.666  1.00  0.00     0.025 A 
ENDBRANCH  12  15
ENDBRANCH   7  11
ENDBRANCH   2   5
BRANCH   1  20
HETATM   20  C   UNL     1      22.214  48.636  49.004  1.00  0.00     0.198 C 
BRANCH  20  21
HETATM   21  C   UNL     1      20.789  48.459  48.368  1.00  0.00     0.227 C 
BRANCH  21  22
HETATM   22  O   UNL     1      19.973  47.510  49.084  1.00  0.00    -0.349 OA
BRANCH  22  23
HETATM   23  C   UNL     1      18.855  48.030  49.793  1.00  0.00     0.167 C 
HETATM   24  C   UNL     1      17.592  47.528  49.119  1.00  0.00     0.033 C 
ENDBRANCH  22  23
ENDBRANCH  21  22
BRANCH  21  25
HETATM   25  O   UNL     1      20.952  47.983  47.006  1.00  0.00    -0.349 OA
BRANCH  25  26
HETATM   26  C   UNL     1      20.529  46.641  46.789  1.00  0.00     0.167 C 
HETATM   27  C   UNL     1      21.767  45.785  46.606  1.00  0.00     0.033 C 
ENDBRANCH  25  26
ENDBRANCH  21  25
BRANCH  21  28
HETATM   28  C   UNL     1      20.069  49.821  48.186  1.00  0.00     0.097 A 
HETATM   29  N   UNL     1      19.237  49.991  47.118  1.00  0.00    -0.260 NA
HETATM   30  C   UNL     1      18.639  51.190  46.955  1.00  0.00     0.117 A 
HETATM   31  C   UNL     1      18.799  52.252  47.824  1.00  0.00     0.019 A 
HETATM   32  C   UNL     1      19.633  52.081  48.918  1.00  0.00     0.004 A 
HETATM   33  C   UNL     1      20.284  50.861  49.098  1.00  0.00     0.033 A 
ENDBRANCH  21  28
ENDBRANCH  20  21
ENDBRANCH   1  20
TORSDOF 10
ENDMDL
MODEL 6
REMARK VINA RESULT:      -7.7      3.923      9.349
REMARK  10 active torsions:
REMARK  status: ('A' for Active; 'I' for Inactive)
REMARK    1  A    between atoms: C_2  and  O_3 
REMARK    2  A    between atoms: O_3  and  C_4 
REMARK    3  A    between atoms: C_4  and  O_5 
REMARK    4  A    between atoms: C_4  and  C_8 
REMARK    5  A    between atoms: C_4  and  C_14 
REMARK    6  A    between atoms: O_5  and  C_6 
REMARK    7  A    between atoms: C_14  and  N_15 
REMARK       I    between atoms: N_15  and  C_16 
REMARK    8  A    between atoms: C_16  and  C_17 
REMARK    9  A    between atoms: C_19  and  N_20 
REMARK       I    between atoms: N_20  and  C_21 
REMARK   10  A    between atoms: C_21  and  C_22 
ROOT
HETATM    1  N   UNL     1      21.728  45.786  49.006  1.00  0.00    -0.351 N 
HETATM    2  C   UNL     1      21.924  44.439  48.802  1.00  0.00     0.251 C 
HETATM    3  O   UNL     1      21.213  43.751  48.082  1.00  0.00    -0.268 OA
HETATM    4  H   UNL     1      22.468  46.336  49.428  1.00  0.00     0.162 HD
ENDROOT
BRANCH   2   5
HETATM    5  C   UNL     1      23.092  43.848  49.507  1.00  0.00     0.034 A 
HETATM    6  C   UNL     1      23.817  44.602  50.442  1.00  0.00     0.046 A 
HETATM    7  C   UNL     1      24.926  44.058  51.090  1.00  0.00     0.035 A 
HETATM    8  C   UNL     1      25.287  42.734  50.809  1.00  0.00     0.029 A 
HETATM    9  C   UNL     1      24.548  41.968  49.903  1.00  0.00     0.003 A 
HETATM   10  C   UNL     1      23.447  42.523  49.252  1.00  0.00     0.017 A 
BRANCH   7  11
HETATM   11  N   UNL     1      25.717  44.771  52.013  1.00  0.00    -0.322 N 
HETATM   12  C   UNL     1      25.587  44.820  53.393  1.00  0.00     0.263 C 
HETATM   13  O   UNL     1      24.756  44.178  54.032  1.00  0.00    -0.267 OA
HETATM   14  H   UNL     1      26.472  45.328  51.629  1.00  0.00     0.169 HD
BRANCH  12  15
HETATM   15  C   UNL     1      26.530  45.709  54.072  1.00  0.00     0.072 A 
HETATM   16  S   UNL     1      26.234  47.385  54.285  1.00  0.00    -0.097 SA
HETATM   17  C   UNL     1      27.705  47.610  55.126  1.00  0.00     0.050 A 
HETATM   18  C   UNL     1      28.419  46.440  55.240  1.00  0.00     0.009 A 
HETATM   19  C   UNL     1      27.741  45.344  54.633  1.00  0.00     0.025 A 
ENDBRANCH  12  15
ENDBRANCH   7  11
ENDBRANCH   2   5
BRANCH   1  20
HETATM   20  C   UNL     1      20.580  46.487  48.439  1.00  0.00     0.198 C 
BRANCH  20  21
HETATM   21  C   UNL     1      20.885  47.504  47.284  1.00  0.00     0.227 C 
BRANCH  21  22
HETATM   22  O   UNL     1      19.693  47.953  46.606  1.00  0.00    -0.349 OA
BRANCH  22  23
HETATM   23  C   UNL     1      18.451  47.675  47.240  1.00  0.00     0.167 C 
HETATM   24  C   UNL     1      17.632  48.953  47.258  1.00  0.00     0.033 C 
ENDBRANCH  22  23
ENDBRANCH  21  22
BRANCH  21  25
HETATM   25  O   UNL     1      21.742  46.850  46.312  1.00  0.00    -0.349 OA
BRANCH  25  26
HETATM   26  C   UNL     1      21.065  45.976  45.414  1.00  0.00     0.167 C 
HETATM   27  C   UNL     1      22.091  45.027  44.824  1.00  0.00     0.033 C 
ENDBRANCH  25  26
ENDBRANCH  21  25
BRANCH  21  28
HETATM   28  C   UNL     1      21.751  48.692  47.779  1.00  0.00     0.097 A 
HETATM   29  N   UNL     1      23.070  48.479  48.054  1.00  0.00    -0.260 NA
HETATM   30  C   UNL     1      23.806  49.514  48.513  1.00  0.00     0.117 A 
HETATM   31  C   UNL     1      23.307  50.789  48.696  1.00  0.00     0.019 A 
HETATM   32  C   UNL     1      21.969  51.014  48.406  1.00  0.00     0.004 A 
HETATM   33  C   UNL     1      21.179  49.958  47.955  1.00  0.00     0.033 A 
ENDBRANCH  21  28
ENDBRANCH  20  21
ENDBRANCH   1  20
TORSDOF 10
ENDMDL
MODEL 7
REMARK VINA RESULT:      -7.5      3.604      9.971
REMARK  10 active torsions:
REMARK  status: ('A' for Active; 'I' for Inactive)
REMARK    1  A    between atoms: C_2  and  O_3 
REMARK    2  A    between atoms: O_3  and  C_4 
REMARK    3  A    between atoms: C_4  and  O_5 
REMARK    4  A    between atoms: C_4  and  C_8 
REMARK    5  A    between atoms: C_4  and  C_14 
REMARK    6  A    between atoms: O_5  and  C_6 
REMARK    7  A    between atoms: C_14  and  N_15 
REMARK       I    between atoms: N_15  and  C_16 
REMARK    8  A    between atoms: C_16  and  C_17 
REMARK    9  A    between atoms: C_19  and  N_20 
REMARK       I    between atoms: N_20  and  C_21 
REMARK   10  A    between atoms: C_21  and  C_22 
ROOT
HETATM    1  N   UNL     1      22.386  47.857  49.347  1.00  0.00    -0.351 N 
HETATM    2  C   UNL     1      23.723  47.893  49.674  1.00  0.00     0.251 C 
HETATM    3  O   UNL     1      24.409  48.903  49.615  1.00  0.00    -0.268 OA
HETATM    4  H   UNL     1      21.829  47.055  49.624  1.00  0.00     0.162 HD
ENDROOT
BRANCH   2   5
HETATM    5  C   UNL     1      24.303  46.604  50.137  1.00  0.00     0.034 A 
HETATM    6  C   UNL     1      25.277  46.582  51.146  1.00  0.00     0.046 A 
HETATM    7  C   UNL     1      25.838  45.377  51.568  1.00  0.00     0.035 A 
HETATM    8  C   UNL     1      25.392  44.185  50.983  1.00  0.00     0.029 A 
HETATM    9  C   UNL     1      24.399  44.199  50.000  1.00  0.00     0.003 A 
HETATM   10  C   UNL     1      23.850  45.408  49.577  1.00  0.00     0.017 A 
BRANCH   7  11
HETATM   11  N   UNL     1      26.845  45.287  52.551  1.00  0.00    -0.322 N 
HETATM   12  C   UNL     1      26.692  45.245  53.930  1.00  0.00     0.263 C 
HETATM   13  O   UNL     1      25.606  45.229  54.505  1.00  0.00    -0.267 OA
HETATM   14  H   UNL     1      27.802  45.259  52.221  1.00  0.00     0.169 HD
BRANCH  12  15
HETATM   15  C   UNL     1      27.942  45.218  54.689  1.00  0.00     0.072 A 
HETATM   16  S   UNL     1      29.062  43.923  54.587  1.00  0.00    -0.097 SA
HETATM   17  C   UNL     1      30.141  44.676  55.679  1.00  0.00     0.050 A 
HETATM   18  C   UNL     1      29.663  45.886  56.125  1.00  0.00     0.009 A 
HETATM   19  C   UNL     1      28.396  46.199  55.554  1.00  0.00     0.025 A 
ENDBRANCH  12  15
ENDBRANCH   7  11
ENDBRANCH   2   5
BRANCH   1  20
HETATM   20  C   UNL     1      21.699  49.025  48.807  1.00  0.00     0.198 C 
BRANCH  20  21
HETATM   21  C   UNL     1      20.209  48.813  48.361  1.00  0.00     0.227 C 
BRANCH  21  22
HETATM   22  O   UNL     1      19.492  50.055  48.200  1.00  0.00    -0.349 OA
BRANCH  22  23
HETATM   23  C   UNL     1      20.183  51.246  48.558  1.00  0.00     0.167 C 
HETATM   24  C   UNL     1      19.207  52.404  48.471  1.00  0.00     0.033 C 
ENDBRANCH  22  23
ENDBRANCH  21  22
BRANCH  21  25
HETATM   25  O   UNL     1      19.534  48.027  49.378  1.00  0.00    -0.349 OA
BRANCH  25  26
HETATM   26  C   UNL     1      18.240  48.501  49.736  1.00  0.00     0.167 C 
HETATM   27  C   UNL     1      17.218  47.520  49.195  1.00  0.00     0.033 C 
ENDBRANCH  25  26
ENDBRANCH  21  25
BRANCH  21  28
HETATM   28  C   UNL     1      20.110  47.920  47.096  1.00  0.00     0.097 A 
HETATM   29  N   UNL     1      21.020  46.920  46.920  1.00  0.00    -0.260 NA
HETATM   30  C   UNL     1      20.941  46.169  45.801  1.00  0.00     0.117 A 
HETATM   31  C   UNL     1      19.971  46.337  44.831  1.00  0.00     0.019 A 
HETATM   32  C   UNL     1      19.036  47.345  45.011  1.00  0.00     0.004 A 
HETATM   33  C   UNL     1      19.108  48.152  46.145  1.00  0.00     0.033 A 
ENDBRANCH  21  28
ENDBRANCH  20  21
ENDBRANCH   1  20
TORSDOF 10
ENDMDL
MODEL 8
REMARK VINA RESULT:      -7.3     13.036     16.630
REMARK  10 active torsions:
REMARK  status: ('A' for Active; 'I' for Inactive)
REMARK    1  A    between atoms: C_2  and  O_3 
REMARK    2  A    between atoms: O_3  and  C_4 
REMARK    3  A    between atoms: C_4  and  O_5 
REMARK    4  A    between atoms: C_4  and  C_8 
REMARK    5  A    between atoms: C_4  and  C_14 
REMARK    6  A    between atoms: O_5  and  C_6 
REMARK    7  A    between atoms: C_14  and  N_15 
REMARK       I    between atoms: N_15  and  C_16 
REMARK    8  A    between atoms: C_16  and  C_17 
REMARK    9  A    between atoms: C_19  and  N_20 
REMARK       I    between atoms: N_20  and  C_21 
REMARK   10  A    between atoms: C_21  and  C_22 
ROOT
HETATM    1  N   UNL     1      34.526  52.217  40.717  1.00  0.00    -0.351 N 
HETATM    2  C   UNL     1      35.630  51.738  41.385  1.00  0.00     0.251 C 
HETATM    3  O   UNL     1      35.834  50.551  41.596  1.00  0.00    -0.268 OA
HETATM    4  H   UNL     1      34.525  53.176  40.385  1.00  0.00     0.162 HD
ENDROOT
BRANCH   2   5
HETATM    5  C   UNL     1      36.604  52.769  41.834  1.00  0.00     0.034 A 
HETATM    6  C   UNL     1      37.184  52.695  43.109  1.00  0.00     0.046 A 
HETATM    7  C   UNL     1      38.082  53.670  43.541  1.00  0.00     0.035 A 
HETATM    8  C   UNL     1      38.413  54.714  42.668  1.00  0.00     0.029 A 
HETATM    9  C   UNL     1      37.862  54.776  41.385  1.00  0.00     0.003 A 
HETATM   10  C   UNL     1      36.958  53.801  40.964  1.00  0.00     0.017 A 
BRANCH   7  11
HETATM   11  N   UNL     1      38.674  53.674  44.820  1.00  0.00    -0.322 N 
HETATM   12  C   UNL     1      38.309  54.424  45.930  1.00  0.00     0.263 C 
HETATM   13  O   UNL     1      37.345  55.184  45.963  1.00  0.00    -0.267 OA
HETATM   14  H   UNL     1      39.472  53.064  44.953  1.00  0.00     0.169 HD
BRANCH  12  15
HETATM   15  C   UNL     1      39.168  54.251  47.101  1.00  0.00     0.072 A 
HETATM   16  S   UNL     1      40.865  54.489  47.050  1.00  0.00    -0.097 SA
HETATM   17  C   UNL     1      41.037  54.137  48.714  1.00  0.00     0.050 A 
HETATM   18  C   UNL     1      39.832  53.835  49.305  1.00  0.00     0.009 A 
HETATM   19  C   UNL     1      38.755  53.901  48.375  1.00  0.00     0.025 A 
ENDBRANCH  12  15
ENDBRANCH   7  11
ENDBRANCH   2   5
BRANCH   1  20
HETATM   20  C   UNL     1      33.450  51.332  40.283  1.00  0.00     0.198 C 
BRANCH  20  21
HETATM   21  C   UNL     1      32.079  51.481  41.034  1.00  0.00     0.227 C 
BRANCH  21  22
HETATM   22  O   UNL     1      32.169  52.329  42.197  1.00  0.00    -0.349 OA
BRANCH  22  23
HETATM   23  C   UNL     1      31.984  51.706  43.462  1.00  0.00     0.167 C 
HETATM   24  C   UNL     1      33.243  51.914  44.282  1.00  0.00     0.033 C 
ENDBRANCH  22  23
ENDBRANCH  21  22
BRANCH  21  25
HETATM   25  O   UNL     1      31.648  50.163  41.464  1.00  0.00    -0.349 OA
BRANCH  25  26
HETATM   26  C   UNL     1      32.507  49.097  41.074  1.00  0.00     0.167 C 
HETATM   27  C   UNL     1      31.660  48.041  40.390  1.00  0.00     0.033 C 
ENDBRANCH  25  26
ENDBRANCH  21  25
BRANCH  21  28
HETATM   28  C   UNL     1      30.946  51.932  40.075  1.00  0.00     0.097 A 
HETATM   29  N   UNL     1      29.985  52.780  40.541  1.00  0.00    -0.260 NA
HETATM   30  C   UNL     1      28.988  53.141  39.706  1.00  0.00     0.117 A 
HETATM   31  C   UNL     1      28.898  52.723  38.391  1.00  0.00     0.019 A 
HETATM   32  C   UNL     1      29.880  51.871  37.909  1.00  0.00     0.004 A 
HETATM   33  C   UNL     1      30.907  51.460  38.757  1.00  0.00     0.033 A 
ENDBRANCH  21  28
ENDBRANCH  20  21
ENDBRANCH   1  20
TORSDOF 10
ENDMDL
MODEL 9
REMARK VINA RESULT:      -7.2     11.447     13.655
REMARK  10 active torsions:
REMARK  status: ('A' for Active; 'I' for Inactive)
REMARK    1  A    between atoms: C_2  and  O_3 
REMARK    2  A    between atoms: O_3  and  C_4 
REMARK    3  A    between atoms: C_4  and  O_5 
REMARK    4  A    between atoms: C_4  and  C_8 
REMARK    5  A    between atoms: C_4  and  C_14 
REMARK    6  A    between atoms: O_5  and  C_6 
REMARK    7  A    between atoms: C_14  and  N_15 
REMARK       I    between atoms: N_15  and  C_16 
REMARK    8  A    between atoms: C_16  and  C_17 
REMARK    9  A    between atoms: C_19  and  N_20 
REMARK       I    between atoms: N_20  and  C_21 
REMARK   10  A    between atoms: C_21  and  C_22 
ROOT
HETATM    1  N   UNL     1      31.682  49.411  40.387  1.00  0.00    -0.351 N 
HETATM    2  C   UNL     1      30.747  48.858  41.232  1.00  0.00     0.251 C 
HETATM    3  O   UNL     1      30.715  49.063  42.438  1.00  0.00    -0.268 OA
HETATM    4  H   UNL     1      31.525  49.381  39.385  1.00  0.00     0.162 HD
ENDROOT
BRANCH   2   5
HETATM    5  C   UNL     1      29.733  47.985  40.581  1.00  0.00     0.034 A 
HETATM    6  C   UNL     1      28.377  48.342  40.586  1.00  0.00     0.046 A 
HETATM    7  C   UNL     1      27.421  47.516  39.994  1.00  0.00     0.035 A 
HETATM    8  C   UNL     1      27.844  46.334  39.373  1.00  0.00     0.029 A 
HETATM    9  C   UNL     1      29.199  45.990  39.338  1.00  0.00     0.003 A 
HETATM   10  C   UNL     1      30.146  46.817  39.939  1.00  0.00     0.017 A 
BRANCH   7  11
HETATM   11  N   UNL     1      26.040  47.798  39.993  1.00  0.00    -0.322 N 
HETATM   12  C   UNL     1      25.350  48.694  39.189  1.00  0.00     0.263 C 
HETATM   13  O   UNL     1      25.867  49.357  38.293  1.00  0.00    -0.267 OA
HETATM   14  H   UNL     1      25.473  47.297  40.667  1.00  0.00     0.169 HD
BRANCH  12  15
HETATM   15  C   UNL     1      23.921  48.809  39.476  1.00  0.00     0.072 A 
HETATM   16  S   UNL     1      22.920  49.996  38.747  1.00  0.00    -0.097 SA
HETATM   17  C   UNL     1      21.529  49.425  39.560  1.00  0.00     0.050 A 
HETATM   18  C   UNL     1      21.811  48.357  40.379  1.00  0.00     0.009 A 
HETATM   19  C   UNL     1      23.190  48.001  40.331  1.00  0.00     0.025 A 
ENDBRANCH  12  15
ENDBRANCH   7  11
ENDBRANCH   2   5
BRANCH   1  20
HETATM   20  C   UNL     1      32.782  50.227  40.892  1.00  0.00     0.198 C 
BRANCH  20  21
HETATM   21  C   UNL     1      32.565  51.782  40.866  1.00  0.00     0.227 C 
BRANCH  21  22
HETATM   22  O   UNL     1      33.700  52.495  40.334  1.00  0.00    -0.349 OA
BRANCH  22  23
HETATM   23  C   UNL     1      34.626  51.743  39.559  1.00  0.00     0.167 C 
HETATM   24  C   UNL     1      36.028  52.139  39.981  1.00  0.00     0.033 C 
ENDBRANCH  22  23
ENDBRANCH  21  22
BRANCH  21  25
HETATM   25  O   UNL     1      32.339  52.235  42.226  1.00  0.00    -0.349 OA
BRANCH  25  26
HETATM   26  C   UNL     1      33.089  51.541  43.218  1.00  0.00     0.167 C 
HETATM   27  C   UNL     1      32.497  51.881  44.573  1.00  0.00     0.033 C 
ENDBRANCH  25  26
ENDBRANCH  21  25
BRANCH  21  28
HETATM   28  C   UNL     1      31.248  52.165  40.139  1.00  0.00     0.097 A 
HETATM   29  N   UNL     1      31.068  51.770  38.847  1.00  0.00    -0.260 NA
HETATM   30  C   UNL     1      29.931  52.135  38.216  1.00  0.00     0.117 A 
HETATM   31  C   UNL     1      28.922  52.866  38.815  1.00  0.00     0.019 A 
HETATM   32  C   UNL     1      29.096  53.260  40.133  1.00  0.00     0.004 A 
HETATM   33  C   UNL     1      30.271  52.919  40.801  1.00  0.00     0.033 A 
ENDBRANCH  21  28
ENDBRANCH  20  21
ENDBRANCH   1  20
TORSDOF 10
ENDMDL
MODEL 10
REMARK VINA RESULT:      -7.2     12.198     14.366
REMARK  10 active torsions:
REMARK  status: ('A' for Active; 'I' for Inactive)
REMARK    1  A    between atoms: C_2  and  O_3 
REMARK    2  A    between atoms: O_3  and  C_4 
REMARK    3  A    between atoms: C_4  and  O_5 
REMARK    4  A    between atoms: C_4  and  C_8 
REMARK    5  A    between atoms: C_4  and  C_14 
REMARK    6  A    between atoms: O_5  and  C_6 
REMARK    7  A    between atoms: C_14  and  N_15 
REMARK       I    between atoms: N_15  and  C_16 
REMARK    8  A    between atoms: C_16  and  C_17 
REMARK    9  A    between atoms: C_19  and  N_20 
REMARK       I    between atoms: N_20  and  C_21 
REMARK   10  A    between atoms: C_21  and  C_22 
ROOT
HETATM    1  N   UNL     1      32.903  51.792  39.391  1.00  0.00    -0.351 N 
HETATM    2  C   UNL     1      31.788  52.468  39.835  1.00  0.00     0.251 C 
HETATM    3  O   UNL     1      31.833  53.436  40.582  1.00  0.00    -0.268 OA
HETATM    4  H   UNL     1      32.814  51.149  38.612  1.00  0.00     0.162 HD
ENDROOT
BRANCH   2   5
HETATM    5  C   UNL     1      30.486  51.956  39.330  1.00  0.00     0.034 A 
HETATM    6  C   UNL     1      30.208  50.581  39.336  1.00  0.00     0.046 A 
HETATM    7  C   UNL     1      28.997  50.097  38.844  1.00  0.00     0.035 A 
HETATM    8  C   UNL     1      28.050  51.012  38.366  1.00  0.00     0.029 A 
HETATM    9  C   UNL     1      28.309  52.385  38.387  1.00  0.00     0.003 A 
HETATM   10  C   UNL     1      29.526  52.861  38.873  1.00  0.00     0.017 A 
BRANCH   7  11
HETATM   11  N   UNL     1      28.669  48.727  38.790  1.00  0.00    -0.322 N 
HETATM   12  C   UNL     1      28.260  47.903  39.829  1.00  0.00     0.263 C 
HETATM   13  O   UNL     1      28.071  48.287  40.981  1.00  0.00    -0.267 OA
HETATM   14  H   UNL     1      28.748  48.276  37.886  1.00  0.00     0.169 HD
BRANCH  12  15
HETATM   15  C   UNL     1      28.057  46.502  39.463  1.00  0.00     0.072 A 
HETATM   16  S   UNL     1      26.529  45.876  38.999  1.00  0.00    -0.097 SA
HETATM   17  C   UNL     1      27.168  44.312  38.739  1.00  0.00     0.050 A 
HETATM   18  C   UNL     1      28.516  44.254  39.006  1.00  0.00     0.009 A 
HETATM   19  C   UNL     1      29.028  45.516  39.423  1.00  0.00     0.025 A 
ENDBRANCH  12  15
ENDBRANCH   7  11
ENDBRANCH   2   5
BRANCH   1  20
HETATM   20  C   UNL     1      34.241  52.133  39.861  1.00  0.00     0.198 C 
BRANCH  20  21
HETATM   21  C   UNL     1      34.736  51.391  41.153  1.00  0.00     0.227 C 
BRANCH  21  22
HETATM   22  O   UNL     1      35.194  52.298  42.177  1.00  0.00    -0.349 OA
BRANCH  22  23
HETATM   23  C   UNL     1      36.251  51.842  43.012  1.00  0.00     0.167 C 
HETATM   24  C   UNL     1      36.302  52.732  44.240  1.00  0.00     0.033 C 
ENDBRANCH  22  23
ENDBRANCH  21  22
BRANCH  21  25
HETATM   25  O   UNL     1      35.840  50.522  40.788  1.00  0.00    -0.349 OA
BRANCH  25  26
HETATM   26  C   UNL     1      36.405  50.783  39.508  1.00  0.00     0.167 C 
HETATM   27  C   UNL     1      37.824  51.279  39.717  1.00  0.00     0.033 C 
ENDBRANCH  25  26
ENDBRANCH  21  25
BRANCH  21  28
HETATM   28  C   UNL     1      33.667  50.403  41.691  1.00  0.00     0.097 A 
HETATM   29  N   UNL     1      33.560  49.169  41.120  1.00  0.00    -0.260 NA
HETATM   30  C   UNL     1      32.607  48.330  41.577  1.00  0.00     0.117 A 
HETATM   31  C   UNL     1      31.747  48.637  42.614  1.00  0.00     0.019 A 
HETATM   32  C   UNL     1      31.860  49.886  43.207  1.00  0.00     0.004 A 
HETATM   33  C   UNL     1      32.818  50.783  42.738  1.00  0.00     0.033 A 
ENDBRANCH  21  28
ENDBRANCH  20  21
ENDBRANCH   1  20
TORSDOF 10
ENDMDL
