MODEL 1
REMARK VINA RESULT:      -8.4      0.000      0.000
REMARK  6 active torsions:
REMARK  status: ('A' for Active; 'I' for Inactive)
REMARK    1  A    between atoms: C_3  and  C_4 
REMARK       I    between atoms: C_4  and  N_5 
REMARK    2  A    between atoms: N_5  and  C_6 
REMARK    3  A    between atoms: C_6  and  C_7 
REMARK    4  A    between atoms: C_7  and  N_8 
REMARK    5  A    between atoms: C_7  and  C_14 
REMARK    6  A    between atoms: C_21  and  C_22 
ROOT
HETATM    1  C   UNL     1      27.278  43.156  51.588  1.00  0.00     0.272 C 
HETATM    2  N   UNL     1      27.376  44.050  50.539  1.00  0.00    -0.354 N 
HETATM    3  O   UNL     1      26.404  42.300  51.650  1.00  0.00    -0.266 OA
HETATM    4  H   UNL     1      28.061  44.787  50.710  1.00  0.00     0.162 HD
ENDROOT
BRANCH   1   5
HETATM    5  C   UNL     1      28.357  43.322  52.577  1.00  0.00     0.152 A 
HETATM    6  C   UNL     1      28.299  43.954  53.855  1.00  0.00     0.003 A 
HETATM    7  C   UNL     1      27.124  44.640  54.457  1.00  0.00     0.053 C 
HETATM    8  C   UNL     1      29.570  43.803  54.390  1.00  0.00     0.069 A 
HETATM    9  N   UNL     1      30.291  43.145  53.427  1.00  0.00    -0.276 N 
HETATM   10  N   UNL     1      29.593  42.843  52.317  1.00  0.00    -0.168 NA
HETATM   11  H   UNL     1      31.265  42.864  53.484  1.00  0.00     0.189 HD
BRANCH   8  12
HETATM   12  C   UNL     1      30.153  44.187  55.673  1.00  0.00    -0.007 A 
HETATM   13  C   UNL     1      31.062  43.343  56.329  1.00  0.00     0.014 A 
HETATM   14  C   UNL     1      31.603  43.708  57.564  1.00  0.00     0.001 A 
HETATM   15  C   UNL     1      31.243  44.917  58.156  1.00  0.00     0.000 A 
HETATM   16  C   UNL     1      30.343  45.763  57.513  1.00  0.00     0.001 A 
HETATM   17  C   UNL     1      29.799  45.399  56.280  1.00  0.00     0.014 A 
ENDBRANCH   8  12
ENDBRANCH   1   5
BRANCH   2  18
HETATM   18  C   UNL     1      26.328  44.220  49.559  1.00  0.00     0.156 C 
BRANCH  18  19
HETATM   19  C   UNL     1      25.597  45.596  49.600  1.00  0.00     0.209 C 
BRANCH  19  20
HETATM   20  N   UNL     1      24.082  45.475  49.837  1.00  0.00    -0.065 N 
HETATM   21  H   UNL     1      23.869  46.072  50.642  1.00  0.00     0.280 HD
HETATM   22  C   UNL     1      23.534  44.108  50.216  1.00  0.00     0.235 C 
HETATM   23  C   UNL     1      22.384  43.864  49.256  1.00  0.00     0.029 C 
HETATM   24  C   UNL     1      21.901  45.253  48.892  1.00  0.00     0.029 C 
HETATM   25  C   UNL     1      23.185  46.044  48.752  1.00  0.00     0.235 C 
ENDBRANCH  19  20
BRANCH  19  26
HETATM   26  C   UNL     1      26.213  46.552  50.670  1.00  0.00     0.010 C 
HETATM   27  C   UNL     1      26.542  47.933  50.083  1.00  0.00     0.011 C 
HETATM   28  C   UNL     1      25.295  46.760  51.884  1.00  0.00     0.011 C 
ENDBRANCH  19  26
ENDBRANCH  18  19
ENDBRANCH   2  18
TORSDOF 6
ENDMDL
MODEL 2
REMARK VINA RESULT:      -8.0      3.590      5.663
REMARK  6 active torsions:
REMARK  status: ('A' for Active; 'I' for Inactive)
REMARK    1  A    between atoms: C_3  and  C_4 
REMARK       I    between atoms: C_4  and  N_5 
REMARK    2  A    between atoms: N_5  and  C_6 
REMARK    3  A    between atoms: C_6  and  C_7 
REMARK    4  A    between atoms: C_7  and  N_8 
REMARK    5  A    between atoms: C_7  and  C_14 
REMARK    6  A    between atoms: C_21  and  C_22 
ROOT
HETATM    1  C   UNL     1      24.965  47.793  50.027  1.00  0.00     0.272 C 
HETATM    2  N   UNL     1      23.590  47.704  49.922  1.00  0.00    -0.354 N 
HETATM    3  O   UNL     1      25.642  48.501  49.291  1.00  0.00    -0.266 OA
HETATM    4  H   UNL     1      23.196  46.965  50.506  1.00  0.00     0.162 HD
ENDROOT
BRANCH   1   5
HETATM    5  C   UNL     1      25.502  46.990  51.140  1.00  0.00     0.152 A 
HETATM    6  C   UNL     1      26.306  45.813  51.075  1.00  0.00     0.003 A 
HETATM    7  C   UNL     1      26.745  45.100  49.845  1.00  0.00     0.053 C 
HETATM    8  C   UNL     1      26.565  45.481  52.397  1.00  0.00     0.069 A 
HETATM    9  N   UNL     1      25.901  46.420  53.142  1.00  0.00    -0.276 N 
HETATM   10  N   UNL     1      25.245  47.345  52.417  1.00  0.00    -0.168 NA
HETATM   11  H   UNL     1      25.877  46.486  54.155  1.00  0.00     0.189 HD
BRANCH   8  12
HETATM   12  C   UNL     1      27.356  44.416  53.011  1.00  0.00    -0.007 A 
HETATM   13  C   UNL     1      28.351  44.715  53.953  1.00  0.00     0.014 A 
HETATM   14  C   UNL     1      29.116  43.694  54.523  1.00  0.00     0.001 A 
HETATM   15  C   UNL     1      28.894  42.368  54.162  1.00  0.00     0.000 A 
HETATM   16  C   UNL     1      27.906  42.059  53.229  1.00  0.00     0.001 A 
HETATM   17  C   UNL     1      27.143  43.079  52.655  1.00  0.00     0.014 A 
ENDBRANCH   8  12
ENDBRANCH   1   5
BRANCH   2  18
HETATM   18  C   UNL     1      22.859  48.233  48.794  1.00  0.00     0.156 C 
BRANCH  18  19
HETATM   19  C   UNL     1      21.382  48.635  49.089  1.00  0.00     0.209 C 
BRANCH  19  20
HETATM   20  N   UNL     1      21.149  50.156  49.072  1.00  0.00    -0.065 N 
HETATM   21  H   UNL     1      22.074  50.586  48.977  1.00  0.00     0.280 HD
HETATM   22  C   UNL     1      20.553  50.792  50.317  1.00  0.00     0.235 C 
HETATM   23  C   UNL     1      19.387  51.624  49.815  1.00  0.00     0.029 C 
HETATM   24  C   UNL     1      19.767  51.979  48.393  1.00  0.00     0.029 C 
HETATM   25  C   UNL     1      20.401  50.706  47.871  1.00  0.00     0.235 C 
ENDBRANCH  19  20
BRANCH  19  26
HETATM   26  C   UNL     1      20.383  47.948  48.105  1.00  0.00     0.010 C 
HETATM   27  C   UNL     1      21.102  47.030  47.105  1.00  0.00     0.011 C 
HETATM   28  C   UNL     1      19.311  47.117  48.825  1.00  0.00     0.011 C 
ENDBRANCH  19  26
ENDBRANCH  18  19
ENDBRANCH   2  18
TORSDOF 6
ENDMDL
MODEL 3
REMARK VINA RESULT:      -7.9      0.961      2.629
REMARK  6 active torsions:
REMARK  status: ('A' for Active; 'I' for Inactive)
REMARK    1  A    between atoms: C_3  and  C_4 
REMARK       I    between atoms: C_4  and  N_5 
REMARK    2  A    between atoms: N_5  and  C_6 
REMARK    3  A    between atoms: C_6  and  C_7 
REMARK    4  A    between atoms: C_7  and  N_8 
REMARK    5  A    between atoms: C_7  and  C_14 
REMARK    6  A    between atoms: C_21  and  C_22 
ROOT
HETATM    1  C   UNL     1      27.695  42.200  51.807  1.00  0.00     0.272 C 
HETATM    2  N   UNL     1      27.353  43.185  50.900  1.00  0.00    -0.354 N 
HETATM    3  O   UNL     1      27.235  41.065  51.757  1.00  0.00    -0.266 OA
HETATM    4  H   UNL     1      27.705  44.106  51.166  1.00  0.00     0.162 HD
ENDROOT
BRANCH   1   5
HETATM    5  C   UNL     1      28.694  42.655  52.789  1.00  0.00     0.152 A 
HETATM    6  C   UNL     1      28.479  43.368  54.006  1.00  0.00     0.003 A 
HETATM    7  C   UNL     1      27.177  43.859  54.533  1.00  0.00     0.053 C 
HETATM    8  C   UNL     1      29.741  43.513  54.566  1.00  0.00     0.069 A 
HETATM    9  N   UNL     1      30.600  42.930  53.672  1.00  0.00    -0.276 N 
HETATM   10  N   UNL     1      30.006  42.406  52.586  1.00  0.00    -0.168 NA
HETATM   11  H   UNL     1      31.609  42.849  53.765  1.00  0.00     0.189 HD
BRANCH   8  12
HETATM   12  C   UNL     1      30.202  44.109  55.818  1.00  0.00    -0.007 A 
HETATM   13  C   UNL     1      31.177  43.471  56.598  1.00  0.00     0.014 A 
HETATM   14  C   UNL     1      31.603  44.037  57.803  1.00  0.00     0.001 A 
HETATM   15  C   UNL     1      31.061  45.244  58.238  1.00  0.00     0.000 A 
HETATM   16  C   UNL     1      30.093  45.887  57.470  1.00  0.00     0.001 A 
HETATM   17  C   UNL     1      29.665  45.321  56.267  1.00  0.00     0.014 A 
ENDBRANCH   8  12
ENDBRANCH   1   5
BRANCH   2  18
HETATM   18  C   UNL     1      26.252  43.046  49.976  1.00  0.00     0.156 C 
BRANCH  18  19
HETATM   19  C   UNL     1      24.856  43.450  50.540  1.00  0.00     0.209 C 
BRANCH  19  20
HETATM   20  N   UNL     1      24.692  44.967  50.734  1.00  0.00    -0.065 N 
HETATM   21  H   UNL     1      23.697  45.169  50.594  1.00  0.00     0.280 HD
HETATM   22  C   UNL     1      25.412  45.884  49.758  1.00  0.00     0.235 C 
HETATM   23  C   UNL     1      26.166  46.872  50.629  1.00  0.00     0.029 C 
HETATM   24  C   UNL     1      25.356  46.937  51.907  1.00  0.00     0.029 C 
HETATM   25  C   UNL     1      24.945  45.496  52.134  1.00  0.00     0.235 C 
ENDBRANCH  19  20
BRANCH  19  26
HETATM   26  C   UNL     1      23.690  42.913  49.651  1.00  0.00     0.010 C 
HETATM   27  C   UNL     1      22.425  43.776  49.783  1.00  0.00     0.011 C 
HETATM   28  C   UNL     1      24.059  42.838  48.163  1.00  0.00     0.011 C 
ENDBRANCH  19  26
ENDBRANCH  18  19
ENDBRANCH   2  18
TORSDOF 6
ENDMDL
MODEL 4
REMARK VINA RESULT:      -7.9      3.159      5.154
REMARK  6 active torsions:
REMARK  status: ('A' for Active; 'I' for Inactive)
REMARK    1  A    between atoms: C_3  and  C_4 
REMARK       I    between atoms: C_4  and  N_5 
REMARK    2  A    between atoms: N_5  and  C_6 
REMARK    3  A    between atoms: C_6  and  C_7 
REMARK    4  A    between atoms: C_7  and  N_8 
REMARK    5  A    between atoms: C_7  and  C_14 
REMARK    6  A    between atoms: C_21  and  C_22 
ROOT
HETATM    1  C   UNL     1      27.359  43.519  51.146  1.00  0.00     0.272 C 
HETATM    2  N   UNL     1      26.666  42.324  51.202  1.00  0.00    -0.354 N 
HETATM    3  O   UNL     1      27.534  44.136  50.102  1.00  0.00    -0.266 OA
HETATM    4  H   UNL     1      26.737  41.868  52.112  1.00  0.00     0.162 HD
ENDROOT
BRANCH   1   5
HETATM    5  C   UNL     1      27.810  43.975  52.472  1.00  0.00     0.152 A 
HETATM    6  C   UNL     1      28.910  43.499  53.246  1.00  0.00     0.003 A 
HETATM    7  C   UNL     1      29.829  42.383  52.895  1.00  0.00     0.053 C 
HETATM    8  C   UNL     1      28.915  44.288  54.388  1.00  0.00     0.069 A 
HETATM    9  N   UNL     1      27.843  45.130  54.249  1.00  0.00    -0.276 N 
HETATM   10  N   UNL     1      27.150  44.968  53.107  1.00  0.00    -0.168 NA
HETATM   11  H   UNL     1      27.548  45.850  54.901  1.00  0.00     0.189 HD
BRANCH   8  12
HETATM   12  C   UNL     1      29.800  44.338  55.549  1.00  0.00    -0.007 A 
HETATM   13  C   UNL     1      29.766  45.428  56.430  1.00  0.00     0.014 A 
HETATM   14  C   UNL     1      30.627  45.479  57.529  1.00  0.00     0.001 A 
HETATM   15  C   UNL     1      31.529  44.443  57.759  1.00  0.00     0.000 A 
HETATM   16  C   UNL     1      31.571  43.354  56.892  1.00  0.00     0.001 A 
HETATM   17  C   UNL     1      30.712  43.303  55.791  1.00  0.00     0.014 A 
ENDBRANCH   8  12
ENDBRANCH   1   5
BRANCH   2  18
HETATM   18  C   UNL     1      26.305  41.577  50.019  1.00  0.00     0.156 C 
BRANCH  18  19
HETATM   19  C   UNL     1      27.454  40.731  49.392  1.00  0.00     0.209 C 
BRANCH  19  20
HETATM   20  N   UNL     1      27.752  39.437  50.169  1.00  0.00    -0.065 N 
HETATM   21  H   UNL     1      27.051  39.382  50.914  1.00  0.00     0.280 HD
HETATM   22  C   UNL     1      29.088  39.339  50.889  1.00  0.00     0.235 C 
HETATM   23  C   UNL     1      29.679  38.013  50.444  1.00  0.00     0.029 C 
HETATM   24  C   UNL     1      28.473  37.162  50.104  1.00  0.00     0.029 C 
HETATM   25  C   UNL     1      27.540  38.137  49.414  1.00  0.00     0.235 C 
ENDBRANCH  19  20
BRANCH  19  26
HETATM   26  C   UNL     1      27.172  40.381  47.896  1.00  0.00     0.010 C 
HETATM   27  C   UNL     1      25.798  40.893  47.437  1.00  0.00     0.011 C 
HETATM   28  C   UNL     1      28.232  40.948  46.940  1.00  0.00     0.011 C 
ENDBRANCH  19  26
ENDBRANCH  18  19
ENDBRANCH   2  18
TORSDOF 6
ENDMDL
MODEL 5
REMARK VINA RESULT:      -7.9      2.065      3.587
REMARK  6 active torsions:
REMARK  status: ('A' for Active; 'I' for Inactive)
REMARK    1  A    between atoms: C_3  and  C_4 
REMARK       I    between atoms: C_4  and  N_5 
REMARK    2  A    between atoms: N_5  and  C_6 
REMARK    3  A    between atoms: C_6  and  C_7 
REMARK    4  A    between atoms: C_7  and  N_8 
REMARK    5  A    between atoms: C_7  and  C_14 
REMARK    6  A    between atoms: C_21  and  C_22 
ROOT
HETATM    1  C   UNL     1      25.692  44.971  52.403  1.00  0.00     0.272 C 
HETATM    2  N   UNL     1      26.164  45.101  51.110  1.00  0.00    -0.354 N 
HETATM    3  O   UNL     1      24.561  44.574  52.659  1.00  0.00    -0.266 OA
HETATM    4  H   UNL     1      27.064  45.580  51.065  1.00  0.00     0.162 HD
ENDROOT
BRANCH   1   5
HETATM    5  C   UNL     1      26.707  45.312  53.414  1.00  0.00     0.152 A 
HETATM    6  C   UNL     1      27.532  44.429  54.174  1.00  0.00     0.003 A 
HETATM    7  C   UNL     1      27.510  42.942  54.143  1.00  0.00     0.053 C 
HETATM    8  C   UNL     1      28.331  45.260  54.947  1.00  0.00     0.069 A 
HETATM    9  N   UNL     1      27.930  46.533  54.640  1.00  0.00    -0.276 N 
HETATM   10  N   UNL     1      26.949  46.604  53.723  1.00  0.00    -0.168 NA
HETATM   11  H   UNL     1      28.307  47.396  55.020  1.00  0.00     0.189 HD
BRANCH   8  12
HETATM   12  C   UNL     1      29.404  44.988  55.901  1.00  0.00    -0.007 A 
HETATM   13  C   UNL     1      30.361  43.997  55.639  1.00  0.00     0.014 A 
HETATM   14  C   UNL     1      31.375  43.730  56.563  1.00  0.00     0.001 A 
HETATM   15  C   UNL     1      31.444  44.449  57.753  1.00  0.00     0.000 A 
HETATM   16  C   UNL     1      30.500  45.437  58.023  1.00  0.00     0.001 A 
HETATM   17  C   UNL     1      29.484  45.703  57.102  1.00  0.00     0.014 A 
ENDBRANCH   8  12
ENDBRANCH   1   5
BRANCH   2  18
HETATM   18  C   UNL     1      25.301  45.023  49.954  1.00  0.00     0.156 C 
BRANCH  18  19
HETATM   19  C   UNL     1      25.231  43.623  49.272  1.00  0.00     0.209 C 
BRANCH  19  20
HETATM   20  N   UNL     1      26.275  42.629  49.809  1.00  0.00    -0.065 N 
HETATM   21  H   UNL     1      26.946  43.183  50.351  1.00  0.00     0.280 HD
HETATM   22  C   UNL     1      27.125  41.881  48.795  1.00  0.00     0.235 C 
HETATM   23  C   UNL     1      27.011  40.419  49.187  1.00  0.00     0.029 C 
HETATM   24  C   UNL     1      26.734  40.453  50.676  1.00  0.00     0.029 C 
HETATM   25  C   UNL     1      25.778  41.618  50.827  1.00  0.00     0.235 C 
ENDBRANCH  19  20
BRANCH  19  26
HETATM   26  C   UNL     1      23.808  42.989  49.386  1.00  0.00     0.010 C 
HETATM   27  C   UNL     1      22.741  44.036  49.740  1.00  0.00     0.011 C 
HETATM   28  C   UNL     1      23.366  42.277  48.100  1.00  0.00     0.011 C 
ENDBRANCH  19  26
ENDBRANCH  18  19
ENDBRANCH   2  18
TORSDOF 6
ENDMDL
MODEL 6
REMARK VINA RESULT:      -7.8      2.524      8.276
REMARK  6 active torsions:
REMARK  status: ('A' for Active; 'I' for Inactive)
REMARK    1  A    between atoms: C_3  and  C_4 
REMARK       I    between atoms: C_4  and  N_5 
REMARK    2  A    between atoms: N_5  and  C_6 
REMARK    3  A    between atoms: C_6  and  C_7 
REMARK    4  A    between atoms: C_7  and  N_8 
REMARK    5  A    between atoms: C_7  and  C_14 
REMARK    6  A    between atoms: C_21  and  C_22 
ROOT
HETATM    1  C   UNL     1      26.088  44.596  50.480  1.00  0.00     0.272 C 
HETATM    2  N   UNL     1      25.781  43.983  51.680  1.00  0.00    -0.354 N 
HETATM    3  O   UNL     1      27.099  44.332  49.840  1.00  0.00    -0.266 OA
HETATM    4  H   UNL     1      24.988  44.417  52.154  1.00  0.00     0.162 HD
ENDROOT
BRANCH   1   5
HETATM    5  C   UNL     1      25.049  45.547  50.047  1.00  0.00     0.152 A 
HETATM    6  C   UNL     1      25.151  46.963  49.899  1.00  0.00     0.003 A 
HETATM    7  C   UNL     1      26.338  47.807  50.201  1.00  0.00     0.053 C 
HETATM    8  C   UNL     1      23.907  47.366  49.434  1.00  0.00     0.069 A 
HETATM    9  N   UNL     1      23.159  46.221  49.366  1.00  0.00    -0.276 N 
HETATM   10  N   UNL     1      23.813  45.104  49.733  1.00  0.00    -0.168 NA
HETATM   11  H   UNL     1      22.194  46.143  49.059  1.00  0.00     0.189 HD
BRANCH   8  12
HETATM   12  C   UNL     1      23.374  48.670  49.047  1.00  0.00    -0.007 A 
HETATM   13  C   UNL     1      22.070  49.045  49.403  1.00  0.00     0.014 A 
HETATM   14  C   UNL     1      21.560  50.287  49.015  1.00  0.00     0.001 A 
HETATM   15  C   UNL     1      22.345  51.165  48.272  1.00  0.00     0.000 A 
HETATM   16  C   UNL     1      23.642  50.804  47.915  1.00  0.00     0.001 A 
HETATM   17  C   UNL     1      24.153  49.562  48.299  1.00  0.00     0.014 A 
ENDBRANCH   8  12
ENDBRANCH   1   5
BRANCH   2  18
HETATM   18  C   UNL     1      26.731  43.171  52.405  1.00  0.00     0.156 C 
BRANCH  18  19
HETATM   19  C   UNL     1      27.891  43.958  53.088  1.00  0.00     0.209 C 
BRANCH  19  20
HETATM   20  N   UNL     1      27.409  44.933  54.176  1.00  0.00    -0.065 N 
HETATM   21  H   UNL     1      26.628  44.470  54.651  1.00  0.00     0.280 HD
HETATM   22  C   UNL     1      26.847  46.271  53.725  1.00  0.00     0.235 C 
HETATM   23  C   UNL     1      27.592  47.308  54.546  1.00  0.00     0.029 C 
HETATM   24  C   UNL     1      27.978  46.575  55.813  1.00  0.00     0.029 C 
HETATM   25  C   UNL     1      28.378  45.201  55.314  1.00  0.00     0.235 C 
ENDBRANCH  19  20
BRANCH  19  26
HETATM   26  C   UNL     1      28.968  43.002  53.692  1.00  0.00     0.010 C 
HETATM   27  C   UNL     1      28.491  41.542  53.713  1.00  0.00     0.011 C 
HETATM   28  C   UNL     1      30.303  43.053  52.936  1.00  0.00     0.011 C 
ENDBRANCH  19  26
ENDBRANCH  18  19
ENDBRANCH   2  18
TORSDOF 6
ENDMDL
MODEL 7
REMARK VINA RESULT:      -7.8      3.235      4.987
REMARK  6 active torsions:
REMARK  status: ('A' for Active; 'I' for Inactive)
REMARK    1  A    between atoms: C_3  and  C_4 
REMARK       I    between atoms: C_4  and  N_5 
REMARK    2  A    between atoms: N_5  and  C_6 
REMARK    3  A    between atoms: C_6  and  C_7 
REMARK    4  A    between atoms: C_7  and  N_8 
REMARK    5  A    between atoms: C_7  and  C_14 
REMARK    6  A    between atoms: C_21  and  C_22 
ROOT
HETATM    1  C   UNL     1      23.728  45.714  49.409  1.00  0.00     0.272 C 
HETATM    2  N   UNL     1      23.008  46.893  49.392  1.00  0.00    -0.354 N 
HETATM    3  O   UNL     1      23.787  44.958  48.446  1.00  0.00    -0.266 OA
HETATM    4  H   UNL     1      22.940  47.328  50.313  1.00  0.00     0.162 HD
ENDROOT
BRANCH   1   5
HETATM    5  C   UNL     1      24.442  45.504  50.681  1.00  0.00     0.152 A 
HETATM    6  C   UNL     1      25.521  46.261  51.226  1.00  0.00     0.003 A 
HETATM    7  C   UNL     1      26.205  47.421  50.593  1.00  0.00     0.053 C 
HETATM    8  C   UNL     1      25.794  45.668  52.450  1.00  0.00     0.069 A 
HETATM    9  N   UNL     1      24.921  44.617  52.545  1.00  0.00    -0.276 N 
HETATM   10  N   UNL     1      24.092  44.483  51.494  1.00  0.00    -0.168 NA
HETATM   11  H   UNL     1      24.838  43.964  53.319  1.00  0.00     0.189 HD
BRANCH   8  12
HETATM   12  C   UNL     1      26.749  45.986  53.510  1.00  0.00    -0.007 A 
HETATM   13  C   UNL     1      27.674  45.028  53.952  1.00  0.00     0.014 A 
HETATM   14  C   UNL     1      28.573  45.333  54.977  1.00  0.00     0.001 A 
HETATM   15  C   UNL     1      28.560  46.594  55.568  1.00  0.00     0.000 A 
HETATM   16  C   UNL     1      27.647  47.553  55.135  1.00  0.00     0.001 A 
HETATM   17  C   UNL     1      26.746  47.250  54.113  1.00  0.00     0.014 A 
ENDBRANCH   8  12
ENDBRANCH   1   5
BRANCH   2  18
HETATM   18  C   UNL     1      22.069  47.217  48.343  1.00  0.00     0.156 C 
BRANCH  18  19
HETATM   19  C   UNL     1      21.803  48.740  48.137  1.00  0.00     0.209 C 
BRANCH  19  20
HETATM   20  N   UNL     1      20.375  49.166  48.522  1.00  0.00    -0.065 N 
HETATM   21  H   UNL     1      20.467  50.056  49.023  1.00  0.00     0.280 HD
HETATM   22  C   UNL     1      19.603  48.267  49.474  1.00  0.00     0.235 C 
HETATM   23  C   UNL     1      18.266  48.031  48.794  1.00  0.00     0.029 C 
HETATM   24  C   UNL     1      18.065  49.257  47.929  1.00  0.00     0.029 C 
HETATM   25  C   UNL     1      19.449  49.524  47.374  1.00  0.00     0.235 C 
ENDBRANCH  19  20
BRANCH  19  26
HETATM   26  C   UNL     1      22.832  49.622  48.912  1.00  0.00     0.010 C 
HETATM   27  C   UNL     1      23.947  50.143  47.992  1.00  0.00     0.011 C 
HETATM   28  C   UNL     1      22.184  50.830  49.602  1.00  0.00     0.011 C 
ENDBRANCH  19  26
ENDBRANCH  18  19
ENDBRANCH   2  18
TORSDOF 6
ENDMDL
MODEL 8
REMARK VINA RESULT:      -7.6      3.205      5.429
REMARK  6 active torsions:
REMARK  status: ('A' for Active; 'I' for Inactive)
REMARK    1  A    between atoms: C_3  and  C_4 
REMARK       I    between atoms: C_4  and  N_5 
REMARK    2  A    between atoms: N_5  and  C_6 
REMARK    3  A    between atoms: C_6  and  C_7 
REMARK    4  A    between atoms: C_7  and  N_8 
REMARK    5  A    between atoms: C_7  and  C_14 
REMARK    6  A    between atoms: C_21  and  C_22 
ROOT
HETATM    1  C   UNL     1      23.765  46.070  49.463  1.00  0.00     0.272 C 
HETATM    2  N   UNL     1      23.271  47.361  49.459  1.00  0.00    -0.354 N 
HETATM    3  O   UNL     1      23.650  45.313  48.507  1.00  0.00    -0.266 OA
HETATM    4  H   UNL     1      23.318  47.805  50.377  1.00  0.00     0.162 HD
ENDROOT
BRANCH   1   5
HETATM    5  C   UNL     1      24.476  45.739  50.711  1.00  0.00     0.152 A 
HETATM    6  C   UNL     1      25.612  46.387  51.282  1.00  0.00     0.003 A 
HETATM    7  C   UNL     1      26.368  47.531  50.705  1.00  0.00     0.053 C 
HETATM    8  C   UNL     1      25.855  45.708  52.467  1.00  0.00     0.069 A 
HETATM    9  N   UNL     1      24.911  44.716  52.515  1.00  0.00    -0.276 N 
HETATM   10  N   UNL     1      24.064  44.701  51.470  1.00  0.00    -0.168 NA
HETATM   11  H   UNL     1      24.791  44.027  53.252  1.00  0.00     0.189 HD
BRANCH   8  12
HETATM   12  C   UNL     1      26.841  45.897  53.528  1.00  0.00    -0.007 A 
HETATM   13  C   UNL     1      27.728  44.868  53.876  1.00  0.00     0.014 A 
HETATM   14  C   UNL     1      28.657  45.049  54.903  1.00  0.00     0.001 A 
HETATM   15  C   UNL     1      28.712  46.259  55.591  1.00  0.00     0.000 A 
HETATM   16  C   UNL     1      27.838  47.289  55.254  1.00  0.00     0.001 A 
HETATM   17  C   UNL     1      26.906  47.109  54.229  1.00  0.00     0.014 A 
ENDBRANCH   8  12
ENDBRANCH   1   5
BRANCH   2  18
HETATM   18  C   UNL     1      22.369  47.847  48.442  1.00  0.00     0.156 C 
BRANCH  18  19
HETATM   19  C   UNL     1      20.855  47.776  48.808  1.00  0.00     0.209 C 
BRANCH  19  20
HETATM   20  N   UNL     1      20.132  49.129  48.678  1.00  0.00    -0.065 N 
HETATM   21  H   UNL     1      19.203  48.922  48.298  1.00  0.00     0.280 HD
HETATM   22  C   UNL     1      20.720  50.152  47.720  1.00  0.00     0.235 C 
HETATM   23  C   UNL     1      20.829  51.432  48.530  1.00  0.00     0.029 C 
HETATM   24  C   UNL     1      19.743  51.305  49.577  1.00  0.00     0.029 C 
HETATM   25  C   UNL     1      19.811  49.845  49.977  1.00  0.00     0.235 C 
ENDBRANCH  19  20
BRANCH  19  26
HETATM   26  C   UNL     1      20.099  46.703  47.962  1.00  0.00     0.010 C 
HETATM   27  C   UNL     1      20.709  46.544  46.561  1.00  0.00     0.011 C 
HETATM   28  C   UNL     1      20.079  45.321  48.631  1.00  0.00     0.011 C 
ENDBRANCH  19  26
ENDBRANCH  18  19
ENDBRANCH   2  18
TORSDOF 6
ENDMDL
MODEL 9
REMARK VINA RESULT:      -7.6      2.778      5.157
REMARK  6 active torsions:
REMARK  status: ('A' for Active; 'I' for Inactive)
REMARK    1  A    between atoms: C_3  and  C_4 
REMARK       I    between atoms: C_4  and  N_5 
REMARK    2  A    between atoms: N_5  and  C_6 
REMARK    3  A    between atoms: C_6  and  C_7 
REMARK    4  A    between atoms: C_7  and  N_8 
REMARK    5  A    between atoms: C_7  and  C_14 
REMARK    6  A    between atoms: C_21  and  C_22 
ROOT
HETATM    1  C   UNL     1      23.986  44.737  49.140  1.00  0.00     0.272 C 
HETATM    2  N   UNL     1      23.350  45.942  49.372  1.00  0.00    -0.354 N 
HETATM    3  O   UNL     1      23.947  44.164  48.057  1.00  0.00    -0.266 OA
HETATM    4  H   UNL     1      23.356  46.209  50.357  1.00  0.00     0.162 HD
ENDROOT
BRANCH   1   5
HETATM    5  C   UNL     1      24.743  44.261  50.311  1.00  0.00     0.152 A 
HETATM    6  C   UNL     1      26.109  44.503  50.641  1.00  0.00     0.003 A 
HETATM    7  C   UNL     1      27.099  45.266  49.833  1.00  0.00     0.053 C 
HETATM    8  C   UNL     1      26.305  43.862  51.856  1.00  0.00     0.069 A 
HETATM    9  N   UNL     1      25.104  43.273  52.150  1.00  0.00    -0.276 N 
HETATM   10  N   UNL     1      24.138  43.487  51.238  1.00  0.00    -0.168 NA
HETATM   11  H   UNL     1      24.884  42.722  52.975  1.00  0.00     0.189 HD
BRANCH   8  12
HETATM   12  C   UNL     1      27.461  43.762  52.744  1.00  0.00    -0.007 A 
HETATM   13  C   UNL     1      27.667  44.706  53.760  1.00  0.00     0.014 A 
HETATM   14  C   UNL     1      28.784  44.615  54.596  1.00  0.00     0.001 A 
HETATM   15  C   UNL     1      29.702  43.582  54.426  1.00  0.00     0.000 A 
HETATM   16  C   UNL     1      29.506  42.638  53.421  1.00  0.00     0.001 A 
HETATM   17  C   UNL     1      28.392  42.729  52.583  1.00  0.00     0.014 A 
ENDBRANCH   8  12
ENDBRANCH   1   5
BRANCH   2  18
HETATM   18  C   UNL     1      22.388  46.505  48.453  1.00  0.00     0.156 C 
BRANCH  18  19
HETATM   19  C   UNL     1      21.457  47.602  49.054  1.00  0.00     0.209 C 
BRANCH  19  20
HETATM   20  N   UNL     1      22.163  48.953  49.261  1.00  0.00    -0.065 N 
HETATM   21  H   UNL     1      22.780  48.834  50.071  1.00  0.00     0.280 HD
HETATM   22  C   UNL     1      21.299  50.154  49.610  1.00  0.00     0.235 C 
HETATM   23  C   UNL     1      21.709  51.234  48.625  1.00  0.00     0.029 C 
HETATM   24  C   UNL     1      23.142  50.893  48.273  1.00  0.00     0.029 C 
HETATM   25  C   UNL     1      23.126  49.381  48.169  1.00  0.00     0.235 C 
ENDBRANCH  19  20
BRANCH  19  26
HETATM   26  C   UNL     1      20.174  47.816  48.191  1.00  0.00     0.010 C 
HETATM   27  C   UNL     1      20.256  47.074  46.848  1.00  0.00     0.011 C 
HETATM   28  C   UNL     1      18.892  47.364  48.904  1.00  0.00     0.011 C 
ENDBRANCH  19  26
ENDBRANCH  18  19
ENDBRANCH   2  18
TORSDOF 6
ENDMDL
MODEL 10
REMARK VINA RESULT:      -7.6      3.454      5.793
REMARK  6 active torsions:
REMARK  status: ('A' for Active; 'I' for Inactive)
REMARK    1  A    between atoms: C_3  and  C_4 
REMARK       I    between atoms: C_4  and  N_5 
REMARK    2  A    between atoms: N_5  and  C_6 
REMARK    3  A    between atoms: C_6  and  C_7 
REMARK    4  A    between atoms: C_7  and  N_8 
REMARK    5  A    between atoms: C_7  and  C_14 
REMARK    6  A    between atoms: C_21  and  C_22 
ROOT
HETATM    1  C   UNL     1      24.107  47.407  49.840  1.00  0.00     0.272 C 
HETATM    2  N   UNL     1      22.955  46.981  49.206  1.00  0.00    -0.354 N 
HETATM    3  O   UNL     1      24.342  48.589  50.063  1.00  0.00    -0.266 OA
HETATM    4  H   UNL     1      22.981  45.990  48.965  1.00  0.00     0.162 HD
ENDROOT
BRANCH   1   5
HETATM    5  C   UNL     1      24.975  46.290  50.251  1.00  0.00     0.152 A 
HETATM    6  C   UNL     1      25.675  46.119  51.482  1.00  0.00     0.003 A 
HETATM    7  C   UNL     1      25.720  47.075  52.622  1.00  0.00     0.053 C 
HETATM    8  C   UNL     1      26.307  44.889  51.369  1.00  0.00     0.069 A 
HETATM    9  N   UNL     1      25.987  44.433  50.117  1.00  0.00    -0.276 N 
HETATM   10  N   UNL     1      25.188  45.254  49.412  1.00  0.00    -0.168 NA
HETATM   11  H   UNL     1      26.277  43.554  49.698  1.00  0.00     0.189 HD
BRANCH   8  12
HETATM   12  C   UNL     1      27.141  44.119  52.290  1.00  0.00    -0.007 A 
HETATM   13  C   UNL     1      28.460  43.785  51.952  1.00  0.00     0.014 A 
HETATM   14  C   UNL     1      29.247  43.034  52.830  1.00  0.00     0.001 A 
HETATM   15  C   UNL     1      28.726  42.612  54.050  1.00  0.00     0.000 A 
HETATM   16  C   UNL     1      27.417  42.940  54.397  1.00  0.00     0.001 A 
HETATM   17  C   UNL     1      26.628  43.688  53.520  1.00  0.00     0.014 A 
ENDBRANCH   8  12
ENDBRANCH   1   5
BRANCH   2  18
HETATM   18  C   UNL     1      22.055  47.889  48.533  1.00  0.00     0.156 C 
BRANCH  18  19
HETATM   19  C   UNL     1      20.625  47.983  49.149  1.00  0.00     0.209 C 
BRANCH  19  20
HETATM   20  N   UNL     1      20.350  49.325  49.850  1.00  0.00    -0.065 N 
HETATM   21  H   UNL     1      21.055  49.412  50.588  1.00  0.00     0.280 HD
HETATM   22  C   UNL     1      19.020  49.487  50.567  1.00  0.00     0.235 C 
HETATM   23  C   UNL     1      18.448  50.793  50.046  1.00  0.00     0.029 C 
HETATM   24  C   UNL     1      19.665  51.603  49.653  1.00  0.00     0.029 C 
HETATM   25  C   UNL     1      20.580  50.575  49.019  1.00  0.00     0.235 C 
ENDBRANCH  19  20
BRANCH  19  26
HETATM   26  C   UNL     1      19.513  47.719  48.085  1.00  0.00     0.010 C 
HETATM   27  C   UNL     1      20.097  47.567  46.671  1.00  0.00     0.011 C 
HETATM   28  C   UNL     1      18.679  46.466  48.390  1.00  0.00     0.011 C 
ENDBRANCH  19  26
ENDBRANCH  18  19
ENDBRANCH   2  18
TORSDOF 6
ENDMDL
