MODEL 1
REMARK VINA RESULT:     -10.5      0.000      0.000
REMARK  5 active torsions:
REMARK  status: ('A' for Active; 'I' for Inactive)
REMARK    1  A    between atoms: C_2  and  C_3 
REMARK    2  A    between atoms: C_5  and  N_6 
REMARK       I    between atoms: N_6  and  C_7 
REMARK    3  A    between atoms: C_7  and  C_8 
REMARK    4  A    between atoms: C_16  and  C_17 
REMARK    5  A    between atoms: C_19  and  O_20 
ROOT
HETATM    1  C   UNL     1      26.458  44.563  51.619  1.00  0.00     0.047 A 
HETATM    2  C   UNL     1      26.271  43.252  51.137  1.00  0.00     0.008 A 
HETATM    3  C   UNL     1      27.067  42.263  51.740  1.00  0.00     0.068 A 
HETATM    4  C   UNL     1      26.951  40.951  51.299  1.00  0.00     0.032 A 
HETATM    5  C   UNL     1      26.057  40.586  50.290  1.00  0.00     0.002 A 
HETATM    6  C   UNL     1      25.246  41.548  49.708  1.00  0.00     0.001 A 
HETATM    7  C   UNL     1      25.346  42.873  50.128  1.00  0.00     0.015 A 
HETATM    8  N   UNL     1      27.937  42.527  52.730  1.00  0.00    -0.248 NA
HETATM    9  C   UNL     1      28.067  43.788  53.216  1.00  0.00     0.069 A 
HETATM   10  C   UNL     1      27.329  44.827  52.679  1.00  0.00     0.050 A 
ENDROOT
BRANCH   1  11
HETATM   11  C   UNL     1      25.799  45.754  51.032  1.00  0.00     0.257 C 
HETATM   12  N   UNL     1      26.559  46.412  50.083  1.00  0.00    -0.323 N 
HETATM   13  H   UNL     1      27.444  45.986  49.831  1.00  0.00     0.169 HD
HETATM   14  O   UNL     1      24.709  46.083  51.476  1.00  0.00    -0.267 OA
BRANCH  12  15
HETATM   15  C   UNL     1      26.275  47.649  49.467  1.00  0.00     0.035 A 
HETATM   16  C   UNL     1      24.996  48.058  49.082  1.00  0.00     0.044 A 
HETATM   17  C   UNL     1      24.788  49.332  48.526  1.00  0.00     0.011 A 
HETATM   18  C   UNL     1      25.878  50.186  48.326  1.00  0.00     0.015 A 
HETATM   19  C   UNL     1      27.158  49.778  48.696  1.00  0.00     0.003 A 
HETATM   20  C   UNL     1      27.354  48.520  49.269  1.00  0.00     0.029 A 
BRANCH  17  21
HETATM   21  C   UNL     1      23.394  49.741  48.174  1.00  0.00     0.155 C 
HETATM   22  C   UNL     1      22.921  51.118  48.561  1.00  0.00     0.096 C 
HETATM   23  O   UNL     1      22.651  48.962  47.583  1.00  0.00    -0.293 OA
ENDBRANCH  17  21
ENDBRANCH  12  15
ENDBRANCH   1  11
BRANCH   9  24
HETATM   24  C   UNL     1      29.037  43.960  54.325  1.00  0.00    -0.005 A 
HETATM   25  C   UNL     1      29.000  45.068  55.199  1.00  0.00     0.050 A 
HETATM   26  C   UNL     1      29.916  45.210  56.249  1.00  0.00     0.069 A 
HETATM   27  C   UNL     1      30.905  44.245  56.429  1.00  0.00     0.037 A 
HETATM   28  C   UNL     1      30.978  43.146  55.578  1.00  0.00     0.004 A 
HETATM   29  C   UNL     1      30.052  43.007  54.542  1.00  0.00     0.014 A 
BRANCH  26  30
HETATM   30  O   UNL     1      29.953  46.239  57.149  1.00  0.00    -0.356 OA
HETATM   31  C   UNL     1      30.606  45.992  58.388  1.00  0.00     0.210 C 
ENDBRANCH  26  30
ENDBRANCH   9  24
TORSDOF 5
ENDMDL
MODEL 2
REMARK VINA RESULT:     -10.0      1.633      2.172
REMARK  5 active torsions:
REMARK  status: ('A' for Active; 'I' for Inactive)
REMARK    1  A    between atoms: C_2  and  C_3 
REMARK    2  A    between atoms: C_5  and  N_6 
REMARK       I    between atoms: N_6  and  C_7 
REMARK    3  A    between atoms: C_7  and  C_8 
REMARK    4  A    between atoms: C_16  and  C_17 
REMARK    5  A    between atoms: C_19  and  O_20 
ROOT
HETATM    1  C   UNL     1      27.070  43.983  50.780  1.00  0.00     0.047 A 
HETATM    2  C   UNL     1      27.096  42.639  50.358  1.00  0.00     0.008 A 
HETATM    3  C   UNL     1      27.866  41.768  51.147  1.00  0.00     0.068 A 
HETATM    4  C   UNL     1      27.955  40.433  50.778  1.00  0.00     0.032 A 
HETATM    5  C   UNL     1      27.288  39.928  49.659  1.00  0.00     0.002 A 
HETATM    6  C   UNL     1      26.501  40.772  48.890  1.00  0.00     0.001 A 
HETATM    7  C   UNL     1      26.399  42.118  49.235  1.00  0.00     0.015 A 
HETATM    8  N   UNL     1      28.524  42.168  52.249  1.00  0.00    -0.248 NA
HETATM    9  C   UNL     1      28.446  43.457  52.669  1.00  0.00     0.069 A 
HETATM   10  C   UNL     1      27.715  44.386  51.952  1.00  0.00     0.050 A 
ENDROOT
BRANCH   1  11
HETATM   11  C   UNL     1      26.411  45.070  50.016  1.00  0.00     0.257 C 
HETATM   12  N   UNL     1      25.069  45.231  50.305  1.00  0.00    -0.323 N 
HETATM   13  H   UNL     1      24.688  44.654  51.046  1.00  0.00     0.169 HD
HETATM   14  O   UNL     1      27.071  45.659  49.173  1.00  0.00    -0.267 OA
BRANCH  12  15
HETATM   15  C   UNL     1      24.145  46.065  49.640  1.00  0.00     0.035 A 
HETATM   16  C   UNL     1      24.150  47.460  49.720  1.00  0.00     0.044 A 
HETATM   17  C   UNL     1      23.229  48.222  48.981  1.00  0.00     0.011 A 
HETATM   18  C   UNL     1      22.280  47.577  48.181  1.00  0.00     0.015 A 
HETATM   19  C   UNL     1      22.262  46.186  48.108  1.00  0.00     0.003 A 
HETATM   20  C   UNL     1      23.194  45.435  48.827  1.00  0.00     0.029 A 
BRANCH  17  21
HETATM   21  C   UNL     1      23.305  49.713  49.063  1.00  0.00     0.155 C 
HETATM   22  C   UNL     1      24.018  50.467  47.971  1.00  0.00     0.096 C 
HETATM   23  O   UNL     1      22.793  50.307  50.009  1.00  0.00    -0.293 OA
ENDBRANCH  17  21
ENDBRANCH  12  15
ENDBRANCH   1  11
BRANCH   9  24
HETATM   24  C   UNL     1      29.189  43.782  53.911  1.00  0.00    -0.005 A 
HETATM   25  C   UNL     1      28.831  44.861  54.749  1.00  0.00     0.050 A 
HETATM   26  C   UNL     1      29.536  45.147  55.924  1.00  0.00     0.069 A 
HETATM   27  C   UNL     1      30.633  44.361  56.273  1.00  0.00     0.037 A 
HETATM   28  C   UNL     1      31.020  43.297  55.464  1.00  0.00     0.004 A 
HETATM   29  C   UNL     1      30.304  43.012  54.300  1.00  0.00     0.014 A 
BRANCH  26  30
HETATM   30  O   UNL     1      29.259  46.161  56.799  1.00  0.00    -0.356 OA
HETATM   31  C   UNL     1      29.829  46.066  58.100  1.00  0.00     0.210 C 
ENDBRANCH  26  30
ENDBRANCH   9  24
TORSDOF 5
ENDMDL
MODEL 3
REMARK VINA RESULT:      -9.8      1.746      2.461
REMARK  5 active torsions:
REMARK  status: ('A' for Active; 'I' for Inactive)
REMARK    1  A    between atoms: C_2  and  C_3 
REMARK    2  A    between atoms: C_5  and  N_6 
REMARK       I    between atoms: N_6  and  C_7 
REMARK    3  A    between atoms: C_7  and  C_8 
REMARK    4  A    between atoms: C_16  and  C_17 
REMARK    5  A    between atoms: C_19  and  O_20 
ROOT
HETATM    1  C   UNL     1      25.808  43.601  51.502  1.00  0.00     0.047 A 
HETATM    2  C   UNL     1      26.320  42.383  51.013  1.00  0.00     0.008 A 
HETATM    3  C   UNL     1      27.532  41.958  51.585  1.00  0.00     0.068 A 
HETATM    4  C   UNL     1      28.106  40.777  51.136  1.00  0.00     0.032 A 
HETATM    5  C   UNL     1      27.507  39.992  50.148  1.00  0.00     0.002 A 
HETATM    6  C   UNL     1      26.296  40.385  49.597  1.00  0.00     0.001 A 
HETATM    7  C   UNL     1      25.702  41.570  50.027  1.00  0.00     0.015 A 
HETATM    8  N   UNL     1      28.164  42.644  52.553  1.00  0.00    -0.248 NA
HETATM    9  C   UNL     1      27.629  43.791  53.047  1.00  0.00     0.069 A 
HETATM   10  C   UNL     1      26.442  44.288  52.541  1.00  0.00     0.050 A 
ENDROOT
BRANCH   1  11
HETATM   11  C   UNL     1      24.608  44.269  50.944  1.00  0.00     0.257 C 
HETATM   12  N   UNL     1      24.882  45.188  49.949  1.00  0.00    -0.323 N 
HETATM   13  H   UNL     1      25.848  45.263  49.650  1.00  0.00     0.169 HD
HETATM   14  O   UNL     1      23.524  44.013  51.448  1.00  0.00    -0.267 OA
BRANCH  12  15
HETATM   15  C   UNL     1      23.979  46.085  49.340  1.00  0.00     0.035 A 
HETATM   16  C   UNL     1      24.005  47.469  49.527  1.00  0.00     0.044 A 
HETATM   17  C   UNL     1      23.105  48.301  48.839  1.00  0.00     0.011 A 
HETATM   18  C   UNL     1      22.155  47.735  47.982  1.00  0.00     0.015 A 
HETATM   19  C   UNL     1      22.116  46.353  47.803  1.00  0.00     0.003 A 
HETATM   20  C   UNL     1      23.028  45.535  48.472  1.00  0.00     0.029 A 
BRANCH  17  21
HETATM   21  C   UNL     1      23.203  49.780  49.035  1.00  0.00     0.155 C 
HETATM   22  C   UNL     1      23.659  50.638  47.884  1.00  0.00     0.096 C 
HETATM   23  O   UNL     1      22.917  50.280  50.121  1.00  0.00    -0.293 OA
ENDBRANCH  17  21
ENDBRANCH  12  15
ENDBRANCH   1  11
BRANCH   9  24
HETATM   24  C   UNL     1      28.397  44.451  54.131  1.00  0.00    -0.005 A 
HETATM   25  C   UNL     1      29.552  43.873  54.703  1.00  0.00     0.050 A 
HETATM   26  C   UNL     1      30.273  44.515  55.717  1.00  0.00     0.069 A 
HETATM   27  C   UNL     1      29.833  45.748  56.194  1.00  0.00     0.037 A 
HETATM   28  C   UNL     1      28.693  46.341  55.661  1.00  0.00     0.004 A 
HETATM   29  C   UNL     1      27.987  45.699  54.641  1.00  0.00     0.014 A 
BRANCH  26  30
HETATM   30  O   UNL     1      31.403  44.039  56.322  1.00  0.00    -0.356 OA
HETATM   31  C   UNL     1      31.446  44.090  57.744  1.00  0.00     0.210 C 
ENDBRANCH  26  30
ENDBRANCH   9  24
TORSDOF 5
ENDMDL
MODEL 4
REMARK VINA RESULT:      -9.7      1.831      8.049
REMARK  5 active torsions:
REMARK  status: ('A' for Active; 'I' for Inactive)
REMARK    1  A    between atoms: C_2  and  C_3 
REMARK    2  A    between atoms: C_5  and  N_6 
REMARK       I    between atoms: N_6  and  C_7 
REMARK    3  A    between atoms: C_7  and  C_8 
REMARK    4  A    between atoms: C_16  and  C_17 
REMARK    5  A    between atoms: C_19  and  O_20 
ROOT
HETATM    1  C   UNL     1      25.765  43.989  51.463  1.00  0.00     0.047 A 
HETATM    2  C   UNL     1      25.728  42.807  50.696  1.00  0.00     0.008 A 
HETATM    3  C   UNL     1      24.959  42.869  49.521  1.00  0.00     0.068 A 
HETATM    4  C   UNL     1      24.858  41.734  48.727  1.00  0.00     0.032 A 
HETATM    5  C   UNL     1      25.513  40.544  49.052  1.00  0.00     0.002 A 
HETATM    6  C   UNL     1      26.298  40.480  50.193  1.00  0.00     0.001 A 
HETATM    7  C   UNL     1      26.411  41.603  51.010  1.00  0.00     0.015 A 
HETATM    8  N   UNL     1      24.313  43.980  49.126  1.00  0.00    -0.248 NA
HETATM    9  C   UNL     1      24.403  45.124  49.852  1.00  0.00     0.069 A 
HETATM   10  C   UNL     1      25.133  45.156  51.026  1.00  0.00     0.050 A 
ENDROOT
BRANCH   1  11
HETATM   11  C   UNL     1      26.424  44.086  52.787  1.00  0.00     0.257 C 
HETATM   12  N   UNL     1      27.789  44.293  52.727  1.00  0.00    -0.323 N 
HETATM   13  H   UNL     1      28.191  44.429  51.806  1.00  0.00     0.169 HD
HETATM   14  O   UNL     1      25.738  43.907  53.782  1.00  0.00    -0.267 OA
BRANCH  12  15
HETATM   15  C   UNL     1      28.706  44.273  53.799  1.00  0.00     0.035 A 
HETATM   16  C   UNL     1      28.644  45.133  54.899  1.00  0.00     0.044 A 
HETATM   17  C   UNL     1      29.563  45.011  55.955  1.00  0.00     0.011 A 
HETATM   18  C   UNL     1      30.568  44.040  55.890  1.00  0.00     0.015 A 
HETATM   19  C   UNL     1      30.642  43.189  54.789  1.00  0.00     0.003 A 
HETATM   20  C   UNL     1      29.712  43.300  53.754  1.00  0.00     0.029 A 
BRANCH  17  21
HETATM   21  C   UNL     1      29.427  45.923  57.132  1.00  0.00     0.155 C 
HETATM   22  C   UNL     1      30.559  46.007  58.122  1.00  0.00     0.096 C 
HETATM   23  O   UNL     1      28.405  46.587  57.284  1.00  0.00    -0.293 OA
ENDBRANCH  17  21
ENDBRANCH  12  15
ENDBRANCH   1  11
BRANCH   9  24
HETATM   24  C   UNL     1      23.672  46.296  49.310  1.00  0.00    -0.005 A 
HETATM   25  C   UNL     1      23.904  47.612  49.767  1.00  0.00     0.050 A 
HETATM   26  C   UNL     1      23.214  48.709  49.237  1.00  0.00     0.069 A 
HETATM   27  C   UNL     1      22.258  48.501  48.244  1.00  0.00     0.037 A 
HETATM   28  C   UNL     1      21.997  47.216  47.779  1.00  0.00     0.004 A 
HETATM   29  C   UNL     1      22.698  46.130  48.306  1.00  0.00     0.014 A 
BRANCH  26  30
HETATM   30  O   UNL     1      23.377  50.015  49.608  1.00  0.00    -0.356 OA
HETATM   31  C   UNL     1      22.196  50.774  49.838  1.00  0.00     0.210 C 
ENDBRANCH  26  30
ENDBRANCH   9  24
TORSDOF 5
ENDMDL
MODEL 5
REMARK VINA RESULT:      -9.6      2.113      5.147
REMARK  5 active torsions:
REMARK  status: ('A' for Active; 'I' for Inactive)
REMARK    1  A    between atoms: C_2  and  C_3 
REMARK    2  A    between atoms: C_5  and  N_6 
REMARK       I    between atoms: N_6  and  C_7 
REMARK    3  A    between atoms: C_7  and  C_8 
REMARK    4  A    between atoms: C_16  and  C_17 
REMARK    5  A    between atoms: C_19  and  O_20 
ROOT
HETATM    1  C   UNL     1      26.535  45.670  52.320  1.00  0.00     0.047 A 
HETATM    2  C   UNL     1      27.301  45.712  53.502  1.00  0.00     0.008 A 
HETATM    3  C   UNL     1      27.914  44.503  53.874  1.00  0.00     0.068 A 
HETATM    4  C   UNL     1      28.666  44.465  55.040  1.00  0.00     0.032 A 
HETATM    5  C   UNL     1      28.846  45.595  55.841  1.00  0.00     0.002 A 
HETATM    6  C   UNL     1      28.271  46.801  55.469  1.00  0.00     0.001 A 
HETATM    7  C   UNL     1      27.507  46.865  54.306  1.00  0.00     0.015 A 
HETATM    8  N   UNL     1      27.806  43.375  53.150  1.00  0.00    -0.248 NA
HETATM    9  C   UNL     1      27.106  43.367  51.986  1.00  0.00     0.069 A 
HETATM   10  C   UNL     1      26.465  44.510  51.544  1.00  0.00     0.050 A 
ENDROOT
BRANCH   1  11
HETATM   11  C   UNL     1      25.722  46.808  51.828  1.00  0.00     0.257 C 
HETATM   12  N   UNL     1      25.696  46.933  50.452  1.00  0.00    -0.323 N 
HETATM   13  H   UNL     1      26.163  46.208  49.919  1.00  0.00     0.169 HD
HETATM   14  O   UNL     1      25.224  47.555  52.657  1.00  0.00    -0.267 OA
BRANCH  12  15
HETATM   15  C   UNL     1      25.145  47.991  49.699  1.00  0.00     0.035 A 
HETATM   16  C   UNL     1      23.779  48.272  49.626  1.00  0.00     0.044 A 
HETATM   17  C   UNL     1      23.314  49.382  48.898  1.00  0.00     0.011 A 
HETATM   18  C   UNL     1      24.227  50.194  48.217  1.00  0.00     0.015 A 
HETATM   19  C   UNL     1      25.590  49.910  48.275  1.00  0.00     0.003 A 
HETATM   20  C   UNL     1      26.046  48.819  49.019  1.00  0.00     0.029 A 
BRANCH  17  21
HETATM   21  C   UNL     1      21.848  49.670  48.889  1.00  0.00     0.155 C 
HETATM   22  C   UNL     1      21.379  51.048  48.502  1.00  0.00     0.096 C 
HETATM   23  O   UNL     1      21.044  48.793  49.196  1.00  0.00    -0.293 OA
ENDBRANCH  17  21
ENDBRANCH  12  15
ENDBRANCH   1  11
BRANCH   9  24
HETATM   24  C   UNL     1      27.076  42.076  51.256  1.00  0.00    -0.005 A 
HETATM   25  C   UNL     1      28.166  41.179  51.257  1.00  0.00     0.050 A 
HETATM   26  C   UNL     1      28.117  39.959  50.572  1.00  0.00     0.069 A 
HETATM   27  C   UNL     1      26.972  39.624  49.851  1.00  0.00     0.037 A 
HETATM   28  C   UNL     1      25.884  40.490  49.820  1.00  0.00     0.004 A 
HETATM   29  C   UNL     1      25.937  41.699  50.516  1.00  0.00     0.014 A 
BRANCH  26  30
HETATM   30  O   UNL     1      29.116  39.025  50.523  1.00  0.00    -0.356 OA
HETATM   31  C   UNL     1      28.910  37.902  49.675  1.00  0.00     0.210 C 
ENDBRANCH  26  30
ENDBRANCH   9  24
TORSDOF 5
ENDMDL
MODEL 6
REMARK VINA RESULT:      -9.6      2.962      8.137
REMARK  5 active torsions:
REMARK  status: ('A' for Active; 'I' for Inactive)
REMARK    1  A    between atoms: C_2  and  C_3 
REMARK    2  A    between atoms: C_5  and  N_6 
REMARK       I    between atoms: N_6  and  C_7 
REMARK    3  A    between atoms: C_7  and  C_8 
REMARK    4  A    between atoms: C_16  and  C_17 
REMARK    5  A    between atoms: C_19  and  O_20 
ROOT
HETATM    1  C   UNL     1      27.104  43.507  51.955  1.00  0.00     0.047 A 
HETATM    2  C   UNL     1      26.340  44.502  51.311  1.00  0.00     0.008 A 
HETATM    3  C   UNL     1      26.095  44.290  49.944  1.00  0.00     0.068 A 
HETATM    4  C   UNL     1      25.367  45.240  49.240  1.00  0.00     0.032 A 
HETATM    5  C   UNL     1      24.858  46.387  49.855  1.00  0.00     0.002 A 
HETATM    6  C   UNL     1      25.069  46.592  51.210  1.00  0.00     0.001 A 
HETATM    7  C   UNL     1      25.801  45.656  51.938  1.00  0.00     0.015 A 
HETATM    8  N   UNL     1      26.532  43.205  49.281  1.00  0.00    -0.248 NA
HETATM    9  C   UNL     1      27.223  42.233  49.930  1.00  0.00     0.069 A 
HETATM   10  C   UNL     1      27.516  42.358  51.275  1.00  0.00     0.050 A 
ENDROOT
BRANCH   1  11
HETATM   11  C   UNL     1      27.564  43.609  53.360  1.00  0.00     0.257 C 
HETATM   12  N   UNL     1      28.859  44.070  53.501  1.00  0.00    -0.323 N 
HETATM   13  H   UNL     1      29.336  44.359  52.654  1.00  0.00     0.169 HD
HETATM   14  O   UNL     1      26.810  43.218  54.239  1.00  0.00    -0.267 OA
BRANCH  12  15
HETATM   15  C   UNL     1      29.624  44.127  54.685  1.00  0.00     0.035 A 
HETATM   16  C   UNL     1      29.466  45.101  55.674  1.00  0.00     0.044 A 
HETATM   17  C   UNL     1      30.229  45.055  56.853  1.00  0.00     0.011 A 
HETATM   18  C   UNL     1      31.177  44.041  57.025  1.00  0.00     0.015 A 
HETATM   19  C   UNL     1      31.348  43.074  56.036  1.00  0.00     0.003 A 
HETATM   20  C   UNL     1      30.570  43.113  54.877  1.00  0.00     0.029 A 
BRANCH  17  21
HETATM   21  C   UNL     1      29.991  46.092  57.902  1.00  0.00     0.155 C 
HETATM   22  C   UNL     1      28.582  46.563  58.154  1.00  0.00     0.096 C 
HETATM   23  O   UNL     1      30.933  46.552  58.543  1.00  0.00    -0.293 OA
ENDBRANCH  17  21
ENDBRANCH  12  15
ENDBRANCH   1  11
BRANCH   9  24
HETATM   24  C   UNL     1      27.633  41.069  49.107  1.00  0.00    -0.005 A 
HETATM   25  C   UNL     1      28.267  39.934  49.661  1.00  0.00     0.050 A 
HETATM   26  C   UNL     1      28.637  38.838  48.872  1.00  0.00     0.069 A 
HETATM   27  C   UNL     1      28.395  38.870  47.500  1.00  0.00     0.037 A 
HETATM   28  C   UNL     1      27.783  39.976  46.920  1.00  0.00     0.004 A 
HETATM   29  C   UNL     1      27.407  41.059  47.716  1.00  0.00     0.014 A 
BRANCH  26  30
HETATM   30  O   UNL     1      29.244  37.697  49.319  1.00  0.00    -0.356 OA
HETATM   31  C   UNL     1      29.966  37.784  50.541  1.00  0.00     0.210 C 
ENDBRANCH  26  30
ENDBRANCH   9  24
TORSDOF 5
ENDMDL
MODEL 7
REMARK VINA RESULT:      -9.5      2.992      5.601
REMARK  5 active torsions:
REMARK  status: ('A' for Active; 'I' for Inactive)
REMARK    1  A    between atoms: C_2  and  C_3 
REMARK    2  A    between atoms: C_5  and  N_6 
REMARK       I    between atoms: N_6  and  C_7 
REMARK    3  A    between atoms: C_7  and  C_8 
REMARK    4  A    between atoms: C_16  and  C_17 
REMARK    5  A    between atoms: C_19  and  O_20 
ROOT
HETATM    1  C   UNL     1      26.711  43.406  51.809  1.00  0.00     0.047 A 
HETATM    2  C   UNL     1      27.577  43.735  52.870  1.00  0.00     0.008 A 
HETATM    3  C   UNL     1      28.660  42.860  53.065  1.00  0.00     0.068 A 
HETATM    4  C   UNL     1      29.543  43.111  54.107  1.00  0.00     0.032 A 
HETATM    5  C   UNL     1      29.396  44.213  54.953  1.00  0.00     0.002 A 
HETATM    6  C   UNL     1      28.348  45.099  54.751  1.00  0.00     0.001 A 
HETATM    7  C   UNL     1      27.446  44.868  53.716  1.00  0.00     0.015 A 
HETATM    8  N   UNL     1      28.885  41.788  52.286  1.00  0.00    -0.248 NA
HETATM    9  C   UNL     1      28.067  41.515  51.236  1.00  0.00     0.069 A 
HETATM   10  C   UNL     1      26.973  42.318  50.971  1.00  0.00     0.050 A 
ENDROOT
BRANCH   1  11
HETATM   11  C   UNL     1      25.454  44.137  51.519  1.00  0.00     0.257 C 
HETATM   12  N   UNL     1      25.387  44.664  50.243  1.00  0.00    -0.323 N 
HETATM   13  H   UNL     1      26.153  44.444  49.617  1.00  0.00     0.169 HD
HETATM   14  O   UNL     1      24.647  44.269  52.427  1.00  0.00    -0.267 OA
BRANCH  12  15
HETATM   15  C   UNL     1      24.402  45.532  49.727  1.00  0.00     0.035 A 
HETATM   16  C   UNL     1      24.505  46.925  49.731  1.00  0.00     0.044 A 
HETATM   17  C   UNL     1      23.504  47.719  49.144  1.00  0.00     0.011 A 
HETATM   18  C   UNL     1      22.379  47.109  48.579  1.00  0.00     0.015 A 
HETATM   19  C   UNL     1      22.265  45.720  48.585  1.00  0.00     0.003 A 
HETATM   20  C   UNL     1      23.274  44.937  49.149  1.00  0.00     0.029 A 
BRANCH  17  21
HETATM   21  C   UNL     1      23.683  49.203  49.130  1.00  0.00     0.155 C 
HETATM   22  C   UNL     1      24.679  49.807  48.176  1.00  0.00     0.096 C 
HETATM   23  O   UNL     1      23.027  49.912  49.890  1.00  0.00    -0.293 OA
ENDBRANCH  17  21
ENDBRANCH  12  15
ENDBRANCH   1  11
BRANCH   9  24
HETATM   24  C   UNL     1      28.424  40.324  50.428  1.00  0.00    -0.005 A 
HETATM   25  C   UNL     1      29.209  39.267  50.940  1.00  0.00     0.050 A 
HETATM   26  C   UNL     1      29.526  38.143  50.168  1.00  0.00     0.069 A 
HETATM   27  C   UNL     1      29.076  38.068  48.852  1.00  0.00     0.037 A 
HETATM   28  C   UNL     1      28.309  39.096  48.312  1.00  0.00     0.004 A 
HETATM   29  C   UNL     1      27.988  40.207  49.093  1.00  0.00     0.014 A 
BRANCH  26  30
HETATM   30  O   UNL     1      30.269  37.071  50.580  1.00  0.00    -0.356 OA
HETATM   31  C   UNL     1      29.949  36.509  51.847  1.00  0.00     0.210 C 
ENDBRANCH  26  30
ENDBRANCH   9  24
TORSDOF 5
ENDMDL
MODEL 8
REMARK VINA RESULT:      -9.4      1.933      2.400
REMARK  5 active torsions:
REMARK  status: ('A' for Active; 'I' for Inactive)
REMARK    1  A    between atoms: C_2  and  C_3 
REMARK    2  A    between atoms: C_5  and  N_6 
REMARK       I    between atoms: N_6  and  C_7 
REMARK    3  A    between atoms: C_7  and  C_8 
REMARK    4  A    between atoms: C_16  and  C_17 
REMARK    5  A    between atoms: C_19  and  O_20 
ROOT
HETATM    1  C   UNL     1      26.069  43.119  51.383  1.00  0.00     0.047 A 
HETATM    2  C   UNL     1      26.471  41.922  50.759  1.00  0.00     0.008 A 
HETATM    3  C   UNL     1      27.678  41.370  51.222  1.00  0.00     0.068 A 
HETATM    4  C   UNL     1      28.148  40.201  50.637  1.00  0.00     0.032 A 
HETATM    5  C   UNL     1      27.447  39.551  49.618  1.00  0.00     0.002 A 
HETATM    6  C   UNL     1      26.241  40.070  49.174  1.00  0.00     0.001 A 
HETATM    7  C   UNL     1      25.750  41.244  49.740  1.00  0.00     0.015 A 
HETATM    8  N   UNL     1      28.404  41.921  52.211  1.00  0.00    -0.248 NA
HETATM    9  C   UNL     1      27.974  43.048  52.835  1.00  0.00     0.069 A 
HETATM   10  C   UNL     1      26.800  43.664  52.442  1.00  0.00     0.050 A 
ENDROOT
BRANCH   1  11
HETATM   11  C   UNL     1      24.891  43.911  50.956  1.00  0.00     0.257 C 
HETATM   12  N   UNL     1      25.183  44.926  50.064  1.00  0.00    -0.323 N 
HETATM   13  H   UNL     1      26.141  44.985  49.738  1.00  0.00     0.169 HD
HETATM   14  O   UNL     1      23.812  43.654  51.468  1.00  0.00    -0.267 OA
BRANCH  12  15
HETATM   15  C   UNL     1      24.314  45.935  49.601  1.00  0.00     0.035 A 
HETATM   16  C   UNL     1      23.191  45.697  48.805  1.00  0.00     0.044 A 
HETATM   17  C   UNL     1      22.341  46.753  48.432  1.00  0.00     0.011 A 
HETATM   18  C   UNL     1      22.639  48.058  48.837  1.00  0.00     0.015 A 
HETATM   19  C   UNL     1      23.765  48.303  49.620  1.00  0.00     0.003 A 
HETATM   20  C   UNL     1      24.592  47.246  50.006  1.00  0.00     0.029 A 
BRANCH  17  21
HETATM   21  C   UNL     1      21.126  46.441  47.619  1.00  0.00     0.155 C 
HETATM   22  C   UNL     1      21.297  46.044  46.177  1.00  0.00     0.096 C 
HETATM   23  O   UNL     1      20.008  46.513  48.125  1.00  0.00    -0.293 OA
ENDBRANCH  17  21
ENDBRANCH  12  15
ENDBRANCH   1  11
BRANCH   9  24
HETATM   24  C   UNL     1      28.838  43.555  53.929  1.00  0.00    -0.005 A 
HETATM   25  C   UNL     1      28.495  44.683  54.706  1.00  0.00     0.050 A 
HETATM   26  C   UNL     1      29.317  45.141  55.743  1.00  0.00     0.069 A 
HETATM   27  C   UNL     1      30.517  44.483  56.007  1.00  0.00     0.037 A 
HETATM   28  C   UNL     1      30.891  43.376  55.253  1.00  0.00     0.004 A 
HETATM   29  C   UNL     1      30.059  42.919  54.229  1.00  0.00     0.014 A 
BRANCH  26  30
HETATM   30  O   UNL     1      29.064  46.214  56.553  1.00  0.00    -0.356 OA
HETATM   31  C   UNL     1      29.519  46.131  57.898  1.00  0.00     0.210 C 
ENDBRANCH  26  30
ENDBRANCH   9  24
TORSDOF 5
ENDMDL
MODEL 9
REMARK VINA RESULT:      -9.3      2.319      8.628
REMARK  5 active torsions:
REMARK  status: ('A' for Active; 'I' for Inactive)
REMARK    1  A    between atoms: C_2  and  C_3 
REMARK    2  A    between atoms: C_5  and  N_6 
REMARK       I    between atoms: N_6  and  C_7 
REMARK    3  A    between atoms: C_7  and  C_8 
REMARK    4  A    between atoms: C_16  and  C_17 
REMARK    5  A    between atoms: C_19  and  O_20 
ROOT
HETATM    1  C   UNL     1      24.971  45.568  49.871  1.00  0.00     0.047 A 
HETATM    2  C   UNL     1      24.275  44.506  49.259  1.00  0.00     0.008 A 
HETATM    3  C   UNL     1      23.086  44.859  48.598  1.00  0.00     0.068 A 
HETATM    4  C   UNL     1      22.338  43.860  47.991  1.00  0.00     0.032 A 
HETATM    5  C   UNL     1      22.740  42.522  48.003  1.00  0.00     0.002 A 
HETATM    6  C   UNL     1      23.926  42.167  48.627  1.00  0.00     0.001 A 
HETATM    7  C   UNL     1      24.694  43.149  49.249  1.00  0.00     0.015 A 
HETATM    8  N   UNL     1      22.638  46.124  48.522  1.00  0.00    -0.248 NA
HETATM    9  C   UNL     1      23.349  47.141  49.075  1.00  0.00     0.069 A 
HETATM   10  C   UNL     1      24.528  46.888  49.751  1.00  0.00     0.050 A 
ENDROOT
BRANCH   1  11
HETATM   11  C   UNL     1      26.178  45.382  50.711  1.00  0.00     0.257 C 
HETATM   12  N   UNL     1      25.923  45.341  52.069  1.00  0.00    -0.323 N 
HETATM   13  H   UNL     1      24.950  45.368  52.352  1.00  0.00     0.169 HD
HETATM   14  O   UNL     1      27.265  45.356  50.153  1.00  0.00    -0.267 OA
BRANCH  12  15
HETATM   15  C   UNL     1      26.867  45.330  53.117  1.00  0.00     0.035 A 
HETATM   16  C   UNL     1      27.841  44.342  53.285  1.00  0.00     0.044 A 
HETATM   17  C   UNL     1      28.782  44.435  54.324  1.00  0.00     0.011 A 
HETATM   18  C   UNL     1      28.724  45.510  55.217  1.00  0.00     0.015 A 
HETATM   19  C   UNL     1      27.747  46.491  55.063  1.00  0.00     0.003 A 
HETATM   20  C   UNL     1      26.829  46.405  54.014  1.00  0.00     0.029 A 
BRANCH  17  21
HETATM   21  C   UNL     1      29.834  43.379  54.434  1.00  0.00     0.155 C 
HETATM   22  C   UNL     1      30.281  42.664  53.185  1.00  0.00     0.096 C 
HETATM   23  O   UNL     1      30.320  43.101  55.528  1.00  0.00    -0.293 OA
ENDBRANCH  17  21
ENDBRANCH  12  15
ENDBRANCH   1  11
BRANCH   9  24
HETATM   24  C   UNL     1      22.775  48.499  48.909  1.00  0.00    -0.005 A 
HETATM   25  C   UNL     1      21.401  48.770  49.099  1.00  0.00     0.050 A 
HETATM   26  C   UNL     1      20.878  50.060  48.951  1.00  0.00     0.069 A 
HETATM   27  C   UNL     1      21.724  51.105  48.586  1.00  0.00     0.037 A 
HETATM   28  C   UNL     1      23.080  50.871  48.380  1.00  0.00     0.004 A 
HETATM   29  C   UNL     1      23.596  49.583  48.542  1.00  0.00     0.014 A 
BRANCH  26  30
HETATM   30  O   UNL     1      19.569  50.419  49.122  1.00  0.00    -0.356 OA
HETATM   31  C   UNL     1      18.704  49.452  49.705  1.00  0.00     0.210 C 
ENDBRANCH  26  30
ENDBRANCH   9  24
TORSDOF 5
ENDMDL
MODEL 10
REMARK VINA RESULT:      -9.1      3.263      6.527
REMARK  5 active torsions:
REMARK  status: ('A' for Active; 'I' for Inactive)
REMARK    1  A    between atoms: C_2  and  C_3 
REMARK    2  A    between atoms: C_5  and  N_6 
REMARK       I    between atoms: N_6  and  C_7 
REMARK    3  A    between atoms: C_7  and  C_8 
REMARK    4  A    between atoms: C_16  and  C_17 
REMARK    5  A    between atoms: C_19  and  O_20 
ROOT
HETATM    1  C   UNL     1      27.035  42.709  51.311  1.00  0.00     0.047 A 
HETATM    2  C   UNL     1      26.200  43.805  51.018  1.00  0.00     0.008 A 
HETATM    3  C   UNL     1      26.328  44.914  51.873  1.00  0.00     0.068 A 
HETATM    4  C   UNL     1      25.520  46.022  51.657  1.00  0.00     0.032 A 
HETATM    5  C   UNL     1      24.599  46.073  50.607  1.00  0.00     0.002 A 
HETATM    6  C   UNL     1      24.485  44.997  49.740  1.00  0.00     0.001 A 
HETATM    7  C   UNL     1      25.281  43.871  49.938  1.00  0.00     0.015 A 
HETATM    8  N   UNL     1      27.202  44.953  52.894  1.00  0.00    -0.248 NA
HETATM    9  C   UNL     1      28.034  43.907  53.130  1.00  0.00     0.069 A 
HETATM   10  C   UNL     1      27.975  42.771  52.343  1.00  0.00     0.050 A 
ENDROOT
BRANCH   1  11
HETATM   11  C   UNL     1      26.965  41.411  50.599  1.00  0.00     0.257 C 
HETATM   12  N   UNL     1      28.066  41.136  49.811  1.00  0.00    -0.323 N 
HETATM   13  H   UNL     1      28.833  41.798  49.850  1.00  0.00     0.169 HD
HETATM   14  O   UNL     1      25.941  40.753  50.709  1.00  0.00    -0.267 OA
BRANCH  12  15
HETATM   15  C   UNL     1      28.224  40.068  48.903  1.00  0.00     0.035 A 
HETATM   16  C   UNL     1      27.747  40.080  47.589  1.00  0.00     0.044 A 
HETATM   17  C   UNL     1      27.996  38.997  46.728  1.00  0.00     0.011 A 
HETATM   18  C   UNL     1      28.700  37.884  47.201  1.00  0.00     0.015 A 
HETATM   19  C   UNL     1      29.165  37.862  48.514  1.00  0.00     0.003 A 
HETATM   20  C   UNL     1      28.935  38.951  49.357  1.00  0.00     0.029 A 
BRANCH  17  21
HETATM   21  C   UNL     1      27.507  39.077  45.318  1.00  0.00     0.155 C 
HETATM   22  C   UNL     1      26.025  39.158  45.065  1.00  0.00     0.096 C 
HETATM   23  O   UNL     1      28.307  39.072  44.386  1.00  0.00    -0.293 OA
ENDBRANCH  17  21
ENDBRANCH  12  15
ENDBRANCH   1  11
BRANCH   9  24
HETATM   24  C   UNL     1      28.975  44.069  54.265  1.00  0.00    -0.005 A 
HETATM   25  C   UNL     1      28.856  45.117  55.205  1.00  0.00     0.050 A 
HETATM   26  C   UNL     1      29.745  45.249  56.278  1.00  0.00     0.069 A 
HETATM   27  C   UNL     1      30.791  44.337  56.417  1.00  0.00     0.037 A 
HETATM   28  C   UNL     1      30.944  43.300  55.502  1.00  0.00     0.004 A 
HETATM   29  C   UNL     1      30.045  43.170  54.442  1.00  0.00     0.014 A 
BRANCH  26  30
HETATM   30  O   UNL     1      29.704  46.220  57.240  1.00  0.00    -0.356 OA
HETATM   31  C   UNL     1      30.641  46.117  58.305  1.00  0.00     0.210 C 
ENDBRANCH  26  30
ENDBRANCH   9  24
TORSDOF 5
ENDMDL
