MODEL 1
REMARK VINA RESULT:      -9.7      0.000      0.000
REMARK  6 active torsions:
REMARK  status: ('A' for Active; 'I' for Inactive)
REMARK    1  A    between atoms: C_7  and  C_8 
REMARK    2  A    between atoms: N_9  and  N_10 
REMARK       I    between atoms: N_10  and  C_11 
REMARK    3  A    between atoms: C_11  and  C_12 
REMARK    4  A    between atoms: C_12  and  N_13 
REMARK       I    between atoms: N_13  and  C_14 
REMARK    5  A    between atoms: C_14  and  C_15 
REMARK    6  A    between atoms: C_15  and  C_16 
ROOT
HETATM    1  N   UNL     1      25.927  46.272  52.474  1.00  0.00    -0.246 N 
HETATM    2  C   UNL     1      25.226  45.083  52.400  1.00  0.00     0.255 C 
HETATM    3  O   UNL     1      24.189  44.909  51.760  1.00  0.00    -0.270 OA
HETATM    4  H   UNL     1      26.865  46.260  52.883  1.00  0.00     0.192 HD
ENDROOT
BRANCH   1   5
HETATM    5  N   UNL     1      25.538  47.354  51.733  1.00  0.00    -0.184 NA
HETATM    6  C   UNL     1      25.928  47.327  50.499  1.00  0.00     0.153 C 
BRANCH   6   7
HETATM    7  C   UNL     1      25.526  48.368  49.572  1.00  0.00     0.018 A 
HETATM    8  C   UNL     1      26.420  49.218  48.933  1.00  0.00     0.018 A 
HETATM    9  C   UNL     1      27.900  49.324  49.024  1.00  0.00     0.069 C 
HETATM   10  N   UNL     1      25.695  50.045  48.111  1.00  0.00    -0.358 N 
HETATM   11  H   UNL     1      26.083  50.766  47.519  1.00  0.00     0.166 HD
HETATM   12  C   UNL     1      24.355  49.758  48.193  1.00  0.00     0.043 A 
HETATM   13  C   UNL     1      24.213  48.717  49.113  1.00  0.00     0.004 A 
HETATM   14  C   UNL     1      23.270  50.336  47.522  1.00  0.00     0.030 A 
HETATM   15  C   UNL     1      22.910  48.238  49.374  1.00  0.00     0.014 A 
HETATM   16  C   UNL     1      21.814  48.805  48.713  1.00  0.00     0.001 A 
HETATM   17  C   UNL     1      21.994  49.838  47.798  1.00  0.00     0.002 A 
ENDBRANCH   6   7
ENDBRANCH   1   5
BRANCH   2  18
HETATM   18  C   UNL     1      25.958  43.896  53.041  1.00  0.00     0.227 C 
BRANCH  18  19
HETATM   19  N   UNL     1      27.415  43.866  52.968  1.00  0.00    -0.352 N 
HETATM   20  C   UNL     1      28.180  43.062  53.780  1.00  0.00     0.222 C 
HETATM   21  O   UNL     1      27.697  42.107  54.387  1.00  0.00    -0.273 OA
HETATM   22  H   UNL     1      27.864  44.624  52.470  1.00  0.00     0.162 HD
BRANCH  20  23
HETATM   23  C   UNL     1      29.651  43.425  53.847  1.00  0.00     0.141 C 
BRANCH  23  24
HETATM   24  C   UNL     1      30.081  43.940  55.195  1.00  0.00    -0.050 A 
HETATM   25  C   UNL     1      29.552  45.133  55.706  1.00  0.00     0.007 A 
HETATM   26  C   UNL     1      29.934  45.592  56.967  1.00  0.00     0.001 A 
HETATM   27  C   UNL     1      30.852  44.870  57.726  1.00  0.00     0.000 A 
HETATM   28  C   UNL     1      31.395  43.689  57.222  1.00  0.00     0.001 A 
HETATM   29  C   UNL     1      31.015  43.227  55.961  1.00  0.00     0.007 A 
ENDBRANCH  23  24
ENDBRANCH  20  23
ENDBRANCH  18  19
ENDBRANCH   2  18
TORSDOF 6
ENDMDL
MODEL 2
REMARK VINA RESULT:      -9.4      2.714     10.380
REMARK  6 active torsions:
REMARK  status: ('A' for Active; 'I' for Inactive)
REMARK    1  A    between atoms: C_7  and  C_8 
REMARK    2  A    between atoms: N_9  and  N_10 
REMARK       I    between atoms: N_10  and  C_11 
REMARK    3  A    between atoms: C_11  and  C_12 
REMARK    4  A    between atoms: C_12  and  N_13 
REMARK       I    between atoms: N_13  and  C_14 
REMARK    5  A    between atoms: C_14  and  C_15 
REMARK    6  A    between atoms: C_15  and  C_16 
ROOT
HETATM    1  N   UNL     1      24.874  46.422  51.261  1.00  0.00    -0.246 N 
HETATM    2  C   UNL     1      24.780  47.455  50.347  1.00  0.00     0.255 C 
HETATM    3  O   UNL     1      25.666  48.277  50.112  1.00  0.00    -0.270 OA
HETATM    4  H   UNL     1      24.156  45.694  51.249  1.00  0.00     0.192 HD
ENDROOT
BRANCH   1   5
HETATM    5  N   UNL     1      26.046  46.189  51.927  1.00  0.00    -0.184 NA
HETATM    6  C   UNL     1      25.970  46.326  53.211  1.00  0.00     0.153 C 
BRANCH   6   7
HETATM    7  C   UNL     1      27.112  46.037  54.057  1.00  0.00     0.018 A 
HETATM    8  C   UNL     1      27.488  46.821  55.141  1.00  0.00     0.018 A 
HETATM    9  C   UNL     1      26.909  48.078  55.682  1.00  0.00     0.069 C 
HETATM   10  N   UNL     1      28.582  46.231  55.723  1.00  0.00    -0.358 N 
HETATM   11  H   UNL     1      29.070  46.581  56.536  1.00  0.00     0.166 HD
HETATM   12  C   UNL     1      28.930  45.084  55.053  1.00  0.00     0.043 A 
HETATM   13  C   UNL     1      28.035  44.940  53.993  1.00  0.00     0.004 A 
HETATM   14  C   UNL     1      29.961  44.171  55.311  1.00  0.00     0.030 A 
HETATM   15  C   UNL     1      28.188  43.821  53.144  1.00  0.00     0.014 A 
HETATM   16  C   UNL     1      29.214  42.899  53.387  1.00  0.00     0.001 A 
HETATM   17  C   UNL     1      30.086  43.073  54.458  1.00  0.00     0.002 A 
ENDBRANCH   6   7
ENDBRANCH   1   5
BRANCH   2  18
HETATM   18  C   UNL     1      23.521  47.392  49.473  1.00  0.00     0.227 C 
BRANCH  18  19
HETATM   19  N   UNL     1      22.616  48.538  49.489  1.00  0.00    -0.352 N 
HETATM   20  C   UNL     1      22.787  49.626  48.665  1.00  0.00     0.222 C 
HETATM   21  O   UNL     1      23.504  49.576  47.667  1.00  0.00    -0.273 OA
HETATM   22  H   UNL     1      21.997  48.621  50.285  1.00  0.00     0.162 HD
BRANCH  20  23
HETATM   23  C   UNL     1      22.012  50.866  49.067  1.00  0.00     0.141 C 
BRANCH  23  24
HETATM   24  C   UNL     1      20.721  51.037  48.312  1.00  0.00    -0.050 A 
HETATM   25  C   UNL     1      20.401  50.189  47.242  1.00  0.00     0.007 A 
HETATM   26  C   UNL     1      19.191  50.335  46.563  1.00  0.00     0.001 A 
HETATM   27  C   UNL     1      18.292  51.330  46.940  1.00  0.00     0.000 A 
HETATM   28  C   UNL     1      18.605  52.187  47.994  1.00  0.00     0.001 A 
HETATM   29  C   UNL     1      19.815  52.045  48.675  1.00  0.00     0.007 A 
ENDBRANCH  23  24
ENDBRANCH  20  23
ENDBRANCH  18  19
ENDBRANCH   2  18
TORSDOF 6
ENDMDL
MODEL 3
REMARK VINA RESULT:      -9.4      2.463     10.229
REMARK  6 active torsions:
REMARK  status: ('A' for Active; 'I' for Inactive)
REMARK    1  A    between atoms: C_7  and  C_8 
REMARK    2  A    between atoms: N_9  and  N_10 
REMARK       I    between atoms: N_10  and  C_11 
REMARK    3  A    between atoms: C_11  and  C_12 
REMARK    4  A    between atoms: C_12  and  N_13 
REMARK       I    between atoms: N_13  and  C_14 
REMARK    5  A    between atoms: C_14  and  C_15 
REMARK    6  A    between atoms: C_15  and  C_16 
ROOT
HETATM    1  N   UNL     1      25.267  45.900  51.253  1.00  0.00    -0.246 N 
HETATM    2  C   UNL     1      25.235  47.134  50.631  1.00  0.00     0.255 C 
HETATM    3  O   UNL     1      26.155  47.953  50.632  1.00  0.00    -0.270 OA
HETATM    4  H   UNL     1      24.524  45.228  51.041  1.00  0.00     0.192 HD
ENDROOT
BRANCH   1   5
HETATM    5  N   UNL     1      26.409  45.459  51.862  1.00  0.00    -0.184 NA
HETATM    6  C   UNL     1      26.301  44.301  52.430  1.00  0.00     0.153 C 
BRANCH   6   7
HETATM    7  C   UNL     1      27.451  43.669  53.050  1.00  0.00     0.018 A 
HETATM    8  C   UNL     1      27.913  42.404  52.709  1.00  0.00     0.018 A 
HETATM    9  C   UNL     1      27.399  41.410  51.732  1.00  0.00     0.069 C 
HETATM   10  N   UNL     1      29.028  42.149  53.468  1.00  0.00    -0.358 N 
HETATM   11  H   UNL     1      29.577  41.302  53.431  1.00  0.00     0.166 HD
HETATM   12  C   UNL     1      29.309  43.211  54.291  1.00  0.00     0.043 A 
HETATM   13  C   UNL     1      28.330  44.179  54.063  1.00  0.00     0.004 A 
HETATM   14  C   UNL     1      30.354  43.384  55.209  1.00  0.00     0.030 A 
HETATM   15  C   UNL     1      28.402  45.381  54.801  1.00  0.00     0.014 A 
HETATM   16  C   UNL     1      29.439  45.570  55.724  1.00  0.00     0.001 A 
HETATM   17  C   UNL     1      30.401  44.585  55.921  1.00  0.00     0.002 A 
ENDBRANCH   6   7
ENDBRANCH   1   5
BRANCH   2  18
HETATM   18  C   UNL     1      24.001  47.346  49.745  1.00  0.00     0.227 C 
BRANCH  18  19
HETATM   19  N   UNL     1      23.297  48.621  49.842  1.00  0.00    -0.352 N 
HETATM   20  C   UNL     1      22.811  49.283  48.738  1.00  0.00     0.222 C 
HETATM   21  O   UNL     1      22.659  48.716  47.658  1.00  0.00    -0.273 OA
HETATM   22  H   UNL     1      23.381  49.125  50.715  1.00  0.00     0.162 HD
BRANCH  20  23
HETATM   23  C   UNL     1      22.459  50.741  48.964  1.00  0.00     0.141 C 
BRANCH  23  24
HETATM   24  C   UNL     1      20.986  50.979  49.162  1.00  0.00    -0.050 A 
HETATM   25  C   UNL     1      20.273  50.269  50.138  1.00  0.00     0.007 A 
HETATM   26  C   UNL     1      18.913  50.511  50.336  1.00  0.00     0.001 A 
HETATM   27  C   UNL     1      18.251  51.458  49.558  1.00  0.00     0.000 A 
HETATM   28  C   UNL     1      18.947  52.160  48.576  1.00  0.00     0.001 A 
HETATM   29  C   UNL     1      20.307  51.920  48.375  1.00  0.00     0.007 A 
ENDBRANCH  23  24
ENDBRANCH  20  23
ENDBRANCH  18  19
ENDBRANCH   2  18
TORSDOF 6
ENDMDL
MODEL 4
REMARK VINA RESULT:      -9.3      1.305      1.966
REMARK  6 active torsions:
REMARK  status: ('A' for Active; 'I' for Inactive)
REMARK    1  A    between atoms: C_7  and  C_8 
REMARK    2  A    between atoms: N_9  and  N_10 
REMARK       I    between atoms: N_10  and  C_11 
REMARK    3  A    between atoms: C_11  and  C_12 
REMARK    4  A    between atoms: C_12  and  N_13 
REMARK       I    between atoms: N_13  and  C_14 
REMARK    5  A    between atoms: C_14  and  C_15 
REMARK    6  A    between atoms: C_15  and  C_16 
ROOT
HETATM    1  N   UNL     1      25.181  46.500  51.206  1.00  0.00    -0.246 N 
HETATM    2  C   UNL     1      25.911  46.517  52.380  1.00  0.00     0.255 C 
HETATM    3  O   UNL     1      26.213  47.529  53.013  1.00  0.00    -0.270 OA
HETATM    4  H   UNL     1      24.834  45.601  50.861  1.00  0.00     0.192 HD
ENDROOT
BRANCH   1   5
HETATM    5  N   UNL     1      24.651  47.656  50.702  1.00  0.00    -0.184 NA
HETATM    6  C   UNL     1      24.265  47.575  49.470  1.00  0.00     0.153 C 
BRANCH   6   7
HETATM    7  C   UNL     1      23.613  48.699  48.822  1.00  0.00     0.018 A 
HETATM    8  C   UNL     1      24.298  49.726  48.185  1.00  0.00     0.018 A 
HETATM    9  C   UNL     1      25.755  49.972  48.023  1.00  0.00     0.069 C 
HETATM   10  N   UNL     1      23.366  50.587  47.663  1.00  0.00    -0.358 N 
HETATM   11  H   UNL     1      23.575  51.428  47.142  1.00  0.00     0.166 HD
HETATM   12  C   UNL     1      22.093  50.151  47.937  1.00  0.00     0.043 A 
HETATM   13  C   UNL     1      22.213  48.973  48.676  1.00  0.00     0.004 A 
HETATM   14  C   UNL     1      20.858  50.708  47.582  1.00  0.00     0.030 A 
HETATM   15  C   UNL     1      21.026  48.324  49.084  1.00  0.00     0.014 A 
HETATM   16  C   UNL     1      19.782  48.868  48.739  1.00  0.00     0.001 A 
HETATM   17  C   UNL     1      19.702  50.042  47.997  1.00  0.00     0.002 A 
ENDBRANCH   6   7
ENDBRANCH   1   5
BRANCH   2  18
HETATM   18  C   UNL     1      26.168  45.122  52.966  1.00  0.00     0.227 C 
BRANCH  18  19
HETATM   19  N   UNL     1      27.540  44.624  52.979  1.00  0.00    -0.352 N 
HETATM   20  C   UNL     1      27.979  43.689  53.887  1.00  0.00     0.222 C 
HETATM   21  O   UNL     1      27.195  42.992  54.529  1.00  0.00    -0.273 OA
HETATM   22  H   UNL     1      28.224  45.156  52.457  1.00  0.00     0.162 HD
BRANCH  20  23
HETATM   23  C   UNL     1      29.485  43.570  54.013  1.00  0.00     0.141 C 
BRANCH  23  24
HETATM   24  C   UNL     1      30.012  44.012  55.352  1.00  0.00    -0.050 A 
HETATM   25  C   UNL     1      30.965  43.242  56.034  1.00  0.00     0.007 A 
HETATM   26  C   UNL     1      31.469  43.669  57.263  1.00  0.00     0.001 A 
HETATM   27  C   UNL     1      31.023  44.863  57.826  1.00  0.00     0.000 A 
HETATM   28  C   UNL     1      30.067  45.630  57.162  1.00  0.00     0.001 A 
HETATM   29  C   UNL     1      29.559  45.205  55.933  1.00  0.00     0.007 A 
ENDBRANCH  23  24
ENDBRANCH  20  23
ENDBRANCH  18  19
ENDBRANCH   2  18
TORSDOF 6
ENDMDL
MODEL 5
REMARK VINA RESULT:      -9.2      2.044      8.945
REMARK  6 active torsions:
REMARK  status: ('A' for Active; 'I' for Inactive)
REMARK    1  A    between atoms: C_7  and  C_8 
REMARK    2  A    between atoms: N_9  and  N_10 
REMARK       I    between atoms: N_10  and  C_11 
REMARK    3  A    between atoms: C_11  and  C_12 
REMARK    4  A    between atoms: C_12  and  N_13 
REMARK       I    between atoms: N_13  and  C_14 
REMARK    5  A    between atoms: C_14  and  C_15 
REMARK    6  A    between atoms: C_15  and  C_16 
ROOT
HETATM    1  N   UNL     1      26.646  43.592  52.838  1.00  0.00    -0.246 N 
HETATM    2  C   UNL     1      25.289  43.849  52.785  1.00  0.00     0.255 C 
HETATM    3  O   UNL     1      24.588  44.163  53.748  1.00  0.00    -0.270 OA
HETATM    4  H   UNL     1      27.163  43.516  51.958  1.00  0.00     0.192 HD
ENDROOT
BRANCH   1   5
HETATM    5  N   UNL     1      27.341  43.766  54.004  1.00  0.00    -0.184 NA
HETATM    6  C   UNL     1      28.035  44.857  54.057  1.00  0.00     0.153 C 
BRANCH   6   7
HETATM    7  C   UNL     1      28.762  45.215  55.261  1.00  0.00     0.018 A 
HETATM    8  C   UNL     1      28.458  46.320  56.046  1.00  0.00     0.018 A 
HETATM    9  C   UNL     1      27.423  47.374  55.886  1.00  0.00     0.069 C 
HETATM   10  N   UNL     1      29.323  46.325  57.111  1.00  0.00    -0.358 N 
HETATM   11  H   UNL     1      29.334  47.014  57.851  1.00  0.00     0.166 HD
HETATM   12  C   UNL     1      30.182  45.256  57.046  1.00  0.00     0.043 A 
HETATM   13  C   UNL     1      29.865  44.544  55.888  1.00  0.00     0.004 A 
HETATM   14  C   UNL     1      31.202  44.869  57.924  1.00  0.00     0.030 A 
HETATM   15  C   UNL     1      30.618  43.386  55.595  1.00  0.00     0.014 A 
HETATM   16  C   UNL     1      31.643  42.985  56.461  1.00  0.00     0.001 A 
HETATM   17  C   UNL     1      31.928  43.717  57.610  1.00  0.00     0.002 A 
ENDBRANCH   6   7
ENDBRANCH   1   5
BRANCH   2  18
HETATM   18  C   UNL     1      24.728  43.904  51.358  1.00  0.00     0.227 C 
BRANCH  18  19
HETATM   19  N   UNL     1      24.097  45.144  50.915  1.00  0.00    -0.352 N 
HETATM   20  C   UNL     1      24.508  45.821  49.790  1.00  0.00     0.222 C 
HETATM   21  O   UNL     1      25.202  45.284  48.928  1.00  0.00    -0.273 OA
HETATM   22  H   UNL     1      23.508  45.621  51.584  1.00  0.00     0.162 HD
BRANCH  20  23
HETATM   23  C   UNL     1      24.023  47.254  49.687  1.00  0.00     0.141 C 
BRANCH  23  24
HETATM   24  C   UNL     1      25.095  48.221  49.261  1.00  0.00    -0.050 A 
HETATM   25  C   UNL     1      24.784  49.316  48.442  1.00  0.00     0.007 A 
HETATM   26  C   UNL     1      25.777  50.223  48.070  1.00  0.00     0.001 A 
HETATM   27  C   UNL     1      27.088  50.044  48.506  1.00  0.00     0.000 A 
HETATM   28  C   UNL     1      27.410  48.952  49.309  1.00  0.00     0.001 A 
HETATM   29  C   UNL     1      26.420  48.041  49.682  1.00  0.00     0.007 A 
ENDBRANCH  23  24
ENDBRANCH  20  23
ENDBRANCH  18  19
ENDBRANCH   2  18
TORSDOF 6
ENDMDL
MODEL 6
REMARK VINA RESULT:      -8.7      2.473      3.572
REMARK  6 active torsions:
REMARK  status: ('A' for Active; 'I' for Inactive)
REMARK    1  A    between atoms: C_7  and  C_8 
REMARK    2  A    between atoms: N_9  and  N_10 
REMARK       I    between atoms: N_10  and  C_11 
REMARK    3  A    between atoms: C_11  and  C_12 
REMARK    4  A    between atoms: C_12  and  N_13 
REMARK       I    between atoms: N_13  and  C_14 
REMARK    5  A    between atoms: C_14  and  C_15 
REMARK    6  A    between atoms: C_15  and  C_16 
ROOT
HETATM    1  N   UNL     1      24.442  45.941  49.825  1.00  0.00    -0.246 N 
HETATM    2  C   UNL     1      25.759  45.558  49.653  1.00  0.00     0.255 C 
HETATM    3  O   UNL     1      26.692  46.320  49.400  1.00  0.00    -0.270 OA
HETATM    4  H   UNL     1      23.782  45.258  50.207  1.00  0.00     0.192 HD
ENDROOT
BRANCH   1   5
HETATM    5  N   UNL     1      24.096  47.264  49.809  1.00  0.00    -0.184 NA
HETATM    6  C   UNL     1      23.290  47.597  48.854  1.00  0.00     0.153 C 
BRANCH   6   7
HETATM    7  C   UNL     1      22.776  48.950  48.755  1.00  0.00     0.018 A 
HETATM    8  C   UNL     1      23.539  50.038  48.348  1.00  0.00     0.018 A 
HETATM    9  C   UNL     1      24.971  50.135  47.964  1.00  0.00     0.069 C 
HETATM   10  N   UNL     1      22.722  51.141  48.341  1.00  0.00    -0.358 N 
HETATM   11  H   UNL     1      23.006  52.076  48.084  1.00  0.00     0.166 HD
HETATM   12  C   UNL     1      21.448  50.805  48.728  1.00  0.00     0.043 A 
HETATM   13  C   UNL     1      21.450  49.438  49.008  1.00  0.00     0.004 A 
HETATM   14  C   UNL     1      20.304  51.605  48.844  1.00  0.00     0.030 A 
HETATM   15  C   UNL     1      20.240  48.846  49.432  1.00  0.00     0.014 A 
HETATM   16  C   UNL     1      19.087  49.632  49.554  1.00  0.00     0.001 A 
HETATM   17  C   UNL     1      19.121  50.992  49.262  1.00  0.00     0.002 A 
ENDBRANCH   6   7
ENDBRANCH   1   5
BRANCH   2  18
HETATM   18  C   UNL     1      26.023  44.087  50.000  1.00  0.00     0.227 C 
BRANCH  18  19
HETATM   19  N   UNL     1      26.478  43.770  51.350  1.00  0.00    -0.352 N 
HETATM   20  C   UNL     1      25.650  43.849  52.446  1.00  0.00     0.222 C 
HETATM   21  O   UNL     1      24.426  43.882  52.333  1.00  0.00    -0.273 OA
HETATM   22  H   UNL     1      27.477  43.720  51.497  1.00  0.00     0.162 HD
BRANCH  20  23
HETATM   23  C   UNL     1      26.357  43.865  53.788  1.00  0.00     0.141 C 
BRANCH  23  24
HETATM   24  C   UNL     1      26.794  45.239  54.219  1.00  0.00    -0.050 A 
HETATM   25  C   UNL     1      28.079  45.450  54.739  1.00  0.00     0.007 A 
HETATM   26  C   UNL     1      28.489  46.730  55.113  1.00  0.00     0.001 A 
HETATM   27  C   UNL     1      27.619  47.810  54.978  1.00  0.00     0.000 A 
HETATM   28  C   UNL     1      26.335  47.610  54.474  1.00  0.00     0.001 A 
HETATM   29  C   UNL     1      25.922  46.331  54.100  1.00  0.00     0.007 A 
ENDBRANCH  23  24
ENDBRANCH  20  23
ENDBRANCH  18  19
ENDBRANCH   2  18
TORSDOF 6
ENDMDL
MODEL 7
REMARK VINA RESULT:      -8.6      2.405      8.738
REMARK  6 active torsions:
REMARK  status: ('A' for Active; 'I' for Inactive)
REMARK    1  A    between atoms: C_7  and  C_8 
REMARK    2  A    between atoms: N_9  and  N_10 
REMARK       I    between atoms: N_10  and  C_11 
REMARK    3  A    between atoms: C_11  and  C_12 
REMARK    4  A    between atoms: C_12  and  N_13 
REMARK       I    between atoms: N_13  and  C_14 
REMARK    5  A    between atoms: C_14  and  C_15 
REMARK    6  A    between atoms: C_15  and  C_16 
ROOT
HETATM    1  N   UNL     1      23.868  44.913  50.906  1.00  0.00    -0.246 N 
HETATM    2  C   UNL     1      23.320  43.778  50.339  1.00  0.00     0.255 C 
HETATM    3  O   UNL     1      23.555  42.623  50.695  1.00  0.00    -0.270 OA
HETATM    4  H   UNL     1      23.471  45.823  50.657  1.00  0.00     0.192 HD
ENDROOT
BRANCH   1   5
HETATM    5  N   UNL     1      24.676  44.819  52.006  1.00  0.00    -0.184 NA
HETATM    6  C   UNL     1      25.873  45.279  51.833  1.00  0.00     0.153 C 
BRANCH   6   7
HETATM    7  C   UNL     1      26.819  45.317  52.932  1.00  0.00     0.018 A 
HETATM    8  C   UNL     1      26.794  46.274  53.939  1.00  0.00     0.018 A 
HETATM    9  C   UNL     1      25.903  47.444  54.150  1.00  0.00     0.069 C 
HETATM   10  N   UNL     1      27.806  45.980  54.819  1.00  0.00    -0.358 N 
HETATM   11  H   UNL     1      28.025  46.506  55.653  1.00  0.00     0.166 HD
HETATM   12  C   UNL     1      28.488  44.857  54.418  1.00  0.00     0.043 A 
HETATM   13  C   UNL     1      27.901  44.423  53.229  1.00  0.00     0.004 A 
HETATM   14  C   UNL     1      29.568  44.200  55.021  1.00  0.00     0.030 A 
HETATM   15  C   UNL     1      28.434  43.269  52.611  1.00  0.00     0.014 A 
HETATM   16  C   UNL     1      29.514  42.601  53.199  1.00  0.00     0.001 A 
HETATM   17  C   UNL     1      30.070  43.060  54.389  1.00  0.00     0.002 A 
ENDBRANCH   6   7
ENDBRANCH   1   5
BRANCH   2  18
HETATM   18  C   UNL     1      22.209  44.072  49.322  1.00  0.00     0.227 C 
BRANCH  18  19
HETATM   19  N   UNL     1      21.631  45.413  49.305  1.00  0.00    -0.352 N 
HETATM   20  C   UNL     1      21.685  46.226  48.196  1.00  0.00     0.222 C 
HETATM   21  O   UNL     1      21.934  45.781  47.078  1.00  0.00    -0.273 OA
HETATM   22  H   UNL     1      21.398  45.822  50.200  1.00  0.00     0.162 HD
BRANCH  20  23
HETATM   23  C   UNL     1      21.392  47.691  48.457  1.00  0.00     0.141 C 
BRANCH  23  24
HETATM   24  C   UNL     1      22.619  48.562  48.429  1.00  0.00    -0.050 A 
HETATM   25  C   UNL     1      22.591  49.816  47.801  1.00  0.00     0.007 A 
HETATM   26  C   UNL     1      23.724  50.630  47.800  1.00  0.00     0.001 A 
HETATM   27  C   UNL     1      24.896  50.200  48.418  1.00  0.00     0.000 A 
HETATM   28  C   UNL     1      24.939  48.950  49.033  1.00  0.00     0.001 A 
HETATM   29  C   UNL     1      23.808  48.132  49.035  1.00  0.00     0.007 A 
ENDBRANCH  23  24
ENDBRANCH  20  23
ENDBRANCH  18  19
ENDBRANCH   2  18
TORSDOF 6
ENDMDL
MODEL 8
REMARK VINA RESULT:      -8.6      1.694      2.792
REMARK  6 active torsions:
REMARK  status: ('A' for Active; 'I' for Inactive)
REMARK    1  A    between atoms: C_7  and  C_8 
REMARK    2  A    between atoms: N_9  and  N_10 
REMARK       I    between atoms: N_10  and  C_11 
REMARK    3  A    between atoms: C_11  and  C_12 
REMARK    4  A    between atoms: C_12  and  N_13 
REMARK       I    between atoms: N_13  and  C_14 
REMARK    5  A    between atoms: C_14  and  C_15 
REMARK    6  A    between atoms: C_15  and  C_16 
ROOT
HETATM    1  N   UNL     1      25.408  45.081  50.859  1.00  0.00    -0.246 N 
HETATM    2  C   UNL     1      25.901  45.056  52.151  1.00  0.00     0.255 C 
HETATM    3  O   UNL     1      25.727  45.937  52.993  1.00  0.00    -0.270 OA
HETATM    4  H   UNL     1      25.458  44.223  50.302  1.00  0.00     0.192 HD
ENDROOT
BRANCH   1   5
HETATM    5  N   UNL     1      24.585  46.093  50.449  1.00  0.00    -0.184 NA
HETATM    6  C   UNL     1      23.960  45.861  49.341  1.00  0.00     0.153 C 
BRANCH   6   7
HETATM    7  C   UNL     1      22.994  46.811  48.821  1.00  0.00     0.018 A 
HETATM    8  C   UNL     1      21.685  46.479  48.493  1.00  0.00     0.018 A 
HETATM    9  C   UNL     1      20.968  45.178  48.541  1.00  0.00     0.069 C 
HETATM   10  N   UNL     1      21.058  47.624  48.070  1.00  0.00    -0.358 N 
HETATM   11  H   UNL     1      20.096  47.686  47.770  1.00  0.00     0.166 HD
HETATM   12  C   UNL     1      21.918  48.694  48.115  1.00  0.00     0.043 A 
HETATM   13  C   UNL     1      23.147  48.215  48.570  1.00  0.00     0.004 A 
HETATM   14  C   UNL     1      21.695  50.039  47.794  1.00  0.00     0.030 A 
HETATM   15  C   UNL     1      24.210  49.137  48.703  1.00  0.00     0.014 A 
HETATM   16  C   UNL     1      24.004  50.485  48.385  1.00  0.00     0.001 A 
HETATM   17  C   UNL     1      22.763  50.928  47.939  1.00  0.00     0.002 A 
ENDBRANCH   6   7
ENDBRANCH   1   5
BRANCH   2  18
HETATM   18  C   UNL     1      26.544  43.719  52.540  1.00  0.00     0.227 C 
BRANCH  18  19
HETATM   19  N   UNL     1      27.996  43.671  52.683  1.00  0.00    -0.352 N 
HETATM   20  C   UNL     1      28.621  42.865  53.606  1.00  0.00     0.222 C 
HETATM   21  O   UNL     1      28.041  41.922  54.141  1.00  0.00    -0.273 OA
HETATM   22  H   UNL     1      28.523  44.419  52.252  1.00  0.00     0.162 HD
BRANCH  20  23
HETATM   23  C   UNL     1      30.071  43.211  53.887  1.00  0.00     0.141 C 
BRANCH  23  24
HETATM   24  C   UNL     1      30.288  43.828  55.243  1.00  0.00    -0.050 A 
HETATM   25  C   UNL     1      31.154  43.231  56.169  1.00  0.00     0.007 A 
HETATM   26  C   UNL     1      31.372  43.820  57.415  1.00  0.00     0.001 A 
HETATM   27  C   UNL     1      30.722  45.006  57.750  1.00  0.00     0.000 A 
HETATM   28  C   UNL     1      29.849  45.602  56.842  1.00  0.00     0.001 A 
HETATM   29  C   UNL     1      29.628  45.014  55.596  1.00  0.00     0.007 A 
ENDBRANCH  23  24
ENDBRANCH  20  23
ENDBRANCH  18  19
ENDBRANCH   2  18
TORSDOF 6
ENDMDL
MODEL 9
REMARK VINA RESULT:      -8.4      2.788      9.840
REMARK  6 active torsions:
REMARK  status: ('A' for Active; 'I' for Inactive)
REMARK    1  A    between atoms: C_7  and  C_8 
REMARK    2  A    between atoms: N_9  and  N_10 
REMARK       I    between atoms: N_10  and  C_11 
REMARK    3  A    between atoms: C_11  and  C_12 
REMARK    4  A    between atoms: C_12  and  N_13 
REMARK       I    between atoms: N_13  and  C_14 
REMARK    5  A    between atoms: C_14  and  C_15 
REMARK    6  A    between atoms: C_15  and  C_16 
ROOT
HETATM    1  N   UNL     1      24.201  45.948  50.372  1.00  0.00    -0.246 N 
HETATM    2  C   UNL     1      24.521  47.269  50.623  1.00  0.00     0.255 C 
HETATM    3  O   UNL     1      25.371  47.653  51.427  1.00  0.00    -0.270 OA
HETATM    4  H   UNL     1      23.612  45.735  49.562  1.00  0.00     0.192 HD
ENDROOT
BRANCH   1   5
HETATM    5  N   UNL     1      24.908  44.938  50.965  1.00  0.00    -0.184 NA
HETATM    6  C   UNL     1      26.002  44.618  50.354  1.00  0.00     0.153 C 
BRANCH   6   7
HETATM    7  C   UNL     1      26.894  43.616  50.907  1.00  0.00     0.018 A 
HETATM    8  C   UNL     1      27.219  42.431  50.260  1.00  0.00     0.018 A 
HETATM    9  C   UNL     1      26.770  41.877  48.956  1.00  0.00     0.069 C 
HETATM   10  N   UNL     1      28.107  41.751  51.056  1.00  0.00    -0.358 N 
HETATM   11  H   UNL     1      28.519  40.854  50.838  1.00  0.00     0.166 HD
HETATM   12  C   UNL     1      28.374  42.459  52.202  1.00  0.00     0.043 A 
HETATM   13  C   UNL     1      27.617  43.631  52.146  1.00  0.00     0.004 A 
HETATM   14  C   UNL     1      29.225  42.150  53.271  1.00  0.00     0.030 A 
HETATM   15  C   UNL     1      27.720  44.537  53.225  1.00  0.00     0.014 A 
HETATM   16  C   UNL     1      28.566  44.244  54.302  1.00  0.00     0.001 A 
HETATM   17  C   UNL     1      29.309  43.067  54.321  1.00  0.00     0.002 A 
ENDBRANCH   6   7
ENDBRANCH   1   5
BRANCH   2  18
HETATM   18  C   UNL     1      23.852  48.259  49.661  1.00  0.00     0.227 C 
BRANCH  18  19
HETATM   19  N   UNL     1      22.410  48.152  49.457  1.00  0.00    -0.352 N 
HETATM   20  C   UNL     1      21.863  47.657  48.296  1.00  0.00     0.222 C 
HETATM   21  O   UNL     1      22.525  46.996  47.497  1.00  0.00    -0.273 OA
HETATM   22  H   UNL     1      21.819  48.669  50.094  1.00  0.00     0.162 HD
BRANCH  20  23
HETATM   23  C   UNL     1      20.392  47.966  48.094  1.00  0.00     0.141 C 
BRANCH  23  24
HETATM   24  C   UNL     1      19.991  49.329  48.593  1.00  0.00    -0.050 A 
HETATM   25  C   UNL     1      20.471  50.488  47.968  1.00  0.00     0.007 A 
HETATM   26  C   UNL     1      20.077  51.749  48.418  1.00  0.00     0.001 A 
HETATM   27  C   UNL     1      19.207  51.864  49.499  1.00  0.00     0.000 A 
HETATM   28  C   UNL     1      18.734  50.719  50.137  1.00  0.00     0.001 A 
HETATM   29  C   UNL     1      19.127  49.457  49.690  1.00  0.00     0.007 A 
ENDBRANCH  23  24
ENDBRANCH  20  23
ENDBRANCH  18  19
ENDBRANCH   2  18
TORSDOF 6
ENDMDL
MODEL 10
REMARK VINA RESULT:      -8.4      2.858      9.672
REMARK  6 active torsions:
REMARK  status: ('A' for Active; 'I' for Inactive)
REMARK    1  A    between atoms: C_7  and  C_8 
REMARK    2  A    between atoms: N_9  and  N_10 
REMARK       I    between atoms: N_10  and  C_11 
REMARK    3  A    between atoms: C_11  and  C_12 
REMARK    4  A    between atoms: C_12  and  N_13 
REMARK       I    between atoms: N_13  and  C_14 
REMARK    5  A    between atoms: C_14  and  C_15 
REMARK    6  A    between atoms: C_15  and  C_16 
ROOT
HETATM    1  N   UNL     1      24.243  45.430  50.859  1.00  0.00    -0.246 N 
HETATM    2  C   UNL     1      23.420  44.444  50.349  1.00  0.00     0.255 C 
HETATM    3  O   UNL     1      23.319  43.302  50.798  1.00  0.00    -0.270 OA
HETATM    4  H   UNL     1      24.119  46.390  50.526  1.00  0.00     0.192 HD
ENDROOT
BRANCH   1   5
HETATM    5  N   UNL     1      24.964  45.211  52.001  1.00  0.00    -0.184 NA
HETATM    6  C   UNL     1      26.230  45.452  51.891  1.00  0.00     0.153 C 
BRANCH   6   7
HETATM    7  C   UNL     1      27.109  45.338  53.040  1.00  0.00     0.018 A 
HETATM    8  C   UNL     1      26.996  46.127  54.179  1.00  0.00     0.018 A 
HETATM    9  C   UNL     1      26.058  47.231  54.511  1.00  0.00     0.069 C 
HETATM   10  N   UNL     1      27.963  45.721  55.064  1.00  0.00    -0.358 N 
HETATM   11  H   UNL     1      28.117  46.116  55.981  1.00  0.00     0.166 HD
HETATM   12  C   UNL     1      28.702  44.690  54.539  1.00  0.00     0.043 A 
HETATM   13  C   UNL     1      28.199  44.433  53.262  1.00  0.00     0.004 A 
HETATM   14  C   UNL     1      29.765  43.970  55.099  1.00  0.00     0.030 A 
HETATM   15  C   UNL     1      28.802  43.401  52.508  1.00  0.00     0.014 A 
HETATM   16  C   UNL     1      29.866  42.673  53.053  1.00  0.00     0.001 A 
HETATM   17  C   UNL     1      30.338  42.953  54.332  1.00  0.00     0.002 A 
ENDBRANCH   6   7
ENDBRANCH   1   5
BRANCH   2  18
HETATM   18  C   UNL     1      22.462  44.944  49.260  1.00  0.00     0.227 C 
BRANCH  18  19
HETATM   19  N   UNL     1      22.393  46.381  49.012  1.00  0.00    -0.352 N 
HETATM   20  C   UNL     1      21.429  46.947  48.210  1.00  0.00     0.222 C 
HETATM   21  O   UNL     1      20.400  46.344  47.910  1.00  0.00    -0.273 OA
HETATM   22  H   UNL     1      23.211  46.926  49.251  1.00  0.00     0.162 HD
BRANCH  20  23
HETATM   23  C   UNL     1      21.721  48.364  47.753  1.00  0.00     0.141 C 
BRANCH  23  24
HETATM   24  C   UNL     1      20.888  49.403  48.453  1.00  0.00    -0.050 A 
HETATM   25  C   UNL     1      20.099  49.060  49.560  1.00  0.00     0.007 A 
HETATM   26  C   UNL     1      19.348  50.033  50.221  1.00  0.00     0.001 A 
HETATM   27  C   UNL     1      19.372  51.354  49.780  1.00  0.00     0.000 A 
HETATM   28  C   UNL     1      20.141  51.704  48.672  1.00  0.00     0.001 A 
HETATM   29  C   UNL     1      20.893  50.733  48.008  1.00  0.00     0.007 A 
ENDBRANCH  23  24
ENDBRANCH  20  23
ENDBRANCH  18  19
ENDBRANCH   2  18
TORSDOF 6
ENDMDL
