MODEL 1
REMARK VINA RESULT:      -8.1      0.000      0.000
REMARK  7 active torsions:
REMARK  status: ('A' for Active; 'I' for Inactive)
REMARK    1  A    between atoms: C_4  and  C_5 
REMARK    2  A    between atoms: C_10  and  C_11 
REMARK       I    between atoms: C_11  and  N_12 
REMARK    3  A    between atoms: N_12  and  C_13 
REMARK    4  A    between atoms: C_13  and  C_14 
REMARK    5  A    between atoms: C_14  and  C_15 
REMARK    6  A    between atoms: C_15  and  N_16 
REMARK    7  A    between atoms: C_26  and  C_27 
ROOT
HETATM    1  C   UNL     1      18.320  48.474  49.725  1.00  0.00     0.125 C 
HETATM    2  N   UNL     1      19.583  47.817  49.376  1.00  0.00    -0.365 N 
HETATM    3  C   UNL     1      20.714  48.508  49.100  1.00  0.00     0.141 A 
HETATM    4  N   UNL     1      20.781  49.863  49.274  1.00  0.00    -0.238 N 
HETATM    5  N   UNL     1      22.010  50.382  49.078  1.00  0.00    -0.163 NA
HETATM    6  C   UNL     1      22.740  49.324  48.647  1.00  0.00     0.165 A 
HETATM    7  C   UNL     1      21.957  48.143  48.649  1.00  0.00     0.092 A 
HETATM    8 BR   UNL     1      22.524  46.417  48.193  1.00  0.00    -0.044 Br
HETATM    9  C   UNL     1      19.659  50.685  49.688  1.00  0.00     0.221 C 
HETATM   10  C   UNL     1      18.616  49.822  50.416  1.00  0.00     0.067 C 
HETATM   11  H   UNL     1      19.468  46.869  49.012  1.00  0.00     0.162 HD
ENDROOT
BRANCH   6  12
HETATM   12  C   UNL     1      24.152  49.504  48.295  1.00  0.00     0.273 C 
HETATM   13  N   UNL     1      25.023  48.831  49.130  1.00  0.00    -0.355 N 
HETATM   14  H   UNL     1      24.578  48.383  49.934  1.00  0.00     0.162 HD
HETATM   15  O   UNL     1      24.571  50.144  47.328  1.00  0.00    -0.266 OA
BRANCH  13  16
HETATM   16  C   UNL     1      26.456  48.977  49.073  1.00  0.00     0.124 C 
BRANCH  16  17
HETATM   17  C   UNL     1      27.219  47.728  49.513  1.00  0.00     0.047 C 
BRANCH  17  18
HETATM   18  C   UNL     1      26.401  46.453  49.735  1.00  0.00     0.236 C 
BRANCH  18  19
HETATM   19  N   UNL     1      26.394  45.964  51.158  1.00  0.00    -0.067 N 
HETATM   20  H   UNL     1      27.391  45.898  51.456  1.00  0.00     0.280 HD
HETATM   21  C   UNL     1      25.641  46.843  52.140  1.00  0.00     0.261 C 
HETATM   22  C   UNL     1      25.718  46.238  53.546  1.00  0.00     0.195 C 
HETATM   23  O   UNL     1      25.206  44.902  53.563  1.00  0.00    -0.388 OA
HETATM   24  C   UNL     1      25.966  44.044  52.703  1.00  0.00     0.195 C 
HETATM   25  C   UNL     1      25.889  44.525  51.250  1.00  0.00     0.261 C 
ENDBRANCH  18  19
ENDBRANCH  17  18
ENDBRANCH  16  17
ENDBRANCH  13  16
ENDBRANCH   6  12
BRANCH   9  26
HETATM   26  C   UNL     1      19.118  51.443  48.496  1.00  0.00     0.409 C 
HETATM   27  F   UNL     1      17.836  51.826  48.633  1.00  0.00    -0.169 F 
HETATM   28  F   UNL     1      19.857  52.559  48.276  1.00  0.00    -0.169 F 
HETATM   29  F   UNL     1      19.198  50.703  47.365  1.00  0.00    -0.169 F 
ENDBRANCH   9  26
BRANCH   1  30
HETATM   30  C   UNL     1      17.277  48.569  48.630  1.00  0.00     0.005 A 
HETATM   31  S   UNL     1      17.425  47.659  47.176  1.00  0.00    -0.104 SA
HETATM   32  C   UNL     1      15.948  48.256  46.563  1.00  0.00     0.050 A 
HETATM   33  C   UNL     1      15.327  49.104  47.450  1.00  0.00     0.008 A 
HETATM   34  C   UNL     1      16.084  49.274  48.644  1.00  0.00     0.017 A 
ENDBRANCH   1  30
TORSDOF 7
ENDMDL
MODEL 2
REMARK VINA RESULT:      -8.0      2.367      3.573
REMARK  7 active torsions:
REMARK  status: ('A' for Active; 'I' for Inactive)
REMARK    1  A    between atoms: C_4  and  C_5 
REMARK    2  A    between atoms: C_10  and  C_11 
REMARK       I    between atoms: C_11  and  N_12 
REMARK    3  A    between atoms: N_12  and  C_13 
REMARK    4  A    between atoms: C_13  and  C_14 
REMARK    5  A    between atoms: C_14  and  C_15 
REMARK    6  A    between atoms: C_15  and  N_16 
REMARK    7  A    between atoms: C_26  and  C_27 
ROOT
HETATM    1  C   UNL     1      17.415  49.707  49.558  1.00  0.00     0.125 C 
HETATM    2  N   UNL     1      17.824  48.360  49.150  1.00  0.00    -0.365 N 
HETATM    3  C   UNL     1      19.113  48.033  48.897  1.00  0.00     0.141 A 
HETATM    4  N   UNL     1      20.132  48.908  49.151  1.00  0.00    -0.238 N 
HETATM    5  N   UNL     1      21.363  48.387  48.966  1.00  0.00    -0.163 NA
HETATM    6  C   UNL     1      21.115  47.154  48.461  1.00  0.00     0.165 A 
HETATM    7  C   UNL     1      19.722  46.907  48.405  1.00  0.00     0.092 A 
HETATM    8 BR   UNL     1      18.880  45.333  47.838  1.00  0.00    -0.044 Br
HETATM    9  C   UNL     1      19.939  50.264  49.631  1.00  0.00     0.221 C 
HETATM   10  C   UNL     1      18.571  50.385  50.324  1.00  0.00     0.067 C 
HETATM   11  H   UNL     1      17.071  47.810  48.732  1.00  0.00     0.162 HD
ENDROOT
BRANCH   6  12
HETATM   12  C   UNL     1      22.232  46.275  48.097  1.00  0.00     0.273 C 
HETATM   13  N   UNL     1      22.932  45.788  49.183  1.00  0.00    -0.355 N 
HETATM   14  H   UNL     1      22.645  46.180  50.083  1.00  0.00     0.162 HD
HETATM   15  O   UNL     1      22.527  45.934  46.950  1.00  0.00    -0.266 OA
BRANCH  13  16
HETATM   16  C   UNL     1      24.153  45.030  49.071  1.00  0.00     0.124 C 
BRANCH  16  17
HETATM   17  C   UNL     1      25.373  45.738  49.661  1.00  0.00     0.047 C 
BRANCH  17  18
HETATM   18  C   UNL     1      25.111  46.976  50.523  1.00  0.00     0.236 C 
BRANCH  18  19
HETATM   19  N   UNL     1      25.620  48.261  49.929  1.00  0.00    -0.067 N 
HETATM   20  H   UNL     1      25.570  48.980  50.683  1.00  0.00     0.280 HD
HETATM   21  C   UNL     1      27.038  48.206  49.391  1.00  0.00     0.261 C 
HETATM   22  C   UNL     1      27.434  49.574  48.824  1.00  0.00     0.195 C 
HETATM   23  O   UNL     1      26.519  49.996  47.807  1.00  0.00    -0.388 OA
HETATM   24  C   UNL     1      25.192  50.135  48.328  1.00  0.00     0.195 C 
HETATM   25  C   UNL     1      24.673  48.792  48.854  1.00  0.00     0.261 C 
ENDBRANCH  18  19
ENDBRANCH  17  18
ENDBRANCH  16  17
ENDBRANCH  13  16
ENDBRANCH   6  12
BRANCH   9  26
HETATM   26  C   UNL     1      20.151  51.240  48.496  1.00  0.00     0.409 C 
HETATM   27  F   UNL     1      19.815  50.751  47.289  1.00  0.00    -0.169 F 
HETATM   28  F   UNL     1      19.420  52.364  48.701  1.00  0.00    -0.169 F 
HETATM   29  F   UNL     1      21.446  51.635  48.423  1.00  0.00    -0.169 F 
ENDBRANCH   9  26
BRANCH   1  30
HETATM   30  C   UNL     1      16.799  50.585  48.488  1.00  0.00     0.005 A 
HETATM   31  S   UNL     1      16.056  52.086  48.884  1.00  0.00    -0.104 SA
HETATM   32  C   UNL     1      15.699  52.427  47.249  1.00  0.00     0.050 A 
HETATM   33  C   UNL     1      16.160  51.444  46.405  1.00  0.00     0.008 A 
HETATM   34  C   UNL     1      16.805  50.391  47.115  1.00  0.00     0.017 A 
ENDBRANCH   1  30
TORSDOF 7
ENDMDL
MODEL 3
REMARK VINA RESULT:      -7.6     11.467     14.166
REMARK  7 active torsions:
REMARK  status: ('A' for Active; 'I' for Inactive)
REMARK    1  A    between atoms: C_4  and  C_5 
REMARK    2  A    between atoms: C_10  and  C_11 
REMARK       I    between atoms: C_11  and  N_12 
REMARK    3  A    between atoms: N_12  and  C_13 
REMARK    4  A    between atoms: C_13  and  C_14 
REMARK    5  A    between atoms: C_14  and  C_15 
REMARK    6  A    between atoms: C_15  and  N_16 
REMARK    7  A    between atoms: C_26  and  C_27 
ROOT
HETATM    1  C   UNL     1      32.403  51.228  42.291  1.00  0.00     0.125 C 
HETATM    2  N   UNL     1      31.357  51.926  41.538  1.00  0.00    -0.365 N 
HETATM    3  C   UNL     1      30.350  51.273  40.910  1.00  0.00     0.141 A 
HETATM    4  N   UNL     1      30.168  49.927  41.066  1.00  0.00    -0.238 N 
HETATM    5  N   UNL     1      29.050  49.452  40.480  1.00  0.00    -0.163 NA
HETATM    6  C   UNL     1      28.552  50.528  39.822  1.00  0.00     0.165 A 
HETATM    7  C   UNL     1      29.343  51.676  40.071  1.00  0.00     0.092 A 
HETATM    8 BR   UNL     1      29.037  53.411  39.437  1.00  0.00    -0.044 Br
HETATM    9  C   UNL     1      31.053  49.071  41.835  1.00  0.00     0.221 C 
HETATM   10  C   UNL     1      31.836  49.910  42.859  1.00  0.00     0.067 C 
HETATM   11  H   UNL     1      31.628  52.859  41.224  1.00  0.00     0.162 HD
ENDROOT
BRANCH   6  12
HETATM   12  C   UNL     1      27.328  50.395  39.025  1.00  0.00     0.273 C 
HETATM   13  N   UNL     1      26.216  50.049  39.768  1.00  0.00    -0.355 N 
HETATM   14  H   UNL     1      26.411  49.836  40.749  1.00  0.00     0.162 HD
HETATM   15  O   UNL     1      27.238  50.609  37.814  1.00  0.00    -0.266 OA
BRANCH  13  16
HETATM   16  C   UNL     1      24.940  49.718  39.187  1.00  0.00     0.124 C 
BRANCH  16  17
HETATM   17  C   UNL     1      24.545  48.252  39.364  1.00  0.00     0.047 C 
BRANCH  17  18
HETATM   18  C   UNL     1      25.094  47.526  40.594  1.00  0.00     0.236 C 
BRANCH  18  19
HETATM   19  N   UNL     1      25.908  46.301  40.276  1.00  0.00    -0.067 N 
HETATM   20  H   UNL     1      25.273  45.640  39.780  1.00  0.00     0.280 HD
HETATM   21  C   UNL     1      27.136  46.546  39.419  1.00  0.00     0.261 C 
HETATM   22  C   UNL     1      27.868  45.224  39.164  1.00  0.00     0.195 C 
HETATM   23  O   UNL     1      28.225  44.586  40.395  1.00  0.00    -0.388 OA
HETATM   24  C   UNL     1      27.064  44.272  41.173  1.00  0.00     0.195 C 
HETATM   25  C   UNL     1      26.299  45.546  41.546  1.00  0.00     0.261 C 
ENDBRANCH  18  19
ENDBRANCH  17  18
ENDBRANCH  16  17
ENDBRANCH  13  16
ENDBRANCH   6  12
BRANCH   9  26
HETATM   26  C   UNL     1      31.921  48.264  40.896  1.00  0.00     0.409 C 
HETATM   27  F   UNL     1      33.101  47.898  41.428  1.00  0.00    -0.169 F 
HETATM   28  F   UNL     1      31.276  47.133  40.516  1.00  0.00    -0.169 F 
HETATM   29  F   UNL     1      32.188  48.951  39.760  1.00  0.00    -0.169 F 
ENDBRANCH   9  26
BRANCH   1  30
HETATM   30  C   UNL     1      33.743  51.066  41.602  1.00  0.00     0.005 A 
HETATM   31  S   UNL     1      34.031  51.735  40.043  1.00  0.00    -0.104 SA
HETATM   32  C   UNL     1      35.649  51.188  40.025  1.00  0.00     0.050 A 
HETATM   33  C   UNL     1      35.986  50.538  41.189  1.00  0.00     0.008 A 
HETATM   34  C   UNL     1      34.895  50.479  42.102  1.00  0.00     0.017 A 
ENDBRANCH   1  30
TORSDOF 7
ENDMDL
MODEL 4
REMARK VINA RESULT:      -7.6      2.396      2.834
REMARK  7 active torsions:
REMARK  status: ('A' for Active; 'I' for Inactive)
REMARK    1  A    between atoms: C_4  and  C_5 
REMARK    2  A    between atoms: C_10  and  C_11 
REMARK       I    between atoms: C_11  and  N_12 
REMARK    3  A    between atoms: N_12  and  C_13 
REMARK    4  A    between atoms: C_13  and  C_14 
REMARK    5  A    between atoms: C_14  and  C_15 
REMARK    6  A    between atoms: C_15  and  N_16 
REMARK    7  A    between atoms: C_26  and  C_27 
ROOT
HETATM    1  C   UNL     1      17.713  49.860  49.435  1.00  0.00     0.125 C 
HETATM    2  N   UNL     1      18.130  48.487  49.137  1.00  0.00    -0.365 N 
HETATM    3  C   UNL     1      19.428  48.136  48.974  1.00  0.00     0.141 A 
HETATM    4  N   UNL     1      20.440  49.019  49.223  1.00  0.00    -0.238 N 
HETATM    5  N   UNL     1      21.674  48.481  49.138  1.00  0.00    -0.163 NA
HETATM    6  C   UNL     1      21.441  47.218  48.702  1.00  0.00     0.165 A 
HETATM    7  C   UNL     1      20.050  46.976  48.589  1.00  0.00     0.092 A 
HETATM    8 BR   UNL     1      19.225  45.373  48.082  1.00  0.00    -0.044 Br
HETATM    9  C   UNL     1      20.235  50.405  49.604  1.00  0.00     0.221 C 
HETATM   10  C   UNL     1      18.834  50.580  50.214  1.00  0.00     0.067 C 
HETATM   11  H   UNL     1      17.395  47.914  48.717  1.00  0.00     0.162 HD
ENDROOT
BRANCH   6  12
HETATM   12  C   UNL     1      22.568  46.311  48.455  1.00  0.00     0.273 C 
HETATM   13  N   UNL     1      23.396  46.144  49.547  1.00  0.00    -0.355 N 
HETATM   14  H   UNL     1      23.174  46.746  50.344  1.00  0.00     0.162 HD
HETATM   15  O   UNL     1      22.771  45.694  47.407  1.00  0.00    -0.266 OA
BRANCH  13  16
HETATM   16  C   UNL     1      24.642  45.422  49.501  1.00  0.00     0.124 C 
BRANCH  16  17
HETATM   17  C   UNL     1      25.414  45.441  50.820  1.00  0.00     0.047 C 
BRANCH  17  18
HETATM   18  C   UNL     1      24.833  44.628  51.979  1.00  0.00     0.236 C 
BRANCH  18  19
HETATM   19  N   UNL     1      25.749  43.554  52.499  1.00  0.00    -0.067 N 
HETATM   20  H   UNL     1      25.142  42.826  52.934  1.00  0.00     0.280 HD
HETATM   21  C   UNL     1      26.636  42.900  51.456  1.00  0.00     0.261 C 
HETATM   22  C   UNL     1      27.510  41.825  52.113  1.00  0.00     0.195 C 
HETATM   23  O   UNL     1      28.295  42.376  53.175  1.00  0.00    -0.388 OA
HETATM   24  C   UNL     1      27.464  42.919  54.208  1.00  0.00     0.195 C 
HETATM   25  C   UNL     1      26.599  44.062  53.664  1.00  0.00     0.261 C 
ENDBRANCH  18  19
ENDBRANCH  17  18
ENDBRANCH  16  17
ENDBRANCH  13  16
ENDBRANCH   6  12
BRANCH   9  26
HETATM   26  C   UNL     1      20.515  51.304  48.420  1.00  0.00     0.409 C 
HETATM   27  F   UNL     1      19.832  52.462  48.444  1.00  0.00    -0.169 F 
HETATM   28  F   UNL     1      21.836  51.609  48.365  1.00  0.00    -0.169 F 
HETATM   29  F   UNL     1      20.217  50.686  47.252  1.00  0.00    -0.169 F 
ENDBRANCH   9  26
BRANCH   1  30
HETATM   30  C   UNL     1      17.162  50.669  48.278  1.00  0.00     0.005 A 
HETATM   31  S   UNL     1      17.055  50.004  46.695  1.00  0.00    -0.104 SA
HETATM   32  C   UNL     1      16.346  51.423  46.064  1.00  0.00     0.050 A 
HETATM   33  C   UNL     1      16.157  52.380  47.035  1.00  0.00     0.008 A 
HETATM   34  C   UNL     1      16.613  51.942  48.311  1.00  0.00     0.017 A 
ENDBRANCH   1  30
TORSDOF 7
ENDMDL
MODEL 5
REMARK VINA RESULT:      -7.5     13.274     15.508
REMARK  7 active torsions:
REMARK  status: ('A' for Active; 'I' for Inactive)
REMARK    1  A    between atoms: C_4  and  C_5 
REMARK    2  A    between atoms: C_10  and  C_11 
REMARK       I    between atoms: C_11  and  N_12 
REMARK    3  A    between atoms: N_12  and  C_13 
REMARK    4  A    between atoms: C_13  and  C_14 
REMARK    5  A    between atoms: C_14  and  C_15 
REMARK    6  A    between atoms: C_15  and  N_16 
REMARK    7  A    between atoms: C_26  and  C_27 
ROOT
HETATM    1  C   UNL     1      31.732  49.242  40.751  1.00  0.00     0.125 C 
HETATM    2  N   UNL     1      33.166  49.515  40.619  1.00  0.00    -0.365 N 
HETATM    3  C   UNL     1      33.821  50.386  41.422  1.00  0.00     0.141 A 
HETATM    4  N   UNL     1      33.209  50.956  42.503  1.00  0.00    -0.238 N 
HETATM    5  N   UNL     1      34.031  51.699  43.272  1.00  0.00    -0.163 NA
HETATM    6  C   UNL     1      35.200  51.695  42.587  1.00  0.00     0.165 A 
HETATM    7  C   UNL     1      35.098  50.886  41.428  1.00  0.00     0.092 A 
HETATM    8 BR   UNL     1      36.454  50.517  40.191  1.00  0.00    -0.044 Br
HETATM    9  C   UNL     1      31.813  50.753  42.847  1.00  0.00     0.221 C 
HETATM   10  C   UNL     1      31.303  49.445  42.220  1.00  0.00     0.067 C 
HETATM   11  H   UNL     1      33.544  49.296  39.695  1.00  0.00     0.162 HD
ENDROOT
BRANCH   6  12
HETATM   12  C   UNL     1      36.354  52.438  43.105  1.00  0.00     0.273 C 
HETATM   13  N   UNL     1      37.158  51.698  43.949  1.00  0.00    -0.355 N 
HETATM   14  H   UNL     1      36.791  50.770  44.179  1.00  0.00     0.162 HD
HETATM   15  O   UNL     1      36.649  53.597  42.806  1.00  0.00    -0.266 OA
BRANCH  13  16
HETATM   16  C   UNL     1      38.259  52.254  44.694  1.00  0.00     0.124 C 
BRANCH  16  17
HETATM   17  C   UNL     1      37.838  52.948  45.989  1.00  0.00     0.047 C 
BRANCH  17  18
HETATM   18  C   UNL     1      38.080  54.457  46.082  1.00  0.00     0.236 C 
BRANCH  18  19
HETATM   19  N   UNL     1      39.312  54.837  46.857  1.00  0.00    -0.067 N 
HETATM   20  H   UNL     1      39.033  55.603  47.507  1.00  0.00     0.280 HD
HETATM   21  C   UNL     1      39.945  53.713  47.657  1.00  0.00     0.261 C 
HETATM   22  C   UNL     1      41.180  54.233  48.401  1.00  0.00     0.195 C 
HETATM   23  O   UNL     1      42.127  54.806  47.492  1.00  0.00    -0.388 OA
HETATM   24  C   UNL     1      41.565  55.924  46.794  1.00  0.00     0.195 C 
HETATM   25  C   UNL     1      40.359  55.489  45.954  1.00  0.00     0.261 C 
ENDBRANCH  18  19
ENDBRANCH  17  18
ENDBRANCH  16  17
ENDBRANCH  13  16
ENDBRANCH   6  12
BRANCH   9  26
HETATM   26  C   UNL     1      31.013  51.979  42.471  1.00  0.00     0.409 C 
HETATM   27  F   UNL     1      31.536  52.676  41.446  1.00  0.00    -0.169 F 
HETATM   28  F   UNL     1      29.750  51.627  42.123  1.00  0.00    -0.169 F 
HETATM   29  F   UNL     1      30.897  52.831  43.518  1.00  0.00    -0.169 F 
ENDBRANCH   9  26
BRANCH   1  30
HETATM   30  C   UNL     1      30.816  49.921  39.752  1.00  0.00     0.005 A 
HETATM   31  S   UNL     1      29.138  49.544  39.682  1.00  0.00    -0.104 SA
HETATM   32  C   UNL     1      28.858  50.679  38.438  1.00  0.00     0.050 A 
HETATM   33  C   UNL     1      30.002  51.362  38.096  1.00  0.00     0.008 A 
HETATM   34  C   UNL     1      31.125  50.937  38.861  1.00  0.00     0.017 A 
ENDBRANCH   1  30
TORSDOF 7
ENDMDL
MODEL 6
REMARK VINA RESULT:      -7.4      4.064      8.190
REMARK  7 active torsions:
REMARK  status: ('A' for Active; 'I' for Inactive)
REMARK    1  A    between atoms: C_4  and  C_5 
REMARK    2  A    between atoms: C_10  and  C_11 
REMARK       I    between atoms: C_11  and  N_12 
REMARK    3  A    between atoms: N_12  and  C_13 
REMARK    4  A    between atoms: C_13  and  C_14 
REMARK    5  A    between atoms: C_14  and  C_15 
REMARK    6  A    between atoms: C_15  and  N_16 
REMARK    7  A    between atoms: C_26  and  C_27 
ROOT
HETATM    1  C   UNL     1      26.389  44.602  51.486  1.00  0.00     0.125 C 
HETATM    2  N   UNL     1      26.766  45.887  50.892  1.00  0.00    -0.365 N 
HETATM    3  C   UNL     1      25.874  46.697  50.273  1.00  0.00     0.141 A 
HETATM    4  N   UNL     1      24.534  46.427  50.295  1.00  0.00    -0.238 N 
HETATM    5  N   UNL     1      23.770  47.393  49.745  1.00  0.00    -0.163 NA
HETATM    6  C   UNL     1      24.674  48.271  49.246  1.00  0.00     0.165 A 
HETATM    7  C   UNL     1      25.994  47.861  49.559  1.00  0.00     0.092 A 
HETATM    8 BR   UNL     1      27.580  48.764  49.141  1.00  0.00    -0.044 Br
HETATM    9  C   UNL     1      23.953  45.242  50.900  1.00  0.00     0.221 C 
HETATM   10  C   UNL     1      24.917  44.662  51.948  1.00  0.00     0.067 C 
HETATM   11  H   UNL     1      27.759  45.960  50.661  1.00  0.00     0.162 HD
ENDROOT
BRANCH   6  12
HETATM   12  C   UNL     1      24.215  49.467  48.532  1.00  0.00     0.273 C 
HETATM   13  N   UNL     1      23.189  50.135  49.170  1.00  0.00    -0.355 N 
HETATM   14  H   UNL     1      22.821  49.657  49.996  1.00  0.00     0.162 HD
HETATM   15  O   UNL     1      24.699  49.903  47.485  1.00  0.00    -0.266 OA
BRANCH  13  16
HETATM   16  C   UNL     1      22.477  51.246  48.589  1.00  0.00     0.124 C 
BRANCH  16  17
HETATM   17  C   UNL     1      20.960  51.155  48.748  1.00  0.00     0.047 C 
BRANCH  17  18
HETATM   18  C   UNL     1      20.430  50.368  49.950  1.00  0.00     0.236 C 
BRANCH  18  19
HETATM   19  N   UNL     1      19.491  49.250  49.590  1.00  0.00    -0.067 N 
HETATM   20  H   UNL     1      19.115  48.874  50.487  1.00  0.00     0.280 HD
HETATM   21  C   UNL     1      18.331  49.643  48.693  1.00  0.00     0.261 C 
HETATM   22  C   UNL     1      17.452  48.420  48.410  1.00  0.00     0.195 C 
HETATM   23  O   UNL     1      18.214  47.361  47.822  1.00  0.00    -0.388 OA
HETATM   24  C   UNL     1      19.259  46.923  48.700  1.00  0.00     0.195 C 
HETATM   25  C   UNL     1      20.241  48.064  48.985  1.00  0.00     0.261 C 
ENDBRANCH  18  19
ENDBRANCH  17  18
ENDBRANCH  16  17
ENDBRANCH  13  16
ENDBRANCH   6  12
BRANCH   9  26
HETATM   26  C   UNL     1      23.548  44.266  49.818  1.00  0.00     0.409 C 
HETATM   27  F   UNL     1      23.706  42.976  50.163  1.00  0.00    -0.169 F 
HETATM   28  F   UNL     1      22.244  44.445  49.490  1.00  0.00    -0.169 F 
HETATM   29  F   UNL     1      24.258  44.468  48.682  1.00  0.00    -0.169 F 
ENDBRANCH   9  26
BRANCH   1  30
HETATM   30  C   UNL     1      26.724  43.359  50.687  1.00  0.00     0.005 A 
HETATM   31  S   UNL     1      26.835  41.816  51.442  1.00  0.00    -0.104 SA
HETATM   32  C   UNL     1      27.170  41.032  49.963  1.00  0.00     0.050 A 
HETATM   33  C   UNL     1      27.166  41.908  48.903  1.00  0.00     0.008 A 
HETATM   34  C   UNL     1      26.896  43.244  49.316  1.00  0.00     0.017 A 
ENDBRANCH   1  30
TORSDOF 7
ENDMDL
MODEL 7
REMARK VINA RESULT:      -7.3     12.207     14.578
REMARK  7 active torsions:
REMARK  status: ('A' for Active; 'I' for Inactive)
REMARK    1  A    between atoms: C_4  and  C_5 
REMARK    2  A    between atoms: C_10  and  C_11 
REMARK       I    between atoms: C_11  and  N_12 
REMARK    3  A    between atoms: N_12  and  C_13 
REMARK    4  A    between atoms: C_13  and  C_14 
REMARK    5  A    between atoms: C_14  and  C_15 
REMARK    6  A    between atoms: C_15  and  N_16 
REMARK    7  A    between atoms: C_26  and  C_27 
ROOT
HETATM    1  C   UNL     1      28.993  50.504  41.454  1.00  0.00     0.125 C 
HETATM    2  N   UNL     1      30.448  50.365  41.552  1.00  0.00    -0.365 N 
HETATM    3  C   UNL     1      31.306  51.117  40.822  1.00  0.00     0.141 A 
HETATM    4  N   UNL     1      30.863  52.157  40.054  1.00  0.00    -0.238 N 
HETATM    5  N   UNL     1      31.850  52.885  39.492  1.00  0.00    -0.163 NA
HETATM    6  C   UNL     1      32.976  52.208  39.827  1.00  0.00     0.165 A 
HETATM    7  C   UNL     1      32.667  51.101  40.654  1.00  0.00     0.092 A 
HETATM    8 BR   UNL     1      33.879  49.896  41.421  1.00  0.00    -0.044 Br
HETATM    9  C   UNL     1      29.464  52.505  39.886  1.00  0.00     0.221 C 
HETATM   10  C   UNL     1      28.641  51.955  41.062  1.00  0.00     0.067 C 
HETATM   11  H   UNL     1      30.752  49.459  41.913  1.00  0.00     0.162 HD
ENDROOT
BRANCH   6  12
HETATM   12  C   UNL     1      34.282  52.687  39.361  1.00  0.00     0.273 C 
HETATM   13  N   UNL     1      34.457  54.049  39.503  1.00  0.00    -0.355 N 
HETATM   14  H   UNL     1      33.624  54.553  39.818  1.00  0.00     0.162 HD
HETATM   15  O   UNL     1      35.189  51.975  38.924  1.00  0.00    -0.266 OA
BRANCH  13  16
HETATM   16  C   UNL     1      35.594  54.766  38.983  1.00  0.00     0.124 C 
BRANCH  16  17
HETATM   17  C   UNL     1      36.421  55.472  40.057  1.00  0.00     0.047 C 
BRANCH  17  18
HETATM   18  C   UNL     1      37.448  54.625  40.814  1.00  0.00     0.236 C 
BRANCH  18  19
HETATM   19  N   UNL     1      36.957  54.090  42.131  1.00  0.00    -0.067 N 
HETATM   20  H   UNL     1      36.088  54.618  42.364  1.00  0.00     0.280 HD
HETATM   21  C   UNL     1      36.652  52.603  42.151  1.00  0.00     0.261 C 
HETATM   22  C   UNL     1      36.156  52.190  43.541  1.00  0.00     0.195 C 
HETATM   23  O   UNL     1      37.112  52.527  44.551  1.00  0.00    -0.388 OA
HETATM   24  C   UNL     1      37.342  53.941  44.599  1.00  0.00     0.195 C 
HETATM   25  C   UNL     1      37.914  54.442  43.268  1.00  0.00     0.261 C 
ENDBRANCH  18  19
ENDBRANCH  17  18
ENDBRANCH  16  17
ENDBRANCH  13  16
ENDBRANCH   6  12
BRANCH   9  26
HETATM   26  C   UNL     1      28.987  52.049  38.524  1.00  0.00     0.409 C 
HETATM   27  F   UNL     1      29.184  52.955  37.550  1.00  0.00    -0.169 F 
HETATM   28  F   UNL     1      29.627  50.910  38.160  1.00  0.00    -0.169 F 
HETATM   29  F   UNL     1      27.665  51.756  38.540  1.00  0.00    -0.169 F 
ENDBRANCH   9  26
BRANCH   1  30
HETATM   30  C   UNL     1      28.264  49.460  40.632  1.00  0.00     0.005 A 
HETATM   31  S   UNL     1      29.097  48.113  39.960  1.00  0.00    -0.104 SA
HETATM   32  C   UNL     1      27.666  47.465  39.291  1.00  0.00     0.050 A 
HETATM   33  C   UNL     1      26.563  48.229  39.595  1.00  0.00     0.008 A 
HETATM   34  C   UNL     1      26.904  49.369  40.377  1.00  0.00     0.017 A 
ENDBRANCH   1  30
TORSDOF 7
ENDMDL
MODEL 8
REMARK VINA RESULT:      -7.3     13.091     15.164
REMARK  7 active torsions:
REMARK  status: ('A' for Active; 'I' for Inactive)
REMARK    1  A    between atoms: C_4  and  C_5 
REMARK    2  A    between atoms: C_10  and  C_11 
REMARK       I    between atoms: C_11  and  N_12 
REMARK    3  A    between atoms: N_12  and  C_13 
REMARK    4  A    between atoms: C_13  and  C_14 
REMARK    5  A    between atoms: C_14  and  C_15 
REMARK    6  A    between atoms: C_15  and  N_16 
REMARK    7  A    between atoms: C_26  and  C_27 
ROOT
HETATM    1  C   UNL     1      31.358  49.961  38.657  1.00  0.00     0.125 C 
HETATM    2  N   UNL     1      32.579  50.750  38.840  1.00  0.00    -0.365 N 
HETATM    3  C   UNL     1      33.262  50.779  40.009  1.00  0.00     0.141 A 
HETATM    4  N   UNL     1      32.930  49.955  41.048  1.00  0.00    -0.238 N 
HETATM    5  N   UNL     1      33.783  50.015  42.091  1.00  0.00    -0.163 NA
HETATM    6  C   UNL     1      34.639  51.009  41.748  1.00  0.00     0.165 A 
HETATM    7  C   UNL     1      34.336  51.505  40.456  1.00  0.00     0.092 A 
HETATM    8 BR   UNL     1      35.261  52.836  39.518  1.00  0.00    -0.044 Br
HETATM    9  C   UNL     1      31.799  49.045  41.034  1.00  0.00     0.221 C 
HETATM   10  C   UNL     1      31.398  48.728  39.584  1.00  0.00     0.067 C 
HETATM   11  H   UNL     1      32.673  51.524  38.180  1.00  0.00     0.162 HD
ENDROOT
BRANCH   6  12
HETATM   12  C   UNL     1      35.715  51.396  42.666  1.00  0.00     0.273 C 
HETATM   13  N   UNL     1      36.788  50.527  42.663  1.00  0.00    -0.355 N 
HETATM   14  H   UNL     1      36.648  49.683  42.101  1.00  0.00     0.162 HD
HETATM   15  O   UNL     1      35.730  52.416  43.359  1.00  0.00    -0.266 OA
BRANCH  13  16
HETATM   16  C   UNL     1      37.891  50.618  43.585  1.00  0.00     0.124 C 
BRANCH  16  17
HETATM   17  C   UNL     1      39.027  51.517  43.098  1.00  0.00     0.047 C 
BRANCH  17  18
HETATM   18  C   UNL     1      39.799  52.303  44.161  1.00  0.00     0.236 C 
BRANCH  18  19
HETATM   19  N   UNL     1      38.928  52.961  45.195  1.00  0.00    -0.067 N 
HETATM   20  H   UNL     1      38.025  52.441  45.202  1.00  0.00     0.280 HD
HETATM   21  C   UNL     1      39.499  52.981  46.602  1.00  0.00     0.261 C 
HETATM   22  C   UNL     1      38.515  53.669  47.555  1.00  0.00     0.195 C 
HETATM   23  O   UNL     1      38.209  54.995  47.111  1.00  0.00    -0.388 OA
HETATM   24  C   UNL     1      37.590  54.981  45.819  1.00  0.00     0.195 C 
HETATM   25  C   UNL     1      38.531  54.375  44.773  1.00  0.00     0.261 C 
ENDBRANCH  18  19
ENDBRANCH  17  18
ENDBRANCH  16  17
ENDBRANCH  13  16
ENDBRANCH   6  12
BRANCH   9  26
HETATM   26  C   UNL     1      30.681  49.612  41.880  1.00  0.00     0.409 C 
HETATM   27  F   UNL     1      29.453  49.230  41.484  1.00  0.00    -0.169 F 
HETATM   28  F   UNL     1      30.831  49.231  43.173  1.00  0.00    -0.169 F 
HETATM   29  F   UNL     1      30.700  50.967  41.877  1.00  0.00    -0.169 F 
ENDBRANCH   9  26
BRANCH   1  30
HETATM   30  C   UNL     1      30.045  50.718  38.711  1.00  0.00     0.005 A 
HETATM   31  S   UNL     1      28.541  49.910  38.494  1.00  0.00    -0.104 SA
HETATM   32  C   UNL     1      27.649  51.347  38.731  1.00  0.00     0.050 A 
HETATM   33  C   UNL     1      28.465  52.420  39.004  1.00  0.00     0.008 A 
HETATM   34  C   UNL     1      29.842  52.056  39.007  1.00  0.00     0.017 A 
ENDBRANCH   1  30
TORSDOF 7
ENDMDL
MODEL 9
REMARK VINA RESULT:      -7.2      4.356      8.702
REMARK  7 active torsions:
REMARK  status: ('A' for Active; 'I' for Inactive)
REMARK    1  A    between atoms: C_4  and  C_5 
REMARK    2  A    between atoms: C_10  and  C_11 
REMARK       I    between atoms: C_11  and  N_12 
REMARK    3  A    between atoms: N_12  and  C_13 
REMARK    4  A    between atoms: C_13  and  C_14 
REMARK    5  A    between atoms: C_14  and  C_15 
REMARK    6  A    between atoms: C_15  and  N_16 
REMARK    7  A    between atoms: C_26  and  C_27 
ROOT
HETATM    1  C   UNL     1      27.218  43.972  50.112  1.00  0.00     0.125 C 
HETATM    2  N   UNL     1      26.052  43.326  49.503  1.00  0.00    -0.365 N 
HETATM    3  C   UNL     1      24.865  43.958  49.346  1.00  0.00     0.141 A 
HETATM    4  N   UNL     1      24.728  45.292  49.617  1.00  0.00    -0.238 N 
HETATM    5  N   UNL     1      23.521  45.797  49.289  1.00  0.00    -0.163 NA
HETATM    6  C   UNL     1      22.815  44.710  48.894  1.00  0.00     0.165 A 
HETATM    7  C   UNL     1      23.627  43.549  48.922  1.00  0.00     0.092 A 
HETATM    8 BR   UNL     1      23.130  41.817  48.414  1.00  0.00    -0.044 Br
HETATM    9  C   UNL     1      25.787  46.125  50.155  1.00  0.00     0.221 C 
HETATM   10  C   UNL     1      27.156  45.493  49.855  1.00  0.00     0.067 C 
HETATM   11  H   UNL     1      26.081  42.306  49.538  1.00  0.00     0.162 HD
ENDROOT
BRANCH   6  12
HETATM   12  C   UNL     1      21.415  44.857  48.481  1.00  0.00     0.273 C 
HETATM   13  N   UNL     1      20.848  46.058  48.859  1.00  0.00    -0.355 N 
HETATM   14  H   UNL     1      21.442  46.638  49.458  1.00  0.00     0.162 HD
HETATM   15  O   UNL     1      20.777  44.038  47.816  1.00  0.00    -0.266 OA
BRANCH  13  16
HETATM   16  C   UNL     1      19.450  46.367  48.697  1.00  0.00     0.124 C 
BRANCH  16  17
HETATM   17  C   UNL     1      19.192  47.691  47.979  1.00  0.00     0.047 C 
BRANCH  17  18
HETATM   18  C   UNL     1      20.386  48.355  47.289  1.00  0.00     0.236 C 
BRANCH  18  19
HETATM   19  N   UNL     1      20.964  49.522  48.043  1.00  0.00    -0.067 N 
HETATM   20  H   UNL     1      20.709  50.380  47.508  1.00  0.00     0.280 HD
HETATM   21  C   UNL     1      20.482  49.669  49.475  1.00  0.00     0.261 C 
HETATM   22  C   UNL     1      21.137  50.893  50.123  1.00  0.00     0.195 C 
HETATM   23  O   UNL     1      22.565  50.801  50.074  1.00  0.00    -0.388 OA
HETATM   24  C   UNL     1      23.036  50.749  48.722  1.00  0.00     0.195 C 
HETATM   25  C   UNL     1      22.492  49.509  48.005  1.00  0.00     0.261 C 
ENDBRANCH  18  19
ENDBRANCH  17  18
ENDBRANCH  16  17
ENDBRANCH  13  16
ENDBRANCH   6  12
BRANCH   9  26
HETATM   26  C   UNL     1      25.530  46.388  51.622  1.00  0.00     0.409 C 
HETATM   27  F   UNL     1      24.847  45.407  52.238  1.00  0.00    -0.169 F 
HETATM   28  F   UNL     1      26.704  46.547  52.283  1.00  0.00    -0.169 F 
HETATM   29  F   UNL     1      24.833  47.536  51.801  1.00  0.00    -0.169 F 
ENDBRANCH   9  26
BRANCH   1  30
HETATM   30  C   UNL     1      27.519  43.612  51.553  1.00  0.00     0.005 A 
HETATM   31  S   UNL     1      26.442  42.633  52.471  1.00  0.00    -0.104 SA
HETATM   32  C   UNL     1      27.460  42.665  53.842  1.00  0.00     0.050 A 
HETATM   33  C   UNL     1      28.616  43.374  53.608  1.00  0.00     0.008 A 
HETATM   34  C   UNL     1      28.657  43.907  52.288  1.00  0.00     0.017 A 
ENDBRANCH   1  30
TORSDOF 7
ENDMDL
MODEL 10
REMARK VINA RESULT:      -7.2     10.751     13.766
REMARK  7 active torsions:
REMARK  status: ('A' for Active; 'I' for Inactive)
REMARK    1  A    between atoms: C_4  and  C_5 
REMARK    2  A    between atoms: C_10  and  C_11 
REMARK       I    between atoms: C_11  and  N_12 
REMARK    3  A    between atoms: N_12  and  C_13 
REMARK    4  A    between atoms: C_13  and  C_14 
REMARK    5  A    between atoms: C_14  and  C_15 
REMARK    6  A    between atoms: C_15  and  N_16 
REMARK    7  A    between atoms: C_26  and  C_27 
ROOT
HETATM    1  C   UNL     1      31.799  50.155  39.343  1.00  0.00     0.125 C 
HETATM    2  N   UNL     1      30.749  49.156  39.127  1.00  0.00    -0.365 N 
HETATM    3  C   UNL     1      29.488  49.489  38.763  1.00  0.00     0.141 A 
HETATM    4  N   UNL     1      29.158  50.774  38.432  1.00  0.00    -0.238 N 
HETATM    5  N   UNL     1      27.899  50.917  37.971  1.00  0.00    -0.163 NA
HETATM    6  C   UNL     1      27.362  49.681  38.119  1.00  0.00     0.165 A 
HETATM    7  C   UNL     1      28.329  48.772  38.613  1.00  0.00     0.092 A 
HETATM    8 BR   UNL     1      28.092  46.942  38.932  1.00  0.00    -0.044 Br
HETATM    9  C   UNL     1      30.078  51.894  38.508  1.00  0.00     0.221 C 
HETATM   10  C   UNL     1      31.529  51.387  38.453  1.00  0.00     0.067 C 
HETATM   11  H   UNL     1      30.921  48.268  39.601  1.00  0.00     0.162 HD
ENDROOT
BRANCH   6  12
HETATM   12  C   UNL     1      25.964  49.442  37.744  1.00  0.00     0.273 C 
HETATM   13  N   UNL     1      25.064  50.252  38.409  1.00  0.00    -0.355 N 
HETATM   14  H   UNL     1      25.479  50.836  39.139  1.00  0.00     0.162 HD
HETATM   15  O   UNL     1      25.581  48.641  36.888  1.00  0.00    -0.266 OA
BRANCH  13  16
HETATM   16  C   UNL     1      23.634  50.099  38.317  1.00  0.00     0.124 C 
BRANCH  16  17
HETATM   17  C   UNL     1      23.057  49.101  39.321  1.00  0.00     0.047 C 
BRANCH  17  18
HETATM   18  C   UNL     1      22.747  47.694  38.805  1.00  0.00     0.236 C 
BRANCH  18  19
HETATM   19  N   UNL     1      23.416  46.592  39.580  1.00  0.00    -0.067 N 
HETATM   20  H   UNL     1      22.655  46.026  40.014  1.00  0.00     0.280 HD
HETATM   21  C   UNL     1      24.308  45.676  38.762  1.00  0.00     0.261 C 
HETATM   22  C   UNL     1      24.919  44.599  39.665  1.00  0.00     0.195 C 
HETATM   23  O   UNL     1      25.648  45.185  40.748  1.00  0.00    -0.388 OA
HETATM   24  C   UNL     1      24.794  45.983  41.578  1.00  0.00     0.195 C 
HETATM   25  C   UNL     1      24.190  47.142  40.778  1.00  0.00     0.261 C 
ENDBRANCH  18  19
ENDBRANCH  17  18
ENDBRANCH  16  17
ENDBRANCH  13  16
ENDBRANCH   6  12
BRANCH   9  26
HETATM   26  C   UNL     1      29.757  52.734  39.724  1.00  0.00     0.409 C 
HETATM   27  F   UNL     1      29.215  52.036  40.738  1.00  0.00    -0.169 F 
HETATM   28  F   UNL     1      30.881  53.330  40.193  1.00  0.00    -0.169 F 
HETATM   29  F   UNL     1      28.894  53.733  39.418  1.00  0.00    -0.169 F 
ENDBRANCH   9  26
BRANCH   1  30
HETATM   30  C   UNL     1      32.119  50.505  40.782  1.00  0.00     0.005 A 
HETATM   31  S   UNL     1      31.250  49.794  42.087  1.00  0.00    -0.104 SA
HETATM   32  C   UNL     1      32.186  50.615  43.256  1.00  0.00     0.050 A 
HETATM   33  C   UNL     1      33.165  51.391  42.681  1.00  0.00     0.008 A 
HETATM   34  C   UNL     1      33.137  51.317  41.259  1.00  0.00     0.017 A 
ENDBRANCH   1  30
TORSDOF 7
ENDMDL
