MODEL 1
REMARK VINA RESULT:      -8.3      0.000      0.000
REMARK  10 active torsions:
REMARK  status: ('A' for Active; 'I' for Inactive)
REMARK    1  A    between atoms: C_2  and  C_3 
REMARK    2  A    between atoms: C_3  and  C_4 
REMARK    3  A    between atoms: N_7  and  C_9 
REMARK    4  A    between atoms: C_9  and  C_10 
REMARK    5  A    between atoms: C_11  and  O_12 
REMARK    6  A    between atoms: C_13  and  O_14 
REMARK    7  A    between atoms: O_14  and  C_15 
REMARK    8  A    between atoms: N_25  and  C_26 
REMARK    9  A    between atoms: C_26  and  C_27 
REMARK   10  A    between atoms: C_27  and  C_28 
ROOT
HETATM    1  C   UNL     1      19.587  51.064  47.837  1.00  0.00     0.026 C 
HETATM    2  C   UNL     1      19.320  52.478  48.386  1.00  0.00     0.035 C 
HETATM    3  C   UNL     1      18.065  52.596  49.243  1.00  0.00     0.235 C 
HETATM    4  N   UNL     1      16.850  52.015  48.561  1.00  0.00    -0.067 N 
HETATM    5  H   UNL     1      16.604  52.616  47.765  1.00  0.00     0.280 HD
HETATM    6  C   UNL     1      17.068  50.632  47.997  1.00  0.00     0.235 C 
HETATM    7  C   UNL     1      18.306  50.598  47.121  1.00  0.00     0.035 C 
ENDROOT
BRANCH   1   8
HETATM    8  C   UNL     1      20.191  50.055  48.869  1.00  0.00     0.119 C 
HETATM    9  N   UNL     1      19.933  48.664  48.540  1.00  0.00    -0.324 N 
HETATM   10  C   UNL     1      21.095  47.918  48.514  1.00  0.00     0.326 C 
HETATM   11  H   UNL     1      19.119  48.146  48.852  1.00  0.00     0.165 HD
HETATM   12  O   UNL     1      21.093  46.701  48.485  1.00  0.00    -0.247 OA
HETATM   13  N   UNL     1      22.158  48.758  48.536  1.00  0.00    -0.268 N 
HETATM   14  C   UNL     1      21.740  50.036  48.789  1.00  0.00     0.256 C 
HETATM   15  O   UNL     1      22.453  51.019  48.928  1.00  0.00    -0.270 OA
BRANCH   8  16
HETATM   16  C   UNL     1      19.761  50.277  50.339  1.00  0.00     0.037 C 
HETATM   17  C   UNL     1      18.803  49.245  50.915  1.00  0.00     0.008 C 
ENDBRANCH   8  16
BRANCH  13  18
HETATM   18  C   UNL     1      23.549  48.328  48.555  1.00  0.00     0.142 C 
BRANCH  18  19
HETATM   19  C   UNL     1      23.989  47.776  49.916  1.00  0.00     0.068 C 
BRANCH  19  20
HETATM   20  C   UNL     1      25.128  46.815  49.782  1.00  0.00     0.010 A 
HETATM   21  S   UNL     1      24.861  45.121  49.882  1.00  0.00    -0.085 SA
HETATM   22  C   UNL     1      26.536  44.858  49.652  1.00  0.00     0.166 A 
HETATM   23  N   UNL     1      27.272  45.935  49.505  1.00  0.00    -0.258 NA
HETATM   24  C   UNL     1      26.478  47.066  49.581  1.00  0.00     0.044 A 
HETATM   25  C   UNL     1      27.135  48.394  49.442  1.00  0.00     0.071 C 
ENDBRANCH  19  20
ENDBRANCH  18  19
ENDBRANCH  13  18
ENDBRANCH   1   8
BRANCH   4  26
HETATM   26  C   UNL     1      15.658  52.079  49.524  1.00  0.00     0.276 C 
BRANCH  26  27
HETATM   27  C   UNL     1      14.639  53.148  49.252  1.00  0.00     0.004 A 
HETATM   28  C   UNL     1      13.709  53.503  50.238  1.00  0.00     0.107 A 
HETATM   29  C   UNL     1      12.739  54.475  50.002  1.00  0.00     0.102 A 
HETATM   30  C   UNL     1      12.658  55.091  48.760  1.00  0.00     0.039 A 
HETATM   31  C   UNL     1      13.577  54.753  47.764  1.00  0.00     0.003 A 
HETATM   32  C   UNL     1      14.563  53.787  48.006  1.00  0.00     0.012 A 
BRANCH  28  33
HETATM   33  O   UNL     1      13.735  52.846  51.438  1.00  0.00    -0.357 OA
HETATM   34  H   UNL     1      12.801  52.695  51.697  1.00  0.00     0.218 HD
ENDBRANCH  28  33
BRANCH  29  35
HETATM   35  O   UNL     1      11.801  54.747  50.959  1.00  0.00    -0.349 OA
BRANCH  35  36
HETATM   36  C   UNL     1      11.785  56.143  51.293  1.00  0.00     0.171 C 
HETATM   37  C   UNL     1      12.877  56.401  52.312  1.00  0.00     0.034 C 
ENDBRANCH  35  36
ENDBRANCH  29  35
ENDBRANCH  26  27
ENDBRANCH   4  26
TORSDOF 10
ENDMDL
MODEL 2
REMARK VINA RESULT:      -8.2     13.582     17.492
REMARK  10 active torsions:
REMARK  status: ('A' for Active; 'I' for Inactive)
REMARK    1  A    between atoms: C_2  and  C_3 
REMARK    2  A    between atoms: C_3  and  C_4 
REMARK    3  A    between atoms: N_7  and  C_9 
REMARK    4  A    between atoms: C_9  and  C_10 
REMARK    5  A    between atoms: C_11  and  O_12 
REMARK    6  A    between atoms: C_13  and  O_14 
REMARK    7  A    between atoms: O_14  and  C_15 
REMARK    8  A    between atoms: N_25  and  C_26 
REMARK    9  A    between atoms: C_26  and  C_27 
REMARK   10  A    between atoms: C_27  and  C_28 
ROOT
HETATM    1  C   UNL     1      30.702  50.191  42.365  1.00  0.00     0.026 C 
HETATM    2  C   UNL     1      31.881  50.679  43.226  1.00  0.00     0.035 C 
HETATM    3  C   UNL     1      33.236  50.628  42.531  1.00  0.00     0.235 C 
HETATM    4  N   UNL     1      33.509  49.280  41.909  1.00  0.00    -0.067 N 
HETATM    5  H   UNL     1      33.647  48.596  42.663  1.00  0.00     0.280 HD
HETATM    6  C   UNL     1      32.376  48.756  41.062  1.00  0.00     0.235 C 
HETATM    7  C   UNL     1      31.068  48.794  41.830  1.00  0.00     0.035 C 
ENDROOT
BRANCH   1   8
HETATM    8  C   UNL     1      30.196  51.214  41.293  1.00  0.00     0.119 C 
HETATM    9  N   UNL     1      30.813  51.041  39.989  1.00  0.00    -0.324 N 
HETATM   10  C   UNL     1      29.871  50.920  38.987  1.00  0.00     0.326 C 
HETATM   11  H   UNL     1      31.667  51.503  39.698  1.00  0.00     0.165 HD
HETATM   12  O   UNL     1      30.157  50.994  37.805  1.00  0.00    -0.247 OA
HETATM   13  N   UNL     1      28.653  50.726  39.548  1.00  0.00    -0.268 N 
HETATM   14  C   UNL     1      28.723  50.925  40.900  1.00  0.00     0.256 C 
HETATM   15  O   UNL     1      27.791  50.882  41.689  1.00  0.00    -0.270 OA
BRANCH   8  16
HETATM   16  C   UNL     1      30.335  52.704  41.685  1.00  0.00     0.037 C 
HETATM   17  C   UNL     1      31.254  53.540  40.806  1.00  0.00     0.008 C 
ENDBRANCH   8  16
BRANCH  13  18
HETATM   18  C   UNL     1      27.411  50.592  38.799  1.00  0.00     0.142 C 
BRANCH  18  19
HETATM   19  C   UNL     1      27.233  49.203  38.174  1.00  0.00     0.068 C 
BRANCH  19  20
HETATM   20  C   UNL     1      27.426  48.114  39.181  1.00  0.00     0.010 A 
HETATM   21  S   UNL     1      26.219  47.789  40.360  1.00  0.00    -0.085 SA
HETATM   22  C   UNL     1      27.200  46.541  40.999  1.00  0.00     0.166 A 
HETATM   23  N   UNL     1      28.353  46.351  40.399  1.00  0.00    -0.258 NA
HETATM   24  C   UNL     1      28.497  47.250  39.356  1.00  0.00     0.044 A 
HETATM   25  C   UNL     1      29.749  47.196  38.554  1.00  0.00     0.071 C 
ENDBRANCH  19  20
ENDBRANCH  18  19
ENDBRANCH  13  18
ENDBRANCH   1   8
BRANCH   4  26
HETATM   26  C   UNL     1      34.838  49.342  41.145  1.00  0.00     0.276 C 
BRANCH  26  27
HETATM   27  C   UNL     1      35.458  50.702  40.995  1.00  0.00     0.004 A 
HETATM   28  C   UNL     1      34.964  51.600  40.041  1.00  0.00     0.107 A 
HETATM   29  C   UNL     1      35.537  52.858  39.866  1.00  0.00     0.102 A 
HETATM   30  C   UNL     1      36.640  53.232  40.623  1.00  0.00     0.039 A 
HETATM   31  C   UNL     1      37.145  52.352  41.582  1.00  0.00     0.003 A 
HETATM   32  C   UNL     1      36.560  51.093  41.769  1.00  0.00     0.012 A 
BRANCH  28  33
HETATM   33  O   UNL     1      33.927  51.208  39.238  1.00  0.00    -0.357 OA
HETATM   34  H   UNL     1      33.948  50.228  39.208  1.00  0.00     0.218 HD
ENDBRANCH  28  33
BRANCH  29  35
HETATM   35  O   UNL     1      35.079  53.683  38.877  1.00  0.00    -0.349 OA
BRANCH  35  36
HETATM   36  C   UNL     1      35.841  54.899  38.816  1.00  0.00     0.171 C 
HETATM   37  C   UNL     1      34.930  56.050  39.195  1.00  0.00     0.034 C 
ENDBRANCH  35  36
ENDBRANCH  29  35
ENDBRANCH  26  27
ENDBRANCH   4  26
TORSDOF 10
ENDMDL
MODEL 3
REMARK VINA RESULT:      -8.1      3.542     11.024
REMARK  10 active torsions:
REMARK  status: ('A' for Active; 'I' for Inactive)
REMARK    1  A    between atoms: C_2  and  C_3 
REMARK    2  A    between atoms: C_3  and  C_4 
REMARK    3  A    between atoms: N_7  and  C_9 
REMARK    4  A    between atoms: C_9  and  C_10 
REMARK    5  A    between atoms: C_11  and  O_12 
REMARK    6  A    between atoms: C_13  and  O_14 
REMARK    7  A    between atoms: O_14  and  C_15 
REMARK    8  A    between atoms: N_25  and  C_26 
REMARK    9  A    between atoms: C_26  and  C_27 
REMARK   10  A    between atoms: C_27  and  C_28 
ROOT
HETATM    1  C   UNL     1      19.129  50.297  50.089  1.00  0.00     0.026 C 
HETATM    2  C   UNL     1      20.470  50.997  50.377  1.00  0.00     0.035 C 
HETATM    3  C   UNL     1      21.598  50.616  49.427  1.00  0.00     0.235 C 
HETATM    4  N   UNL     1      21.757  49.120  49.297  1.00  0.00    -0.067 N 
HETATM    5  H   UNL     1      22.114  48.752  50.186  1.00  0.00     0.280 HD
HETATM    6  C   UNL     1      20.465  48.390  49.023  1.00  0.00     0.235 C 
HETATM    7  C   UNL     1      19.401  48.783  50.031  1.00  0.00     0.035 C 
ENDROOT
BRANCH   1   8
HETATM    8  C   UNL     1      18.320  50.885  48.885  1.00  0.00     0.119 C 
HETATM    9  N   UNL     1      17.313  49.977  48.364  1.00  0.00    -0.324 N 
HETATM   10  C   UNL     1      16.067  50.570  48.305  1.00  0.00     0.326 C 
HETATM   11  H   UNL     1      17.482  49.301  47.627  1.00  0.00     0.165 HD
HETATM   12  O   UNL     1      15.134  50.077  47.697  1.00  0.00    -0.247 OA
HETATM   13  N   UNL     1      16.099  51.731  49.003  1.00  0.00    -0.268 N 
HETATM   14  C   UNL     1      17.387  52.035  49.350  1.00  0.00     0.256 C 
HETATM   15  O   UNL     1      17.764  53.039  49.934  1.00  0.00    -0.270 OA
BRANCH   8  16
HETATM   16  C   UNL     1      19.174  51.374  47.692  1.00  0.00     0.037 C 
HETATM   17  C   UNL     1      19.078  50.545  46.420  1.00  0.00     0.008 C 
ENDBRANCH   8  16
BRANCH  13  18
HETATM   18  C   UNL     1      14.974  52.647  49.132  1.00  0.00     0.142 C 
BRANCH  18  19
HETATM   19  C   UNL     1      14.463  52.773  50.572  1.00  0.00     0.068 C 
BRANCH  19  20
HETATM   20  C   UNL     1      13.621  53.997  50.756  1.00  0.00     0.010 A 
HETATM   21  S   UNL     1      12.173  54.206  49.855  1.00  0.00    -0.085 SA
HETATM   22  C   UNL     1      11.925  55.711  50.632  1.00  0.00     0.166 A 
HETATM   23  N   UNL     1      12.837  56.062  51.508  1.00  0.00    -0.258 NA
HETATM   24  C   UNL     1      13.819  55.090  51.587  1.00  0.00     0.044 A 
HETATM   25  C   UNL     1      14.949  55.310  52.528  1.00  0.00     0.071 C 
ENDBRANCH  19  20
ENDBRANCH  18  19
ENDBRANCH  13  18
ENDBRANCH   1   8
BRANCH   4  26
HETATM   26  C   UNL     1      22.837  48.821  48.250  1.00  0.00     0.276 C 
BRANCH  26  27
HETATM   27  C   UNL     1      24.239  48.665  48.766  1.00  0.00     0.004 A 
HETATM   28  C   UNL     1      24.550  47.636  49.664  1.00  0.00     0.107 A 
HETATM   29  C   UNL     1      25.838  47.486  50.176  1.00  0.00     0.102 A 
HETATM   30  C   UNL     1      26.837  48.383  49.822  1.00  0.00     0.039 A 
HETATM   31  C   UNL     1      26.548  49.414  48.925  1.00  0.00     0.003 A 
HETATM   32  C   UNL     1      25.258  49.557  48.398  1.00  0.00     0.012 A 
BRANCH  28  33
HETATM   33  O   UNL     1      23.552  46.795  50.077  1.00  0.00    -0.357 OA
HETATM   34  H   UNL     1      23.950  46.188  50.737  1.00  0.00     0.218 HD
ENDBRANCH  28  33
BRANCH  29  35
HETATM   35  O   UNL     1      26.091  46.517  51.106  1.00  0.00    -0.349 OA
BRANCH  35  36
HETATM   36  C   UNL     1      26.122  47.063  52.434  1.00  0.00     0.171 C 
HETATM   37  C   UNL     1      25.806  45.949  53.413  1.00  0.00     0.034 C 
ENDBRANCH  35  36
ENDBRANCH  29  35
ENDBRANCH  26  27
ENDBRANCH   4  26
TORSDOF 10
ENDMDL
MODEL 4
REMARK VINA RESULT:      -7.8     11.149     14.392
REMARK  10 active torsions:
REMARK  status: ('A' for Active; 'I' for Inactive)
REMARK    1  A    between atoms: C_2  and  C_3 
REMARK    2  A    between atoms: C_3  and  C_4 
REMARK    3  A    between atoms: N_7  and  C_9 
REMARK    4  A    between atoms: C_9  and  C_10 
REMARK    5  A    between atoms: C_11  and  O_12 
REMARK    6  A    between atoms: C_13  and  O_14 
REMARK    7  A    between atoms: O_14  and  C_15 
REMARK    8  A    between atoms: N_25  and  C_26 
REMARK    9  A    between atoms: C_26  and  C_27 
REMARK   10  A    between atoms: C_27  and  C_28 
ROOT
HETATM    1  C   UNL     1      29.100  52.167  40.432  1.00  0.00     0.026 C 
HETATM    2  C   UNL     1      28.066  51.474  41.339  1.00  0.00     0.035 C 
HETATM    3  C   UNL     1      27.364  50.282  40.699  1.00  0.00     0.235 C 
HETATM    4  N   UNL     1      26.792  50.615  39.342  1.00  0.00    -0.067 N 
HETATM    5  H   UNL     1      26.006  51.264  39.470  1.00  0.00     0.280 HD
HETATM    6  C   UNL     1      27.768  51.306  38.421  1.00  0.00     0.235 C 
HETATM    7  C   UNL     1      28.396  52.506  39.105  1.00  0.00     0.035 C 
ENDROOT
BRANCH   1   8
HETATM    8  C   UNL     1      30.470  51.423  40.300  1.00  0.00     0.119 C 
HETATM    9  N   UNL     1      30.784  51.021  38.940  1.00  0.00    -0.324 N 
HETATM   10  C   UNL     1      32.029  51.468  38.545  1.00  0.00     0.326 C 
HETATM   11  H   UNL     1      30.518  50.131  38.534  1.00  0.00     0.165 HD
HETATM   12  O   UNL     1      32.585  51.061  37.541  1.00  0.00    -0.247 OA
HETATM   13  N   UNL     1      32.476  52.378  39.444  1.00  0.00    -0.268 N 
HETATM   14  C   UNL     1      31.656  52.395  40.540  1.00  0.00     0.256 C 
HETATM   15  O   UNL     1      31.811  53.062  41.552  1.00  0.00    -0.270 OA
BRANCH   8  16
HETATM   16  C   UNL     1      30.638  50.182  41.207  1.00  0.00     0.037 C 
HETATM   17  C   UNL     1      30.756  48.845  40.491  1.00  0.00     0.008 C 
ENDBRANCH   8  16
BRANCH  13  18
HETATM   18  C   UNL     1      33.771  53.039  39.376  1.00  0.00     0.142 C 
BRANCH  18  19
HETATM   19  C   UNL     1      34.950  52.067  39.513  1.00  0.00     0.068 C 
BRANCH  19  20
HETATM   20  C   UNL     1      35.595  52.166  40.860  1.00  0.00     0.010 A 
HETATM   21  S   UNL     1      36.928  53.218  41.116  1.00  0.00    -0.085 SA
HETATM   22  C   UNL     1      36.993  52.715  42.751  1.00  0.00     0.166 A 
HETATM   23  N   UNL     1      36.096  51.828  43.114  1.00  0.00    -0.258 NA
HETATM   24  C   UNL     1      35.289  51.501  42.038  1.00  0.00     0.044 A 
HETATM   25  C   UNL     1      34.208  50.501  42.252  1.00  0.00     0.071 C 
ENDBRANCH  19  20
ENDBRANCH  18  19
ENDBRANCH  13  18
ENDBRANCH   1   8
BRANCH   4  26
HETATM   26  C   UNL     1      26.196  49.344  38.725  1.00  0.00     0.276 C 
BRANCH  26  27
HETATM   27  C   UNL     1      24.796  48.995  39.141  1.00  0.00     0.004 A 
HETATM   28  C   UNL     1      23.715  49.767  38.696  1.00  0.00     0.107 A 
HETATM   29  C   UNL     1      22.409  49.478  39.087  1.00  0.00     0.102 A 
HETATM   30  C   UNL     1      22.160  48.427  39.960  1.00  0.00     0.039 A 
HETATM   31  C   UNL     1      23.224  47.643  40.412  1.00  0.00     0.003 A 
HETATM   32  C   UNL     1      24.535  47.923  40.007  1.00  0.00     0.012 A 
BRANCH  28  33
HETATM   33  O   UNL     1      23.961  50.851  37.898  1.00  0.00    -0.357 OA
HETATM   34  H   UNL     1      23.789  51.648  38.444  1.00  0.00     0.218 HD
ENDBRANCH  28  33
BRANCH  29  35
HETATM   35  O   UNL     1      21.385  50.294  38.695  1.00  0.00    -0.349 OA
BRANCH  35  36
HETATM   36  C   UNL     1      20.566  50.678  39.810  1.00  0.00     0.171 C 
HETATM   37  C   UNL     1      21.275  51.787  40.562  1.00  0.00     0.034 C 
ENDBRANCH  35  36
ENDBRANCH  29  35
ENDBRANCH  26  27
ENDBRANCH   4  26
TORSDOF 10
ENDMDL
MODEL 5
REMARK VINA RESULT:      -7.8     13.556     17.586
REMARK  10 active torsions:
REMARK  status: ('A' for Active; 'I' for Inactive)
REMARK    1  A    between atoms: C_2  and  C_3 
REMARK    2  A    between atoms: C_3  and  C_4 
REMARK    3  A    between atoms: N_7  and  C_9 
REMARK    4  A    between atoms: C_9  and  C_10 
REMARK    5  A    between atoms: C_11  and  O_12 
REMARK    6  A    between atoms: C_13  and  O_14 
REMARK    7  A    between atoms: O_14  and  C_15 
REMARK    8  A    between atoms: N_25  and  C_26 
REMARK    9  A    between atoms: C_26  and  C_27 
REMARK   10  A    between atoms: C_27  and  C_28 
ROOT
HETATM    1  C   UNL     1      30.634  50.219  42.373  1.00  0.00     0.026 C 
HETATM    2  C   UNL     1      31.821  50.700  43.228  1.00  0.00     0.035 C 
HETATM    3  C   UNL     1      33.176  50.603  42.538  1.00  0.00     0.235 C 
HETATM    4  N   UNL     1      33.422  49.236  41.947  1.00  0.00    -0.067 N 
HETATM    5  H   UNL     1      33.542  48.566  42.716  1.00  0.00     0.280 HD
HETATM    6  C   UNL     1      32.279  48.719  41.108  1.00  0.00     0.235 C 
HETATM    7  C   UNL     1      30.970  48.803  41.871  1.00  0.00     0.035 C 
ENDROOT
BRANCH   1   8
HETATM    8  C   UNL     1      30.153  51.229  41.278  1.00  0.00     0.119 C 
HETATM    9  N   UNL     1      30.774  51.017  39.982  1.00  0.00    -0.324 N 
HETATM   10  C   UNL     1      29.836  50.894  38.977  1.00  0.00     0.326 C 
HETATM   11  H   UNL     1      31.638  51.457  39.686  1.00  0.00     0.165 HD
HETATM   12  O   UNL     1      30.129  50.938  37.795  1.00  0.00    -0.247 OA
HETATM   13  N   UNL     1      28.611  50.735  39.534  1.00  0.00    -0.268 N 
HETATM   14  C   UNL     1      28.677  50.960  40.883  1.00  0.00     0.256 C 
HETATM   15  O   UNL     1      27.740  50.952  41.667  1.00  0.00    -0.270 OA
BRANCH   8  16
HETATM   16  C   UNL     1      30.319  52.724  41.640  1.00  0.00     0.037 C 
HETATM   17  C   UNL     1      31.268  53.521  40.757  1.00  0.00     0.008 C 
ENDBRANCH   8  16
BRANCH  13  18
HETATM   18  C   UNL     1      27.371  50.609  38.781  1.00  0.00     0.142 C 
BRANCH  18  19
HETATM   19  C   UNL     1      27.174  49.214  38.176  1.00  0.00     0.068 C 
BRANCH  19  20
HETATM   20  C   UNL     1      27.393  48.135  39.190  1.00  0.00     0.010 A 
HETATM   21  S   UNL     1      26.225  47.834  40.413  1.00  0.00    -0.085 SA
HETATM   22  C   UNL     1      27.218  46.586  41.034  1.00  0.00     0.166 A 
HETATM   23  N   UNL     1      28.347  46.380  40.397  1.00  0.00    -0.258 NA
HETATM   24  C   UNL     1      28.463  47.264  39.339  1.00  0.00     0.044 A 
HETATM   25  C   UNL     1      29.686  47.190  38.494  1.00  0.00     0.071 C 
ENDBRANCH  19  20
ENDBRANCH  18  19
ENDBRANCH  13  18
ENDBRANCH   1   8
BRANCH   4  26
HETATM   26  C   UNL     1      34.753  49.252  41.186  1.00  0.00     0.276 C 
BRANCH  26  27
HETATM   27  C   UNL     1      35.351  50.603  40.917  1.00  0.00     0.004 A 
HETATM   28  C   UNL     1      36.373  51.098  41.738  1.00  0.00     0.107 A 
HETATM   29  C   UNL     1      36.927  52.359  41.524  1.00  0.00     0.102 A 
HETATM   30  C   UNL     1      36.447  53.165  40.500  1.00  0.00     0.039 A 
HETATM   31  C   UNL     1      35.431  52.689  39.669  1.00  0.00     0.003 A 
HETATM   32  C   UNL     1      34.884  51.416  39.873  1.00  0.00     0.012 A 
BRANCH  28  33
HETATM   33  O   UNL     1      36.796  50.340  42.795  1.00  0.00    -0.357 OA
HETATM   34  H   UNL     1      36.152  50.483  43.521  1.00  0.00     0.218 HD
ENDBRANCH  28  33
BRANCH  29  35
HETATM   35  O   UNL     1      37.871  52.842  42.386  1.00  0.00    -0.349 OA
BRANCH  35  36
HETATM   36  C   UNL     1      37.308  53.806  43.290  1.00  0.00     0.171 C 
HETATM   37  C   UNL     1      38.166  55.055  43.248  1.00  0.00     0.034 C 
ENDBRANCH  35  36
ENDBRANCH  29  35
ENDBRANCH  26  27
ENDBRANCH   4  26
TORSDOF 10
ENDMDL
MODEL 6
REMARK VINA RESULT:      -7.8      4.936      8.823
REMARK  10 active torsions:
REMARK  status: ('A' for Active; 'I' for Inactive)
REMARK    1  A    between atoms: C_2  and  C_3 
REMARK    2  A    between atoms: C_3  and  C_4 
REMARK    3  A    between atoms: N_7  and  C_9 
REMARK    4  A    between atoms: C_9  and  C_10 
REMARK    5  A    between atoms: C_11  and  O_12 
REMARK    6  A    between atoms: C_13  and  O_14 
REMARK    7  A    between atoms: O_14  and  C_15 
REMARK    8  A    between atoms: N_25  and  C_26 
REMARK    9  A    between atoms: C_26  and  C_27 
REMARK   10  A    between atoms: C_27  and  C_28 
ROOT
HETATM    1  C   UNL     1      23.914  42.041  49.181  1.00  0.00     0.026 C 
HETATM    2  C   UNL     1      23.109  42.234  47.882  1.00  0.00     0.035 C 
HETATM    3  C   UNL     1      22.886  43.689  47.487  1.00  0.00     0.235 C 
HETATM    4  N   UNL     1      22.330  44.512  48.624  1.00  0.00    -0.067 N 
HETATM    5  H   UNL     1      21.367  44.206  48.807  1.00  0.00     0.280 HD
HETATM    6  C   UNL     1      23.081  44.348  49.922  1.00  0.00     0.235 C 
HETATM    7  C   UNL     1      23.229  42.879  50.276  1.00  0.00     0.035 C 
ENDROOT
BRANCH   1   8
HETATM    8  C   UNL     1      25.459  42.246  49.040  1.00  0.00     0.119 C 
HETATM    9  N   UNL     1      25.847  43.633  48.854  1.00  0.00    -0.324 N 
HETATM   10  C   UNL     1      26.801  44.028  49.770  1.00  0.00     0.326 C 
HETATM   11  H   UNL     1      25.933  44.084  47.950  1.00  0.00     0.165 HD
HETATM   12  O   UNL     1      27.428  45.066  49.658  1.00  0.00    -0.247 OA
HETATM   13  N   UNL     1      26.895  43.088  50.741  1.00  0.00    -0.268 N 
HETATM   14  C   UNL     1      26.181  41.975  50.387  1.00  0.00     0.256 C 
HETATM   15  O   UNL     1      26.106  40.930  51.015  1.00  0.00    -0.270 OA
BRANCH   8  16
HETATM   16  C   UNL     1      26.136  41.415  47.925  1.00  0.00     0.037 C 
HETATM   17  C   UNL     1      25.760  39.942  47.869  1.00  0.00     0.008 C 
ENDBRANCH   8  16
BRANCH  13  18
HETATM   18  C   UNL     1      27.826  43.146  51.859  1.00  0.00     0.142 C 
BRANCH  18  19
HETATM   19  C   UNL     1      27.129  43.328  53.213  1.00  0.00     0.068 C 
BRANCH  19  20
HETATM   20  C   UNL     1      27.810  44.364  54.051  1.00  0.00     0.010 A 
HETATM   21  S   UNL     1      27.105  45.915  54.271  1.00  0.00    -0.085 SA
HETATM   22  C   UNL     1      28.436  46.366  55.247  1.00  0.00     0.166 A 
HETATM   23  N   UNL     1      29.359  45.448  55.420  1.00  0.00    -0.258 NA
HETATM   24  C   UNL     1      29.015  44.295  54.736  1.00  0.00     0.044 A 
HETATM   25  C   UNL     1      29.944  43.136  54.806  1.00  0.00     0.071 C 
ENDBRANCH  19  20
ENDBRANCH  18  19
ENDBRANCH  13  18
ENDBRANCH   1   8
BRANCH   4  26
HETATM   26  C   UNL     1      22.232  45.976  48.180  1.00  0.00     0.276 C 
BRANCH  26  27
HETATM   27  C   UNL     1      20.921  46.664  48.438  1.00  0.00     0.004 A 
HETATM   28  C   UNL     1      20.892  47.900  49.098  1.00  0.00     0.107 A 
HETATM   29  C   UNL     1      19.687  48.546  49.371  1.00  0.00     0.102 A 
HETATM   30  C   UNL     1      18.483  47.953  49.016  1.00  0.00     0.039 A 
HETATM   31  C   UNL     1      18.492  46.723  48.354  1.00  0.00     0.003 A 
HETATM   32  C   UNL     1      19.702  46.079  48.066  1.00  0.00     0.012 A 
BRANCH  28  33
HETATM   33  O   UNL     1      22.070  48.453  49.519  1.00  0.00    -0.357 OA
HETATM   34  H   UNL     1      22.628  47.715  49.845  1.00  0.00     0.218 HD
ENDBRANCH  28  33
BRANCH  29  35
HETATM   35  O   UNL     1      19.688  49.714  50.080  1.00  0.00    -0.349 OA
BRANCH  35  36
HETATM   36  C   UNL     1      19.057  50.773  49.343  1.00  0.00     0.171 C 
HETATM   37  C   UNL     1      20.141  51.622  48.710  1.00  0.00     0.034 C 
ENDBRANCH  35  36
ENDBRANCH  29  35
ENDBRANCH  26  27
ENDBRANCH   4  26
TORSDOF 10
ENDMDL
MODEL 7
REMARK VINA RESULT:      -7.5     12.374     17.523
REMARK  10 active torsions:
REMARK  status: ('A' for Active; 'I' for Inactive)
REMARK    1  A    between atoms: C_2  and  C_3 
REMARK    2  A    between atoms: C_3  and  C_4 
REMARK    3  A    between atoms: N_7  and  C_9 
REMARK    4  A    between atoms: C_9  and  C_10 
REMARK    5  A    between atoms: C_11  and  O_12 
REMARK    6  A    between atoms: C_13  and  O_14 
REMARK    7  A    between atoms: O_14  and  C_15 
REMARK    8  A    between atoms: N_25  and  C_26 
REMARK    9  A    between atoms: C_26  and  C_27 
REMARK   10  A    between atoms: C_27  and  C_28 
ROOT
HETATM    1  C   UNL     1      30.600  52.261  40.564  1.00  0.00     0.026 C 
HETATM    2  C   UNL     1      31.972  52.818  40.143  1.00  0.00     0.035 C 
HETATM    3  C   UNL     1      33.155  51.932  40.516  1.00  0.00     0.235 C 
HETATM    4  N   UNL     1      33.132  51.527  41.969  1.00  0.00    -0.067 N 
HETATM    5  H   UNL     1      33.318  52.358  42.542  1.00  0.00     0.280 HD
HETATM    6  C   UNL     1      31.802  50.983  42.430  1.00  0.00     0.235 C 
HETATM    7  C   UNL     1      30.677  51.933  42.067  1.00  0.00     0.035 C 
ENDROOT
BRANCH   1   8
HETATM    8  C   UNL     1      30.040  51.119  39.651  1.00  0.00     0.119 C 
HETATM    9  N   UNL     1      30.980  50.033  39.436  1.00  0.00    -0.324 N 
HETATM   10  C   UNL     1      30.428  48.807  39.746  1.00  0.00     0.326 C 
HETATM   11  H   UNL     1      31.651  50.003  38.677  1.00  0.00     0.165 HD
HETATM   12  O   UNL     1      30.951  47.753  39.430  1.00  0.00    -0.247 OA
HETATM   13  N   UNL     1      29.266  49.003  40.415  1.00  0.00    -0.268 N 
HETATM   14  C   UNL     1      28.921  50.326  40.376  1.00  0.00     0.256 C 
HETATM   15  O   UNL     1      27.904  50.825  40.835  1.00  0.00    -0.270 OA
BRANCH   8  16
HETATM   16  C   UNL     1      29.524  51.575  38.266  1.00  0.00     0.037 C 
HETATM   17  C   UNL     1      28.740  52.879  38.243  1.00  0.00     0.008 C 
ENDBRANCH   8  16
BRANCH  13  18
HETATM   18  C   UNL     1      28.387  47.935  40.872  1.00  0.00     0.142 C 
BRANCH  18  19
HETATM   19  C   UNL     1      27.579  47.295  39.737  1.00  0.00     0.068 C 
BRANCH  19  20
HETATM   20  C   UNL     1      26.190  47.849  39.665  1.00  0.00     0.010 A 
HETATM   21  S   UNL     1      24.955  47.247  40.696  1.00  0.00    -0.085 SA
HETATM   22  C   UNL     1      23.847  48.337  39.978  1.00  0.00     0.166 A 
HETATM   23  N   UNL     1      24.331  49.111  39.035  1.00  0.00    -0.258 NA
HETATM   24  C   UNL     1      25.675  48.839  38.842  1.00  0.00     0.044 A 
HETATM   25  C   UNL     1      26.404  49.615  37.803  1.00  0.00     0.071 C 
ENDBRANCH  19  20
ENDBRANCH  18  19
ENDBRANCH  13  18
ENDBRANCH   1   8
BRANCH   4  26
HETATM   26  C   UNL     1      34.291  50.559  42.238  1.00  0.00     0.276 C 
BRANCH  26  27
HETATM   27  C   UNL     1      35.642  51.180  42.447  1.00  0.00     0.004 A 
HETATM   28  C   UNL     1      35.823  52.161  43.431  1.00  0.00     0.107 A 
HETATM   29  C   UNL     1      37.061  52.769  43.628  1.00  0.00     0.102 A 
HETATM   30  C   UNL     1      38.140  52.430  42.821  1.00  0.00     0.039 A 
HETATM   31  C   UNL     1      37.980  51.453  41.837  1.00  0.00     0.003 A 
HETATM   32  C   UNL     1      36.741  50.829  41.648  1.00  0.00     0.012 A 
BRANCH  28  33
HETATM   33  O   UNL     1      34.746  52.554  44.177  1.00  0.00    -0.357 OA
HETATM   34  H   UNL     1      34.100  52.949  43.554  1.00  0.00     0.218 HD
ENDBRANCH  28  33
BRANCH  29  35
HETATM   35  O   UNL     1      37.187  53.774  44.546  1.00  0.00    -0.349 OA
BRANCH  35  36
HETATM   36  C   UNL     1      37.977  53.358  45.671  1.00  0.00     0.171 C 
HETATM   37  C   UNL     1      38.110  54.533  46.619  1.00  0.00     0.034 C 
ENDBRANCH  35  36
ENDBRANCH  29  35
ENDBRANCH  26  27
ENDBRANCH   4  26
TORSDOF 10
ENDMDL
MODEL 8
REMARK VINA RESULT:      -7.5     11.826     14.127
REMARK  10 active torsions:
REMARK  status: ('A' for Active; 'I' for Inactive)
REMARK    1  A    between atoms: C_2  and  C_3 
REMARK    2  A    between atoms: C_3  and  C_4 
REMARK    3  A    between atoms: N_7  and  C_9 
REMARK    4  A    between atoms: C_9  and  C_10 
REMARK    5  A    between atoms: C_11  and  O_12 
REMARK    6  A    between atoms: C_13  and  O_14 
REMARK    7  A    between atoms: O_14  and  C_15 
REMARK    8  A    between atoms: N_25  and  C_26 
REMARK    9  A    between atoms: C_26  and  C_27 
REMARK   10  A    between atoms: C_27  and  C_28 
ROOT
HETATM    1  C   UNL     1      25.528  40.713  49.688  1.00  0.00     0.026 C 
HETATM    2  C   UNL     1      25.183  42.025  50.417  1.00  0.00     0.035 C 
HETATM    3  C   UNL     1      26.381  42.919  50.710  1.00  0.00     0.235 C 
HETATM    4  N   UNL     1      27.500  42.171  51.392  1.00  0.00    -0.067 N 
HETATM    5  H   UNL     1      27.197  41.928  52.343  1.00  0.00     0.280 HD
HETATM    6  C   UNL     1      27.867  40.872  50.719  1.00  0.00     0.235 C 
HETATM    7  C   UNL     1      26.635  40.014  50.498  1.00  0.00     0.035 C 
ENDROOT
BRANCH   1   8
HETATM    8  C   UNL     1      25.801  40.858  48.154  1.00  0.00     0.119 C 
HETATM    9  N   UNL     1      27.003  41.613  47.847  1.00  0.00    -0.324 N 
HETATM   10  C   UNL     1      27.844  40.919  47.002  1.00  0.00     0.326 C 
HETATM   11  H   UNL     1      27.027  42.618  47.717  1.00  0.00     0.165 HD
HETATM   12  O   UNL     1      28.789  41.443  46.439  1.00  0.00    -0.247 OA
HETATM   13  N   UNL     1      27.428  39.631  46.925  1.00  0.00    -0.268 N 
HETATM   14  C   UNL     1      26.208  39.497  47.530  1.00  0.00     0.256 C 
HETATM   15  O   UNL     1      25.533  38.480  47.586  1.00  0.00    -0.270 OA
BRANCH   8  16
HETATM   16  C   UNL     1      24.641  41.468  47.332  1.00  0.00     0.037 C 
HETATM   17  C   UNL     1      23.255  40.912  47.622  1.00  0.00     0.008 C 
ENDBRANCH   8  16
BRANCH  13  18
HETATM   18  C   UNL     1      28.052  38.610  46.096  1.00  0.00     0.142 C 
BRANCH  18  19
HETATM   19  C   UNL     1      27.556  38.627  44.645  1.00  0.00     0.068 C 
BRANCH  19  20
HETATM   20  C   UNL     1      28.565  39.236  43.722  1.00  0.00     0.010 A 
HETATM   21  S   UNL     1      29.964  38.357  43.254  1.00  0.00    -0.085 SA
HETATM   22  C   UNL     1      30.473  39.694  42.315  1.00  0.00     0.166 A 
HETATM   23  N   UNL     1      29.677  40.739  42.326  1.00  0.00    -0.258 NA
HETATM   24  C   UNL     1      28.580  40.491  43.133  1.00  0.00     0.044 A 
HETATM   25  C   UNL     1      27.561  41.566  43.278  1.00  0.00     0.071 C 
ENDBRANCH  19  20
ENDBRANCH  18  19
ENDBRANCH  13  18
ENDBRANCH   1   8
BRANCH   4  26
HETATM   26  C   UNL     1      28.702  43.110  51.558  1.00  0.00     0.276 C 
BRANCH  26  27
HETATM   27  C   UNL     1      29.083  43.461  52.968  1.00  0.00     0.004 A 
HETATM   28  C   UNL     1      28.308  44.367  53.703  1.00  0.00     0.107 A 
HETATM   29  C   UNL     1      28.654  44.727  55.004  1.00  0.00     0.102 A 
HETATM   30  C   UNL     1      29.804  44.212  55.587  1.00  0.00     0.039 A 
HETATM   31  C   UNL     1      30.589  43.305  54.871  1.00  0.00     0.003 A 
HETATM   32  C   UNL     1      30.234  42.930  53.569  1.00  0.00     0.012 A 
BRANCH  28  33
HETATM   33  O   UNL     1      27.216  44.937  53.108  1.00  0.00    -0.357 OA
HETATM   34  H   UNL     1      26.449  44.757  53.693  1.00  0.00     0.218 HD
ENDBRANCH  28  33
BRANCH  29  35
HETATM   35  O   UNL     1      27.918  45.668  55.668  1.00  0.00    -0.349 OA
BRANCH  35  36
HETATM   36  C   UNL     1      28.325  46.998  55.311  1.00  0.00     0.171 C 
HETATM   37  C   UNL     1      27.082  47.855  55.176  1.00  0.00     0.034 C 
ENDBRANCH  35  36
ENDBRANCH  29  35
ENDBRANCH  26  27
ENDBRANCH   4  26
TORSDOF 10
ENDMDL
MODEL 9
REMARK VINA RESULT:      -7.3     13.878     18.799
REMARK  10 active torsions:
REMARK  status: ('A' for Active; 'I' for Inactive)
REMARK    1  A    between atoms: C_2  and  C_3 
REMARK    2  A    between atoms: C_3  and  C_4 
REMARK    3  A    between atoms: N_7  and  C_9 
REMARK    4  A    between atoms: C_9  and  C_10 
REMARK    5  A    between atoms: C_11  and  O_12 
REMARK    6  A    between atoms: C_13  and  O_14 
REMARK    7  A    between atoms: O_14  and  C_15 
REMARK    8  A    between atoms: N_25  and  C_26 
REMARK    9  A    between atoms: C_26  and  C_27 
REMARK   10  A    between atoms: C_27  and  C_28 
ROOT
HETATM    1  C   UNL     1      33.041  50.584  41.580  1.00  0.00     0.026 C 
HETATM    2  C   UNL     1      33.601  51.233  42.859  1.00  0.00     0.035 C 
HETATM    3  C   UNL     1      35.049  51.695  42.751  1.00  0.00     0.235 C 
HETATM    4  N   UNL     1      35.958  50.612  42.222  1.00  0.00    -0.067 N 
HETATM    5  H   UNL     1      36.037  49.877  42.934  1.00  0.00     0.280 HD
HETATM    6  C   UNL     1      35.445  49.940  40.973  1.00  0.00     0.235 C 
HETATM    7  C   UNL     1      34.016  49.466  41.165  1.00  0.00     0.035 C 
ENDROOT
BRANCH   1   8
HETATM    8  C   UNL     1      32.642  51.587  40.447  1.00  0.00     0.119 C 
HETATM    9  N   UNL     1      32.703  51.013  39.114  1.00  0.00    -0.324 N 
HETATM   10  C   UNL     1      31.519  51.186  38.426  1.00  0.00     0.326 C 
HETATM   11  H   UNL     1      33.527  51.027  38.525  1.00  0.00     0.165 HD
HETATM   12  O   UNL     1      31.421  50.988  37.228  1.00  0.00    -0.247 OA
HETATM   13  N   UNL     1      30.562  51.599  39.291  1.00  0.00    -0.268 N 
HETATM   14  C   UNL     1      31.125  51.910  40.499  1.00  0.00     0.256 C 
HETATM   15  O   UNL     1      30.547  52.364  41.475  1.00  0.00    -0.270 OA
BRANCH   8  16
HETATM   16  C   UNL     1      33.443  52.910  40.424  1.00  0.00     0.037 C 
HETATM   17  C   UNL     1      34.521  53.019  39.356  1.00  0.00     0.008 C 
ENDBRANCH   8  16
BRANCH  13  18
HETATM   18  C   UNL     1      29.192  51.919  38.916  1.00  0.00     0.142 C 
BRANCH  18  19
HETATM   19  C   UNL     1      28.311  50.676  38.737  1.00  0.00     0.068 C 
BRANCH  19  20
HETATM   20  C   UNL     1      28.532  49.680  39.832  1.00  0.00     0.010 A 
HETATM   21  S   UNL     1      27.897  49.954  41.405  1.00  0.00    -0.085 SA
HETATM   22  C   UNL     1      28.577  48.471  41.922  1.00  0.00     0.166 A 
HETATM   23  N   UNL     1      29.235  47.792  41.011  1.00  0.00    -0.258 NA
HETATM   24  C   UNL     1      29.221  48.476  39.807  1.00  0.00     0.044 A 
HETATM   25  C   UNL     1      29.924  47.866  38.647  1.00  0.00     0.071 C 
ENDBRANCH  19  20
ENDBRANCH  18  19
ENDBRANCH  13  18
ENDBRANCH   1   8
BRANCH   4  26
HETATM   26  C   UNL     1      37.370  51.185  42.046  1.00  0.00     0.276 C 
BRANCH  26  27
HETATM   27  C   UNL     1      37.788  52.241  43.030  1.00  0.00     0.004 A 
HETATM   28  C   UNL     1      38.165  51.883  44.331  1.00  0.00     0.107 A 
HETATM   29  C   UNL     1      38.533  52.845  45.269  1.00  0.00     0.102 A 
HETATM   30  C   UNL     1      38.501  54.192  44.934  1.00  0.00     0.039 A 
HETATM   31  C   UNL     1      38.131  54.569  43.641  1.00  0.00     0.003 A 
HETATM   32  C   UNL     1      37.775  53.602  42.692  1.00  0.00     0.012 A 
BRANCH  28  33
HETATM   33  O   UNL     1      38.124  50.563  44.691  1.00  0.00    -0.357 OA
HETATM   34  H   UNL     1      39.055  50.259  44.754  1.00  0.00     0.218 HD
ENDBRANCH  28  33
BRANCH  29  35
HETATM   35  O   UNL     1      38.826  52.469  46.550  1.00  0.00    -0.349 OA
BRANCH  35  36
HETATM   36  C   UNL     1      39.347  53.569  47.311  1.00  0.00     0.171 C 
HETATM   37  C   UNL     1      38.441  53.791  48.507  1.00  0.00     0.034 C 
ENDBRANCH  35  36
ENDBRANCH  29  35
ENDBRANCH  26  27
ENDBRANCH   4  26
TORSDOF 10
ENDMDL
MODEL 10
REMARK VINA RESULT:      -7.3     24.810     27.164
REMARK  10 active torsions:
REMARK  status: ('A' for Active; 'I' for Inactive)
REMARK    1  A    between atoms: C_2  and  C_3 
REMARK    2  A    between atoms: C_3  and  C_4 
REMARK    3  A    between atoms: N_7  and  C_9 
REMARK    4  A    between atoms: C_9  and  C_10 
REMARK    5  A    between atoms: C_11  and  O_12 
REMARK    6  A    between atoms: C_13  and  O_14 
REMARK    7  A    between atoms: O_14  and  C_15 
REMARK    8  A    between atoms: N_25  and  C_26 
REMARK    9  A    between atoms: C_26  and  C_27 
REMARK   10  A    between atoms: C_27  and  C_28 
ROOT
HETATM    1  C   UNL     1      40.358  43.228  64.032  1.00  0.00     0.026 C 
HETATM    2  C   UNL     1      40.287  44.298  65.136  1.00  0.00     0.035 C 
HETATM    3  C   UNL     1      38.932  44.983  65.266  1.00  0.00     0.235 C 
HETATM    4  N   UNL     1      38.424  45.502  63.943  1.00  0.00    -0.067 N 
HETATM    5  H   UNL     1      39.017  46.288  63.652  1.00  0.00     0.280 HD
HETATM    6  C   UNL     1      38.484  44.489  62.826  1.00  0.00     0.235 C 
HETATM    7  C   UNL     1      39.870  43.880  62.725  1.00  0.00     0.035 C 
ENDROOT
BRANCH   1   8
HETATM    8  C   UNL     1      39.694  41.857  64.393  1.00  0.00     0.119 C 
HETATM    9  N   UNL     1      39.302  41.078  63.231  1.00  0.00    -0.324 N 
HETATM   10  C   UNL     1      39.818  39.798  63.273  1.00  0.00     0.326 C 
HETATM   11  H   UNL     1      38.396  41.142  62.782  1.00  0.00     0.165 HD
HETATM   12  O   UNL     1      39.438  38.912  62.529  1.00  0.00    -0.247 OA
HETATM   13  N   UNL     1      40.757  39.733  64.248  1.00  0.00    -0.268 N 
HETATM   14  C   UNL     1      40.733  40.878  64.998  1.00  0.00     0.256 C 
HETATM   15  O   UNL     1      41.415  41.113  65.985  1.00  0.00    -0.270 OA
BRANCH   8  16
HETATM   16  C   UNL     1      38.470  41.945  65.334  1.00  0.00     0.037 C 
HETATM   17  C   UNL     1      37.109  41.780  64.674  1.00  0.00     0.008 C 
ENDBRANCH   8  16
BRANCH  13  18
HETATM   18  C   UNL     1      41.492  38.528  64.608  1.00  0.00     0.142 C 
BRANCH  18  19
HETATM   19  C   UNL     1      40.717  37.617  65.567  1.00  0.00     0.068 C 
BRANCH  19  20
HETATM   20  C   UNL     1      41.470  36.358  65.864  1.00  0.00     0.010 A 
HETATM   21  S   UNL     1      43.186  36.328  65.794  1.00  0.00    -0.085 SA
HETATM   22  C   UNL     1      43.160  34.671  66.221  1.00  0.00     0.166 A 
HETATM   23  N   UNL     1      41.972  34.146  66.412  1.00  0.00    -0.258 NA
HETATM   24  C   UNL     1      40.992  35.102  66.207  1.00  0.00     0.044 A 
HETATM   25  C   UNL     1      39.571  34.694  66.372  1.00  0.00     0.071 C 
ENDBRANCH  19  20
ENDBRANCH  18  19
ENDBRANCH  13  18
ENDBRANCH   1   8
BRANCH   4  26
HETATM   26  C   UNL     1      37.018  46.082  64.139  1.00  0.00     0.276 C 
BRANCH  26  27
HETATM   27  C   UNL     1      36.860  47.087  65.245  1.00  0.00     0.004 A 
HETATM   28  C   UNL     1      37.657  48.238  65.270  1.00  0.00     0.107 A 
HETATM   29  C   UNL     1      37.547  49.173  66.298  1.00  0.00     0.102 A 
HETATM   30  C   UNL     1      36.656  48.958  67.341  1.00  0.00     0.039 A 
HETATM   31  C   UNL     1      35.850  47.817  67.333  1.00  0.00     0.003 A 
HETATM   32  C   UNL     1      35.949  46.885  66.292  1.00  0.00     0.012 A 
BRANCH  28  33
HETATM   33  O   UNL     1      38.591  48.417  64.286  1.00  0.00    -0.357 OA
HETATM   34  H   UNL     1      39.464  48.463  64.730  1.00  0.00     0.218 HD
ENDBRANCH  28  33
BRANCH  29  35
HETATM   35  O   UNL     1      38.389  50.249  66.332  1.00  0.00    -0.349 OA
BRANCH  35  36
HETATM   36  C   UNL     1      37.679  51.476  66.104  1.00  0.00     0.171 C 
HETATM   37  C   UNL     1      37.979  52.419  67.253  1.00  0.00     0.034 C 
ENDBRANCH  35  36
ENDBRANCH  29  35
ENDBRANCH  26  27
ENDBRANCH   4  26
TORSDOF 10
ENDMDL
