MODEL 1
REMARK VINA RESULT:      -9.5      0.000      0.000
REMARK  8 active torsions:
REMARK  status: ('A' for Active; 'I' for Inactive)
REMARK    1  A    between atoms: O_2  and  C_3 
REMARK    2  A    between atoms: C_3  and  C_4 
REMARK    3  A    between atoms: C_7  and  C_8 
REMARK    4  A    between atoms: C_8  and  O_9 
REMARK    5  A    between atoms: O_9  and  C_10 
REMARK    6  A    between atoms: C_11  and  C_12 
REMARK    7  A    between atoms: C_13  and  C_14 
REMARK    8  A    between atoms: C_13  and  C_22 
REMARK       I    between atoms: C_14  and  N_15 
ROOT
HETATM    1  C   UNL     1      25.269  46.337  49.692  1.00  0.00     0.035 C 
HETATM    2  C   UNL     1      25.344  45.641  50.845  1.00  0.00     0.079 C 
ENDROOT
BRANCH   1   3
HETATM    3  C   UNL     1      25.809  47.672  49.380  1.00  0.00    -0.002 A 
HETATM    4  C   UNL     1      24.954  48.731  49.044  1.00  0.00     0.079 A 
HETATM    5  C   UNL     1      25.473  49.969  48.648  1.00  0.00     0.037 A 
HETATM    6  C   UNL     1      26.852  50.170  48.625  1.00  0.00     0.003 A 
HETATM    7  C   UNL     1      27.712  49.131  48.972  1.00  0.00     0.001 A 
HETATM    8  C   UNL     1      27.194  47.885  49.334  1.00  0.00     0.014 A 
BRANCH   4   9
HETATM    9  O   UNL     1      23.602  48.502  49.012  1.00  0.00    -0.346 OA
BRANCH   9  10
HETATM   10  C   UNL     1      22.976  49.031  47.836  1.00  0.00     0.214 C 
BRANCH  10  11
HETATM   11  C   UNL     1      21.626  49.632  48.169  1.00  0.00    -0.034 A 
HETATM   12  C   UNL     1      21.546  50.986  48.529  1.00  0.00     0.010 A 
HETATM   13  C   UNL     1      20.312  51.572  48.826  1.00  0.00     0.018 A 
HETATM   14  C   UNL     1      19.135  50.816  48.767  1.00  0.00     0.039 A 
HETATM   15  C   UNL     1      19.206  49.469  48.394  1.00  0.00     0.018 A 
HETATM   16  C   UNL     1      20.441  48.886  48.094  1.00  0.00     0.010 A 
BRANCH  14  17
HETATM   17  C   UNL     1      17.848  51.483  49.105  1.00  0.00     0.292 C 
HETATM   18  O   UNL     1      17.358  51.476  50.221  1.00  0.00    -0.259 OA
BRANCH  17  19
HETATM   19  O   UNL     1      17.313  52.075  48.007  1.00  0.00    -0.323 OA
HETATM   20  C   UNL     1      15.905  52.293  48.092  1.00  0.00     0.213 C 
ENDBRANCH  17  19
ENDBRANCH  14  17
ENDBRANCH  10  11
ENDBRANCH   9  10
ENDBRANCH   4   9
ENDBRANCH   1   3
BRANCH   2  21
HETATM   21  C   UNL     1      24.693  44.283  50.889  1.00  0.00     0.257 C 
HETATM   22  N   UNL     1      25.438  43.142  50.656  1.00  0.00    -0.344 N 
HETATM   23  C   UNL     1      24.764  41.840  50.645  1.00  0.00     0.152 C 
HETATM   24  C   UNL     1      26.851  43.037  50.270  1.00  0.00     0.152 C 
HETATM   25  C   UNL     1      24.917  41.192  49.266  1.00  0.00     0.187 C 
HETATM   26  O   UNL     1      26.304  41.084  48.895  1.00  0.00    -0.388 OA
HETATM   27  C   UNL     1      26.945  42.373  48.889  1.00  0.00     0.187 C 
HETATM   28  O   UNL     1      23.499  44.221  51.206  1.00  0.00    -0.267 OA
ENDBRANCH   2  21
BRANCH   2  29
HETATM   29  C   UNL     1      25.820  46.223  52.064  1.00  0.00     0.144 A 
HETATM   30  N   UNL     1      25.464  47.313  52.723  1.00  0.00    -0.228 NA
HETATM   31  C   UNL     1      26.177  47.308  53.896  1.00  0.00     0.086 A 
HETATM   32  C   UNL     1      27.024  46.213  53.955  1.00  0.00     0.062 A 
HETATM   33  C   UNL     1      26.142  48.204  54.973  1.00  0.00     0.034 A 
HETATM   34  N   UNL     1      26.793  45.551  52.779  1.00  0.00    -0.338 N 
HETATM   35  C   UNL     1      27.864  45.944  55.036  1.00  0.00     0.032 A 
HETATM   36  H   UNL     1      27.201  44.666  52.501  1.00  0.00     0.167 HD
HETATM   37  C   UNL     1      27.816  46.847  56.104  1.00  0.00     0.002 A 
HETATM   38  C   UNL     1      26.968  47.958  56.078  1.00  0.00     0.002 A 
ENDBRANCH   2  29
TORSDOF 8
ENDMDL
MODEL 2
REMARK VINA RESULT:      -9.2     11.048     14.506
REMARK  8 active torsions:
REMARK  status: ('A' for Active; 'I' for Inactive)
REMARK    1  A    between atoms: O_2  and  C_3 
REMARK    2  A    between atoms: C_3  and  C_4 
REMARK    3  A    between atoms: C_7  and  C_8 
REMARK    4  A    between atoms: C_8  and  O_9 
REMARK    5  A    between atoms: O_9  and  C_10 
REMARK    6  A    between atoms: C_11  and  C_12 
REMARK    7  A    between atoms: C_13  and  C_14 
REMARK    8  A    between atoms: C_13  and  C_22 
REMARK       I    between atoms: C_14  and  N_15 
ROOT
HETATM    1  C   UNL     1      28.356  49.050  40.759  1.00  0.00     0.035 C 
HETATM    2  C   UNL     1      27.698  50.034  40.112  1.00  0.00     0.079 C 
ENDROOT
BRANCH   1   3
HETATM    3  C   UNL     1      28.268  47.592  40.564  1.00  0.00    -0.002 A 
HETATM    4  C   UNL     1      29.336  46.878  40.006  1.00  0.00     0.079 A 
HETATM    5  C   UNL     1      29.212  45.511  39.727  1.00  0.00     0.037 A 
HETATM    6  C   UNL     1      28.032  44.841  40.044  1.00  0.00     0.003 A 
HETATM    7  C   UNL     1      26.969  45.537  40.614  1.00  0.00     0.001 A 
HETATM    8  C   UNL     1      27.081  46.907  40.860  1.00  0.00     0.014 A 
BRANCH   4   9
HETATM    9  O   UNL     1      30.469  47.561  39.644  1.00  0.00    -0.346 OA
BRANCH   9  10
HETATM   10  C   UNL     1      31.616  47.182  40.416  1.00  0.00     0.214 C 
BRANCH  10  11
HETATM   11  C   UNL     1      32.093  48.337  41.273  1.00  0.00    -0.034 A 
HETATM   12  C   UNL     1      33.316  48.956  40.974  1.00  0.00     0.010 A 
HETATM   13  C   UNL     1      33.775  50.032  41.738  1.00  0.00     0.018 A 
HETATM   14  C   UNL     1      33.018  50.513  42.813  1.00  0.00     0.039 A 
HETATM   15  C   UNL     1      31.790  49.910  43.108  1.00  0.00     0.018 A 
HETATM   16  C   UNL     1      31.332  48.834  42.341  1.00  0.00     0.010 A 
BRANCH  14  17
HETATM   17  C   UNL     1      33.556  51.654  43.603  1.00  0.00     0.292 C 
HETATM   18  O   UNL     1      33.043  52.063  44.632  1.00  0.00    -0.259 OA
BRANCH  17  19
HETATM   19  O   UNL     1      34.668  52.162  43.015  1.00  0.00    -0.323 OA
HETATM   20  C   UNL     1      35.754  52.383  43.915  1.00  0.00     0.213 C 
ENDBRANCH  17  19
ENDBRANCH  14  17
ENDBRANCH  10  11
ENDBRANCH   9  10
ENDBRANCH   4   9
ENDBRANCH   1   3
BRANCH   2  21
HETATM   21  C   UNL     1      27.982  51.456  40.521  1.00  0.00     0.257 C 
HETATM   22  N   UNL     1      29.016  52.160  39.933  1.00  0.00    -0.344 N 
HETATM   23  C   UNL     1      29.307  53.521  40.394  1.00  0.00     0.152 C 
HETATM   24  C   UNL     1      30.004  51.685  38.955  1.00  0.00     0.152 C 
HETATM   25  C   UNL     1      30.727  53.579  40.965  1.00  0.00     0.187 C 
HETATM   26  O   UNL     1      31.692  53.120  40.001  1.00  0.00    -0.388 OA
HETATM   27  C   UNL     1      31.406  51.775  39.574  1.00  0.00     0.187 C 
HETATM   28  O   UNL     1      27.223  51.987  41.339  1.00  0.00    -0.267 OA
ENDBRANCH   2  21
BRANCH   2  29
HETATM   29  C   UNL     1      26.607  49.771  39.222  1.00  0.00     0.144 A 
HETATM   30  N   UNL     1      26.551  49.176  38.043  1.00  0.00    -0.228 NA
HETATM   31  C   UNL     1      25.221  49.094  37.711  1.00  0.00     0.086 A 
HETATM   32  C   UNL     1      24.432  49.685  38.686  1.00  0.00     0.062 A 
HETATM   33  C   UNL     1      24.606  48.513  36.594  1.00  0.00     0.034 A 
HETATM   34  N   UNL     1      25.331  50.120  39.622  1.00  0.00    -0.338 N 
HETATM   35  C   UNL     1      23.039  49.744  38.621  1.00  0.00     0.032 A 
HETATM   36  H   UNL     1      25.107  50.556  40.510  1.00  0.00     0.167 HD
HETATM   37  C   UNL     1      22.442  49.157  37.499  1.00  0.00     0.002 A 
HETATM   38  C   UNL     1      23.209  48.548  36.503  1.00  0.00     0.002 A 
ENDBRANCH   2  29
TORSDOF 8
ENDMDL
MODEL 3
REMARK VINA RESULT:      -9.0      4.971     10.249
REMARK  8 active torsions:
REMARK  status: ('A' for Active; 'I' for Inactive)
REMARK    1  A    between atoms: O_2  and  C_3 
REMARK    2  A    between atoms: C_3  and  C_4 
REMARK    3  A    between atoms: C_7  and  C_8 
REMARK    4  A    between atoms: C_8  and  O_9 
REMARK    5  A    between atoms: O_9  and  C_10 
REMARK    6  A    between atoms: C_11  and  C_12 
REMARK    7  A    between atoms: C_13  and  C_14 
REMARK    8  A    between atoms: C_13  and  C_22 
REMARK       I    between atoms: C_14  and  N_15 
ROOT
HETATM    1  C   UNL     1      26.250  40.874  50.044  1.00  0.00     0.035 C 
HETATM    2  C   UNL     1      26.001  41.675  48.988  1.00  0.00     0.079 C 
ENDROOT
BRANCH   1   3
HETATM    3  C   UNL     1      27.215  39.766  50.160  1.00  0.00    -0.002 A 
HETATM    4  C   UNL     1      28.395  39.917  50.900  1.00  0.00     0.079 A 
HETATM    5  C   UNL     1      29.357  38.901  50.924  1.00  0.00     0.037 A 
HETATM    6  C   UNL     1      29.127  37.707  50.241  1.00  0.00     0.003 A 
HETATM    7  C   UNL     1      27.950  37.539  49.515  1.00  0.00     0.001 A 
HETATM    8  C   UNL     1      27.006  38.567  49.463  1.00  0.00     0.014 A 
BRANCH   4   9
HETATM    9  O   UNL     1      28.636  41.117  51.517  1.00  0.00    -0.346 OA
BRANCH   9  10
HETATM   10  C   UNL     1      29.092  40.966  52.868  1.00  0.00     0.214 C 
BRANCH  10  11
HETATM   11  C   UNL     1      28.947  42.265  53.634  1.00  0.00    -0.034 A 
HETATM   12  C   UNL     1      30.062  42.800  54.296  1.00  0.00     0.010 A 
HETATM   13  C   UNL     1      29.963  44.005  54.998  1.00  0.00     0.018 A 
HETATM   14  C   UNL     1      28.748  44.698  55.049  1.00  0.00     0.039 A 
HETATM   15  C   UNL     1      27.635  44.177  54.379  1.00  0.00     0.018 A 
HETATM   16  C   UNL     1      27.737  42.974  53.675  1.00  0.00     0.010 A 
BRANCH  14  17
HETATM   17  C   UNL     1      28.690  45.970  55.820  1.00  0.00     0.292 C 
HETATM   18  O   UNL     1      28.743  46.024  57.038  1.00  0.00    -0.259 OA
BRANCH  17  19
HETATM   19  O   UNL     1      28.562  47.031  54.984  1.00  0.00    -0.323 OA
HETATM   20  C   UNL     1      27.326  47.732  55.119  1.00  0.00     0.213 C 
ENDBRANCH  17  19
ENDBRANCH  14  17
ENDBRANCH  10  11
ENDBRANCH   9  10
ENDBRANCH   4   9
ENDBRANCH   1   3
BRANCH   2  21
HETATM   21  C   UNL     1      24.946  42.739  49.147  1.00  0.00     0.257 C 
HETATM   22  N   UNL     1      25.308  44.053  49.381  1.00  0.00    -0.344 N 
HETATM   23  C   UNL     1      24.258  45.055  49.592  1.00  0.00     0.152 C 
HETATM   24  C   UNL     1      26.651  44.607  49.591  1.00  0.00     0.152 C 
HETATM   25  C   UNL     1      24.398  45.660  50.992  1.00  0.00     0.187 C 
HETATM   26  O   UNL     1      25.713  46.209  51.190  1.00  0.00    -0.388 OA
HETATM   27  C   UNL     1      26.731  45.209  51.002  1.00  0.00     0.187 C 
HETATM   28  O   UNL     1      23.764  42.412  48.992  1.00  0.00    -0.267 OA
ENDBRANCH   2  21
BRANCH   2  29
HETATM   29  C   UNL     1      26.538  41.417  47.686  1.00  0.00     0.144 A 
HETATM   30  N   UNL     1      27.780  41.355  47.236  1.00  0.00    -0.228 NA
HETATM   31  C   UNL     1      27.700  40.947  45.928  1.00  0.00     0.086 A 
HETATM   32  C   UNL     1      26.379  40.788  45.540  1.00  0.00     0.062 A 
HETATM   33  C   UNL     1      28.721  40.675  45.007  1.00  0.00     0.034 A 
HETATM   34  N   UNL     1      25.663  41.106  46.662  1.00  0.00    -0.338 N 
HETATM   35  C   UNL     1      25.994  40.372  44.264  1.00  0.00     0.032 A 
HETATM   36  H   UNL     1      24.656  41.048  46.765  1.00  0.00     0.167 HD
HETATM   37  C   UNL     1      27.026  40.103  43.358  1.00  0.00     0.002 A 
HETATM   38  C   UNL     1      28.367  40.249  43.720  1.00  0.00     0.002 A 
ENDBRANCH   2  29
TORSDOF 8
ENDMDL
MODEL 4
REMARK VINA RESULT:      -8.8      5.876     12.352
REMARK  8 active torsions:
REMARK  status: ('A' for Active; 'I' for Inactive)
REMARK    1  A    between atoms: O_2  and  C_3 
REMARK    2  A    between atoms: C_3  and  C_4 
REMARK    3  A    between atoms: C_7  and  C_8 
REMARK    4  A    between atoms: C_8  and  O_9 
REMARK    5  A    between atoms: O_9  and  C_10 
REMARK    6  A    between atoms: C_11  and  C_12 
REMARK    7  A    between atoms: C_13  and  C_14 
REMARK    8  A    between atoms: C_13  and  C_22 
REMARK       I    between atoms: C_14  and  N_15 
ROOT
HETATM    1  C   UNL     1      15.290  51.621  48.500  1.00  0.00     0.035 C 
HETATM    2  C   UNL     1      15.373  52.627  47.605  1.00  0.00     0.079 C 
ENDROOT
BRANCH   1   3
HETATM    3  C   UNL     1      16.021  50.342  48.526  1.00  0.00    -0.002 A 
HETATM    4  C   UNL     1      17.273  50.245  49.147  1.00  0.00     0.079 A 
HETATM    5  C   UNL     1      18.012  49.057  49.083  1.00  0.00     0.037 A 
HETATM    6  C   UNL     1      17.484  47.944  48.431  1.00  0.00     0.003 A 
HETATM    7  C   UNL     1      16.233  48.023  47.823  1.00  0.00     0.001 A 
HETATM    8  C   UNL     1      15.512  49.219  47.858  1.00  0.00     0.014 A 
BRANCH   4   9
HETATM    9  O   UNL     1      17.807  51.364  49.734  1.00  0.00    -0.346 OA
BRANCH   9  10
HETATM   10  C   UNL     1      18.740  52.044  48.885  1.00  0.00     0.214 C 
BRANCH  10  11
HETATM   11  C   UNL     1      20.089  51.354  48.905  1.00  0.00    -0.034 A 
HETATM   12  C   UNL     1      20.633  50.874  47.704  1.00  0.00     0.010 A 
HETATM   13  C   UNL     1      21.881  50.246  47.688  1.00  0.00     0.018 A 
HETATM   14  C   UNL     1      22.611  50.089  48.873  1.00  0.00     0.039 A 
HETATM   15  C   UNL     1      22.081  50.579  50.072  1.00  0.00     0.018 A 
HETATM   16  C   UNL     1      20.833  51.209  50.085  1.00  0.00     0.010 A 
BRANCH  14  17
HETATM   17  C   UNL     1      23.930  49.403  48.806  1.00  0.00     0.292 C 
HETATM   18  O   UNL     1      24.342  48.647  49.670  1.00  0.00    -0.259 OA
BRANCH  17  19
HETATM   19  O   UNL     1      24.592  49.747  47.672  1.00  0.00    -0.323 OA
HETATM   20  C   UNL     1      25.972  50.051  47.873  1.00  0.00     0.213 C 
ENDBRANCH  17  19
ENDBRANCH  14  17
ENDBRANCH  10  11
ENDBRANCH   9  10
ENDBRANCH   4   9
ENDBRANCH   1   3
BRANCH   2  21
HETATM   21  C   UNL     1      14.497  53.834  47.822  1.00  0.00     0.257 C 
HETATM   22  N   UNL     1      14.644  54.610  48.956  1.00  0.00    -0.344 N 
HETATM   23  C   UNL     1      13.737  55.742  49.169  1.00  0.00     0.152 C 
HETATM   24  C   UNL     1      15.531  54.390  50.106  1.00  0.00     0.152 C 
HETATM   25  C   UNL     1      12.936  55.526  50.456  1.00  0.00     0.187 C 
HETATM   26  O   UNL     1      13.809  55.318  51.581  1.00  0.00    -0.388 OA
HETATM   27  C   UNL     1      14.678  54.190  51.367  1.00  0.00     0.187 C 
HETATM   28  O   UNL     1      13.700  54.141  46.928  1.00  0.00    -0.267 OA
ENDBRANCH   2  21
BRANCH   2  29
HETATM   29  C   UNL     1      16.086  52.499  46.370  1.00  0.00     0.144 A 
HETATM   30  N   UNL     1      16.776  51.500  45.846  1.00  0.00    -0.228 NA
HETATM   31  C   UNL     1      17.134  51.897  44.581  1.00  0.00     0.086 A 
HETATM   32  C   UNL     1      16.692  53.185  44.323  1.00  0.00     0.062 A 
HETATM   33  C   UNL     1      17.830  51.200  43.583  1.00  0.00     0.034 A 
HETATM   34  N   UNL     1      16.046  53.551  45.474  1.00  0.00    -0.338 N 
HETATM   35  C   UNL     1      16.904  53.846  43.113  1.00  0.00     0.032 A 
HETATM   36  H   UNL     1      15.545  54.418  45.629  1.00  0.00     0.167 HD
HETATM   37  C   UNL     1      17.598  53.135  42.127  1.00  0.00     0.002 A 
HETATM   38  C   UNL     1      18.052  51.834  42.354  1.00  0.00     0.002 A 
ENDBRANCH   2  29
TORSDOF 8
ENDMDL
MODEL 5
REMARK VINA RESULT:      -8.6      2.941      8.673
REMARK  8 active torsions:
REMARK  status: ('A' for Active; 'I' for Inactive)
REMARK    1  A    between atoms: O_2  and  C_3 
REMARK    2  A    between atoms: C_3  and  C_4 
REMARK    3  A    between atoms: C_7  and  C_8 
REMARK    4  A    between atoms: C_8  and  O_9 
REMARK    5  A    between atoms: O_9  and  C_10 
REMARK    6  A    between atoms: C_11  and  C_12 
REMARK    7  A    between atoms: C_13  and  C_14 
REMARK    8  A    between atoms: C_13  and  C_22 
REMARK       I    between atoms: C_14  and  N_15 
ROOT
HETATM    1  C   UNL     1      20.988  47.042  48.046  1.00  0.00     0.035 C 
HETATM    2  C   UNL     1      21.524  48.085  48.712  1.00  0.00     0.079 C 
ENDROOT
BRANCH   1   3
HETATM    3  C   UNL     1      21.671  45.959  47.317  1.00  0.00    -0.002 A 
HETATM    4  C   UNL     1      22.386  44.971  48.007  1.00  0.00     0.079 A 
HETATM    5  C   UNL     1      23.118  44.003  47.310  1.00  0.00     0.037 A 
HETATM    6  C   UNL     1      23.107  43.991  45.916  1.00  0.00     0.003 A 
HETATM    7  C   UNL     1      22.387  44.958  45.220  1.00  0.00     0.001 A 
HETATM    8  C   UNL     1      21.684  45.945  45.915  1.00  0.00     0.014 A 
BRANCH   4   9
HETATM    9  O   UNL     1      22.438  45.029  49.376  1.00  0.00    -0.346 OA
BRANCH   9  10
HETATM   10  C   UNL     1      22.783  43.772  49.973  1.00  0.00     0.214 C 
BRANCH  10  11
HETATM   11  C   UNL     1      24.111  43.866  50.697  1.00  0.00    -0.034 A 
HETATM   12  C   UNL     1      25.032  42.815  50.582  1.00  0.00     0.010 A 
HETATM   13  C   UNL     1      26.272  42.879  51.225  1.00  0.00     0.018 A 
HETATM   14  C   UNL     1      26.614  43.999  51.993  1.00  0.00     0.039 A 
HETATM   15  C   UNL     1      25.706  45.059  52.099  1.00  0.00     0.018 A 
HETATM   16  C   UNL     1      24.468  44.993  51.452  1.00  0.00     0.010 A 
BRANCH  14  17
HETATM   17  C   UNL     1      27.940  44.016  52.668  1.00  0.00     0.292 C 
HETATM   18  O   UNL     1      28.899  43.365  52.287  1.00  0.00    -0.259 OA
BRANCH  17  19
HETATM   19  O   UNL     1      27.917  44.835  53.749  1.00  0.00    -0.323 OA
HETATM   20  C   UNL     1      28.924  44.547  54.719  1.00  0.00     0.213 C 
ENDBRANCH  17  19
ENDBRANCH  14  17
ENDBRANCH  10  11
ENDBRANCH   9  10
ENDBRANCH   4   9
ENDBRANCH   1   3
BRANCH   2  21
HETATM   21  C   UNL     1      20.580  49.057  49.373  1.00  0.00     0.257 C 
HETATM   22  N   UNL     1      19.228  48.778  49.447  1.00  0.00    -0.344 N 
HETATM   23  C   UNL     1      18.326  49.770  50.041  1.00  0.00     0.152 C 
HETATM   24  C   UNL     1      18.497  47.638  48.878  1.00  0.00     0.152 C 
HETATM   25  C   UNL     1      17.305  50.229  48.995  1.00  0.00     0.187 C 
HETATM   26  O   UNL     1      16.586  49.109  48.446  1.00  0.00    -0.388 OA
HETATM   27  C   UNL     1      17.483  48.156  47.848  1.00  0.00     0.187 C 
HETATM   28  O   UNL     1      21.061  50.066  49.900  1.00  0.00    -0.267 OA
ENDBRANCH   2  21
BRANCH   2  29
HETATM   29  C   UNL     1      22.915  48.414  48.633  1.00  0.00     0.144 A 
HETATM   30  N   UNL     1      23.571  49.325  47.934  1.00  0.00    -0.228 NA
HETATM   31  C   UNL     1      24.878  49.269  48.352  1.00  0.00     0.086 A 
HETATM   32  C   UNL     1      25.050  48.277  49.304  1.00  0.00     0.062 A 
HETATM   33  C   UNL     1      25.978  50.050  47.971  1.00  0.00     0.034 A 
HETATM   34  N   UNL     1      23.799  47.740  49.454  1.00  0.00    -0.338 N 
HETATM   35  C   UNL     1      26.273  47.997  49.915  1.00  0.00     0.032 A 
HETATM   36  H   UNL     1      23.533  47.019  50.114  1.00  0.00     0.167 HD
HETATM   37  C   UNL     1      27.360  48.787  49.525  1.00  0.00     0.002 A 
HETATM   38  C   UNL     1      27.218  49.798  48.572  1.00  0.00     0.002 A 
ENDBRANCH   2  29
TORSDOF 8
ENDMDL
MODEL 6
REMARK VINA RESULT:      -8.5      3.580      8.939
REMARK  8 active torsions:
REMARK  status: ('A' for Active; 'I' for Inactive)
REMARK    1  A    between atoms: O_2  and  C_3 
REMARK    2  A    between atoms: C_3  and  C_4 
REMARK    3  A    between atoms: C_7  and  C_8 
REMARK    4  A    between atoms: C_8  and  O_9 
REMARK    5  A    between atoms: O_9  and  C_10 
REMARK    6  A    between atoms: C_11  and  C_12 
REMARK    7  A    between atoms: C_13  and  C_14 
REMARK    8  A    between atoms: C_13  and  C_22 
REMARK       I    between atoms: C_14  and  N_15 
ROOT
HETATM    1  C   UNL     1      22.847  46.458  48.539  1.00  0.00     0.035 C 
HETATM    2  C   UNL     1      21.524  46.723  48.519  1.00  0.00     0.079 C 
ENDROOT
BRANCH   1   3
HETATM    3  C   UNL     1      23.972  47.376  48.789  1.00  0.00    -0.002 A 
HETATM    4  C   UNL     1      25.079  46.965  49.542  1.00  0.00     0.079 A 
HETATM    5  C   UNL     1      26.098  47.869  49.865  1.00  0.00     0.037 A 
HETATM    6  C   UNL     1      26.037  49.182  49.399  1.00  0.00     0.003 A 
HETATM    7  C   UNL     1      24.950  49.598  48.636  1.00  0.00     0.001 A 
HETATM    8  C   UNL     1      23.916  48.705  48.344  1.00  0.00     0.014 A 
BRANCH   4   9
HETATM    9  O   UNL     1      25.098  45.689  50.044  1.00  0.00    -0.346 OA
BRANCH   9  10
HETATM   10  C   UNL     1      24.613  45.614  51.391  1.00  0.00     0.214 C 
BRANCH  10  11
HETATM   11  C   UNL     1      25.760  45.466  52.369  1.00  0.00    -0.034 A 
HETATM   12  C   UNL     1      25.978  46.466  53.329  1.00  0.00     0.010 A 
HETATM   13  C   UNL     1      27.018  46.351  54.255  1.00  0.00     0.018 A 
HETATM   14  C   UNL     1      27.860  45.232  54.240  1.00  0.00     0.039 A 
HETATM   15  C   UNL     1      27.640  44.224  53.295  1.00  0.00     0.018 A 
HETATM   16  C   UNL     1      26.596  44.340  52.371  1.00  0.00     0.010 A 
BRANCH  14  17
HETATM   17  C   UNL     1      28.961  45.161  55.238  1.00  0.00     0.292 C 
HETATM   18  O   UNL     1      29.154  46.012  56.091  1.00  0.00    -0.259 OA
BRANCH  17  19
HETATM   19  O   UNL     1      29.705  44.042  55.052  1.00  0.00    -0.323 OA
HETATM   20  C   UNL     1      30.890  43.991  55.848  1.00  0.00     0.213 C 
ENDBRANCH  17  19
ENDBRANCH  14  17
ENDBRANCH  10  11
ENDBRANCH   9  10
ENDBRANCH   4   9
ENDBRANCH   1   3
BRANCH   2  21
HETATM   21  C   UNL     1      20.583  45.582  48.232  1.00  0.00     0.257 C 
HETATM   22  N   UNL     1      20.234  45.273  46.930  1.00  0.00    -0.344 N 
HETATM   23  C   UNL     1      19.269  44.197  46.686  1.00  0.00     0.152 C 
HETATM   24  C   UNL     1      20.601  45.978  45.694  1.00  0.00     0.152 C 
HETATM   25  C   UNL     1      18.033  44.763  45.981  1.00  0.00     0.187 C 
HETATM   26  O   UNL     1      18.396  45.446  44.767  1.00  0.00    -0.388 OA
HETATM   27  C   UNL     1      19.326  46.513  45.026  1.00  0.00     0.187 C 
HETATM   28  O   UNL     1      20.195  44.896  49.184  1.00  0.00    -0.267 OA
ENDBRANCH   2  21
BRANCH   2  29
HETATM   29  C   UNL     1      21.008  48.059  48.546  1.00  0.00     0.144 A 
HETATM   30  N   UNL     1      20.799  48.946  47.588  1.00  0.00    -0.228 NA
HETATM   31  C   UNL     1      20.168  50.013  48.178  1.00  0.00     0.086 A 
HETATM   32  C   UNL     1      20.016  49.805  49.540  1.00  0.00     0.062 A 
HETATM   33  C   UNL     1      19.681  51.197  47.608  1.00  0.00     0.034 A 
HETATM   34  N   UNL     1      20.568  48.571  49.752  1.00  0.00    -0.338 N 
HETATM   35  C   UNL     1      19.400  50.720  50.397  1.00  0.00     0.032 A 
HETATM   36  H   UNL     1      20.586  48.066  50.630  1.00  0.00     0.167 HD
HETATM   37  C   UNL     1      18.917  51.896  49.811  1.00  0.00     0.002 A 
HETATM   38  C   UNL     1      19.051  52.132  48.440  1.00  0.00     0.002 A 
ENDBRANCH   2  29
TORSDOF 8
ENDMDL
MODEL 7
REMARK VINA RESULT:      -8.5      3.581      9.063
REMARK  8 active torsions:
REMARK  status: ('A' for Active; 'I' for Inactive)
REMARK    1  A    between atoms: O_2  and  C_3 
REMARK    2  A    between atoms: C_3  and  C_4 
REMARK    3  A    between atoms: C_7  and  C_8 
REMARK    4  A    between atoms: C_8  and  O_9 
REMARK    5  A    between atoms: O_9  and  C_10 
REMARK    6  A    between atoms: C_11  and  C_12 
REMARK    7  A    between atoms: C_13  and  C_14 
REMARK    8  A    between atoms: C_13  and  C_22 
REMARK       I    between atoms: C_14  and  N_15 
ROOT
HETATM    1  C   UNL     1      22.125  46.752  48.146  1.00  0.00     0.035 C 
HETATM    2  C   UNL     1      20.794  46.866  48.330  1.00  0.00     0.079 C 
ENDROOT
BRANCH   1   3
HETATM    3  C   UNL     1      23.179  47.760  48.355  1.00  0.00    -0.002 A 
HETATM    4  C   UNL     1      24.256  47.504  49.214  1.00  0.00     0.079 A 
HETATM    5  C   UNL     1      25.201  48.500  49.490  1.00  0.00     0.037 A 
HETATM    6  C   UNL     1      25.098  49.747  48.876  1.00  0.00     0.003 A 
HETATM    7  C   UNL     1      24.041  50.008  48.008  1.00  0.00     0.001 A 
HETATM    8  C   UNL     1      23.079  49.026  47.760  1.00  0.00     0.014 A 
BRANCH   4   9
HETATM    9  O   UNL     1      24.313  46.295  49.857  1.00  0.00    -0.346 OA
BRANCH   9  10
HETATM   10  C   UNL     1      25.496  45.550  49.538  1.00  0.00     0.214 C 
BRANCH  10  11
HETATM   11  C   UNL     1      26.258  45.185  50.796  1.00  0.00    -0.034 A 
HETATM   12  C   UNL     1      25.909  45.791  52.011  1.00  0.00     0.010 A 
HETATM   13  C   UNL     1      26.584  45.463  53.191  1.00  0.00     0.018 A 
HETATM   14  C   UNL     1      27.618  44.519  53.177  1.00  0.00     0.039 A 
HETATM   15  C   UNL     1      27.962  43.899  51.970  1.00  0.00     0.018 A 
HETATM   16  C   UNL     1      27.284  44.227  50.792  1.00  0.00     0.010 A 
BRANCH  14  17
HETATM   17  C   UNL     1      28.314  44.213  54.456  1.00  0.00     0.292 C 
HETATM   18  O   UNL     1      29.026  43.236  54.620  1.00  0.00    -0.259 OA
BRANCH  17  19
HETATM   19  O   UNL     1      28.034  45.155  55.391  1.00  0.00    -0.323 OA
HETATM   20  C   UNL     1      29.187  45.798  55.934  1.00  0.00     0.213 C 
ENDBRANCH  17  19
ENDBRANCH  14  17
ENDBRANCH  10  11
ENDBRANCH   9  10
ENDBRANCH   4   9
ENDBRANCH   1   3
BRANCH   2  21
HETATM   21  C   UNL     1      19.938  45.662  48.033  1.00  0.00     0.257 C 
HETATM   22  N   UNL     1      19.587  45.357  46.731  1.00  0.00    -0.344 N 
HETATM   23  C   UNL     1      18.703  44.214  46.480  1.00  0.00     0.152 C 
HETATM   24  C   UNL     1      19.872  46.115  45.507  1.00  0.00     0.152 C 
HETATM   25  C   UNL     1      17.412  44.699  45.813  1.00  0.00     0.187 C 
HETATM   26  O   UNL     1      17.696  45.435  44.609  1.00  0.00    -0.388 OA
HETATM   27  C   UNL     1      18.546  46.566  44.876  1.00  0.00     0.187 C 
HETATM   28  O   UNL     1      19.624  44.927  48.976  1.00  0.00    -0.267 OA
ENDBRANCH   2  21
BRANCH   2  29
HETATM   29  C   UNL     1      20.159  48.124  48.584  1.00  0.00     0.144 A 
HETATM   30  N   UNL     1      19.934  48.793  49.702  1.00  0.00    -0.228 NA
HETATM   31  C   UNL     1      19.402  50.002  49.332  1.00  0.00     0.086 A 
HETATM   32  C   UNL     1      19.255  50.077  47.956  1.00  0.00     0.062 A 
HETATM   33  C   UNL     1      19.029  51.100  50.120  1.00  0.00     0.034 A 
HETATM   34  N   UNL     1      19.726  48.873  47.506  1.00  0.00    -0.338 N 
HETATM   35  C   UNL     1      18.746  51.195  47.293  1.00  0.00     0.032 A 
HETATM   36  H   UNL     1      19.822  48.593  46.537  1.00  0.00     0.167 HD
HETATM   37  C   UNL     1      18.381  52.283  48.095  1.00  0.00     0.002 A 
HETATM   38  C   UNL     1      18.521  52.240  49.484  1.00  0.00     0.002 A 
ENDBRANCH   2  29
TORSDOF 8
ENDMDL
MODEL 8
REMARK VINA RESULT:      -8.4     19.619     22.735
REMARK  8 active torsions:
REMARK  status: ('A' for Active; 'I' for Inactive)
REMARK    1  A    between atoms: O_2  and  C_3 
REMARK    2  A    between atoms: C_3  and  C_4 
REMARK    3  A    between atoms: C_7  and  C_8 
REMARK    4  A    between atoms: C_8  and  O_9 
REMARK    5  A    between atoms: O_9  and  C_10 
REMARK    6  A    between atoms: C_11  and  C_12 
REMARK    7  A    between atoms: C_13  and  C_14 
REMARK    8  A    between atoms: C_13  and  C_22 
REMARK       I    between atoms: C_14  and  N_15 
ROOT
HETATM    1  C   UNL     1      39.800  45.601  65.892  1.00  0.00     0.035 C 
HETATM    2  C   UNL     1      40.682  44.844  65.209  1.00  0.00     0.079 C 
ENDROOT
BRANCH   1   3
HETATM    3  C   UNL     1      38.481  45.225  66.433  1.00  0.00    -0.002 A 
HETATM    4  C   UNL     1      37.323  45.357  65.656  1.00  0.00     0.079 A 
HETATM    5  C   UNL     1      36.062  45.097  66.205  1.00  0.00     0.037 A 
HETATM    6  C   UNL     1      35.953  44.663  67.525  1.00  0.00     0.003 A 
HETATM    7  C   UNL     1      37.098  44.513  68.303  1.00  0.00     0.001 A 
HETATM    8  C   UNL     1      38.354  44.805  67.765  1.00  0.00     0.014 A 
BRANCH   4   9
HETATM    9  O   UNL     1      37.439  45.841  64.378  1.00  0.00    -0.346 OA
BRANCH   9  10
HETATM   10  C   UNL     1      36.704  47.056  64.176  1.00  0.00     0.214 C 
BRANCH  10  11
HETATM   11  C   UNL     1      37.336  48.201  64.939  1.00  0.00    -0.034 A 
HETATM   12  C   UNL     1      36.755  48.630  66.141  1.00  0.00     0.010 A 
HETATM   13  C   UNL     1      37.323  49.675  66.876  1.00  0.00     0.018 A 
HETATM   14  C   UNL     1      38.487  50.307  66.423  1.00  0.00     0.039 A 
HETATM   15  C   UNL     1      39.082  49.875  65.232  1.00  0.00     0.018 A 
HETATM   16  C   UNL     1      38.512  48.828  64.501  1.00  0.00     0.010 A 
BRANCH  14  17
HETATM   17  C   UNL     1      39.048  51.422  67.234  1.00  0.00     0.292 C 
HETATM   18  O   UNL     1      39.281  51.337  68.429  1.00  0.00    -0.259 OA
BRANCH  17  19
HETATM   19  O   UNL     1      39.245  52.522  66.465  1.00  0.00    -0.323 OA
HETATM   20  C   UNL     1      38.298  53.567  66.689  1.00  0.00     0.213 C 
ENDBRANCH  17  19
ENDBRANCH  14  17
ENDBRANCH  10  11
ENDBRANCH   9  10
ENDBRANCH   4   9
ENDBRANCH   1   3
BRANCH   2  21
HETATM   21  C   UNL     1      41.969  45.492  64.767  1.00  0.00     0.257 C 
HETATM   22  N   UNL     1      43.096  45.425  65.566  1.00  0.00    -0.344 N 
HETATM   23  C   UNL     1      44.316  46.117  65.138  1.00  0.00     0.152 C 
HETATM   24  C   UNL     1      43.231  44.845  66.909  1.00  0.00     0.152 C 
HETATM   25  C   UNL     1      44.690  47.185  66.170  1.00  0.00     0.187 C 
HETATM   26  O   UNL     1      44.829  46.612  67.483  1.00  0.00    -0.388 OA
HETATM   27  C   UNL     1      43.617  45.955  67.897  1.00  0.00     0.187 C 
HETATM   28  O   UNL     1      42.000  46.018  63.649  1.00  0.00    -0.267 OA
ENDBRANCH   2  21
BRANCH   2  29
HETATM   29  C   UNL     1      40.354  43.541  64.713  1.00  0.00     0.144 A 
HETATM   30  N   UNL     1      39.581  43.142  63.717  1.00  0.00    -0.228 NA
HETATM   31  C   UNL     1      39.742  41.782  63.621  1.00  0.00     0.086 A 
HETATM   32  C   UNL     1      40.604  41.316  64.601  1.00  0.00     0.062 A 
HETATM   33  C   UNL     1      39.191  40.874  62.706  1.00  0.00     0.034 A 
HETATM   34  N   UNL     1      40.966  42.443  65.288  1.00  0.00    -0.338 N 
HETATM   35  C   UNL     1      40.961  39.974  64.740  1.00  0.00     0.032 A 
HETATM   36  H   UNL     1      41.636  42.492  66.047  1.00  0.00     0.167 HD
HETATM   37  C   UNL     1      40.405  39.081  63.818  1.00  0.00     0.002 A 
HETATM   38  C   UNL     1      39.536  39.520  62.815  1.00  0.00     0.002 A 
ENDBRANCH   2  29
TORSDOF 8
ENDMDL
MODEL 9
REMARK VINA RESULT:      -8.3      3.206      5.762
REMARK  8 active torsions:
REMARK  status: ('A' for Active; 'I' for Inactive)
REMARK    1  A    between atoms: O_2  and  C_3 
REMARK    2  A    between atoms: C_3  and  C_4 
REMARK    3  A    between atoms: C_7  and  C_8 
REMARK    4  A    between atoms: C_8  and  O_9 
REMARK    5  A    between atoms: O_9  and  C_10 
REMARK    6  A    between atoms: C_11  and  C_12 
REMARK    7  A    between atoms: C_13  and  C_14 
REMARK    8  A    between atoms: C_13  and  C_22 
REMARK       I    between atoms: C_14  and  N_15 
ROOT
HETATM    1  C   UNL     1      22.207  44.643  47.246  1.00  0.00     0.035 C 
HETATM    2  C   UNL     1      22.483  45.365  48.351  1.00  0.00     0.079 C 
ENDROOT
BRANCH   1   3
HETATM    3  C   UNL     1      21.803  45.115  45.909  1.00  0.00    -0.002 A 
HETATM    4  C   UNL     1      20.531  45.663  45.696  1.00  0.00     0.079 A 
HETATM    5  C   UNL     1      20.112  46.016  44.408  1.00  0.00     0.037 A 
HETATM    6  C   UNL     1      20.979  45.860  43.327  1.00  0.00     0.003 A 
HETATM    7  C   UNL     1      22.251  45.331  43.528  1.00  0.00     0.001 A 
HETATM    8  C   UNL     1      22.656  44.947  44.809  1.00  0.00     0.014 A 
BRANCH   4   9
HETATM    9  O   UNL     1      19.667  45.755  46.757  1.00  0.00    -0.346 OA
BRANCH   9  10
HETATM   10  C   UNL     1      18.310  45.973  46.351  1.00  0.00     0.214 C 
BRANCH  10  11
HETATM   11  C   UNL     1      17.796  47.299  46.876  1.00  0.00    -0.034 A 
HETATM   12  C   UNL     1      18.143  48.482  46.208  1.00  0.00     0.010 A 
HETATM   13  C   UNL     1      17.673  49.719  46.658  1.00  0.00     0.018 A 
HETATM   14  C   UNL     1      16.844  49.794  47.785  1.00  0.00     0.039 A 
HETATM   15  C   UNL     1      16.482  48.616  48.447  1.00  0.00     0.018 A 
HETATM   16  C   UNL     1      16.951  47.380  47.992  1.00  0.00     0.010 A 
BRANCH  14  17
HETATM   17  C   UNL     1      16.379  51.135  48.233  1.00  0.00     0.292 C 
HETATM   18  O   UNL     1      15.799  51.925  47.507  1.00  0.00    -0.259 OA
BRANCH  17  19
HETATM   19  O   UNL     1      16.700  51.343  49.535  1.00  0.00    -0.323 OA
HETATM   20  C   UNL     1      16.713  52.718  49.918  1.00  0.00     0.213 C 
ENDBRANCH  17  19
ENDBRANCH  14  17
ENDBRANCH  10  11
ENDBRANCH   9  10
ENDBRANCH   4   9
ENDBRANCH   1   3
BRANCH   2  21
HETATM   21  C   UNL     1      22.874  44.615  49.599  1.00  0.00     0.257 C 
HETATM   22  N   UNL     1      24.079  44.877  50.224  1.00  0.00    -0.344 N 
HETATM   23  C   UNL     1      24.459  44.090  51.401  1.00  0.00     0.152 C 
HETATM   24  C   UNL     1      25.153  45.782  49.794  1.00  0.00     0.152 C 
HETATM   25  C   UNL     1      25.751  43.320  51.111  1.00  0.00     0.187 C 
HETATM   26  O   UNL     1      26.803  44.211  50.698  1.00  0.00    -0.388 OA
HETATM   27  C   UNL     1      26.424  44.961  49.528  1.00  0.00     0.187 C 
HETATM   28  O   UNL     1      22.058  43.819  50.077  1.00  0.00    -0.267 OA
ENDBRANCH   2  21
BRANCH   2  29
HETATM   29  C   UNL     1      22.216  46.769  48.439  1.00  0.00     0.144 A 
HETATM   30  N   UNL     1      22.802  47.818  47.886  1.00  0.00    -0.228 NA
HETATM   31  C   UNL     1      22.042  48.910  48.223  1.00  0.00     0.086 A 
HETATM   32  C   UNL     1      20.980  48.541  49.034  1.00  0.00     0.062 A 
HETATM   33  C   UNL     1      22.189  50.255  47.858  1.00  0.00     0.034 A 
HETATM   34  N   UNL     1      21.120  47.187  49.170  1.00  0.00    -0.338 N 
HETATM   35  C   UNL     1      20.034  49.443  49.524  1.00  0.00     0.032 A 
HETATM   36  H   UNL     1      20.484  46.565  49.657  1.00  0.00     0.167 HD
HETATM   37  C   UNL     1      20.195  50.782  49.148  1.00  0.00     0.002 A 
HETATM   38  C   UNL     1      21.252  51.184  48.327  1.00  0.00     0.002 A 
ENDBRANCH   2  29
TORSDOF 8
ENDMDL
MODEL 10
REMARK VINA RESULT:      -8.1      5.131     10.898
REMARK  8 active torsions:
REMARK  status: ('A' for Active; 'I' for Inactive)
REMARK    1  A    between atoms: O_2  and  C_3 
REMARK    2  A    between atoms: C_3  and  C_4 
REMARK    3  A    between atoms: C_7  and  C_8 
REMARK    4  A    between atoms: C_8  and  O_9 
REMARK    5  A    between atoms: O_9  and  C_10 
REMARK    6  A    between atoms: C_11  and  C_12 
REMARK    7  A    between atoms: C_13  and  C_14 
REMARK    8  A    between atoms: C_13  and  C_22 
REMARK       I    between atoms: C_14  and  N_15 
ROOT
HETATM    1  C   UNL     1      17.472  49.673  47.318  1.00  0.00     0.035 C 
HETATM    2  C   UNL     1      17.222  49.509  46.003  1.00  0.00     0.079 C 
ENDROOT
BRANCH   1   3
HETATM    3  C   UNL     1      17.068  50.778  48.207  1.00  0.00    -0.002 A 
HETATM    4  C   UNL     1      18.028  51.612  48.795  1.00  0.00     0.079 A 
HETATM    5  C   UNL     1      17.650  52.595  49.718  1.00  0.00     0.037 A 
HETATM    6  C   UNL     1      16.304  52.777  50.028  1.00  0.00     0.003 A 
HETATM    7  C   UNL     1      15.339  51.964  49.438  1.00  0.00     0.001 A 
HETATM    8  C   UNL     1      15.720  50.961  48.544  1.00  0.00     0.014 A 
BRANCH   4   9
HETATM    9  O   UNL     1      19.353  51.384  48.527  1.00  0.00    -0.346 OA
BRANCH   9  10
HETATM   10  C   UNL     1      19.941  50.421  49.411  1.00  0.00     0.214 C 
BRANCH  10  11
HETATM   11  C   UNL     1      21.417  50.248  49.115  1.00  0.00    -0.034 A 
HETATM   12  C   UNL     1      21.992  48.972  49.208  1.00  0.00     0.010 A 
HETATM   13  C   UNL     1      23.347  48.778  48.926  1.00  0.00     0.018 A 
HETATM   14  C   UNL     1      24.152  49.857  48.543  1.00  0.00     0.039 A 
HETATM   15  C   UNL     1      23.582  51.131  48.433  1.00  0.00     0.018 A 
HETATM   16  C   UNL     1      22.226  51.321  48.713  1.00  0.00     0.010 A 
BRANCH  14  17
HETATM   17  C   UNL     1      25.592  49.602  48.265  1.00  0.00     0.292 C 
HETATM   18  O   UNL     1      26.197  50.100  47.330  1.00  0.00    -0.259 OA
BRANCH  17  19
HETATM   19  O   UNL     1      26.112  48.745  49.180  1.00  0.00    -0.323 OA
HETATM   20  C   UNL     1      27.539  48.706  49.195  1.00  0.00     0.213 C 
ENDBRANCH  17  19
ENDBRANCH  14  17
ENDBRANCH  10  11
ENDBRANCH   9  10
ENDBRANCH   4   9
ENDBRANCH   1   3
BRANCH   2  21
HETATM   21  C   UNL     1      17.763  48.271  45.335  1.00  0.00     0.257 C 
HETATM   22  N   UNL     1      17.450  47.017  45.825  1.00  0.00    -0.344 N 
HETATM   23  C   UNL     1      18.040  45.835  45.191  1.00  0.00     0.152 C 
HETATM   24  C   UNL     1      16.678  46.673  47.026  1.00  0.00     0.152 C 
HETATM   25  C   UNL     1      18.902  45.081  46.209  1.00  0.00     0.187 C 
HETATM   26  O   UNL     1      18.139  44.738  47.380  1.00  0.00    -0.388 OA
HETATM   27  C   UNL     1      17.585  45.911  48.004  1.00  0.00     0.187 C 
HETATM   28  O   UNL     1      18.432  48.413  44.305  1.00  0.00    -0.267 OA
ENDBRANCH   2  21
BRANCH   2  29
HETATM   29  C   UNL     1      16.660  50.547  45.193  1.00  0.00     0.144 A 
HETATM   30  N   UNL     1      15.410  50.857  44.892  1.00  0.00    -0.228 NA
HETATM   31  C   UNL     1      15.461  52.028  44.178  1.00  0.00     0.086 A 
HETATM   32  C   UNL     1      16.772  52.439  43.995  1.00  0.00     0.062 A 
HETATM   33  C   UNL     1      14.420  52.812  43.661  1.00  0.00     0.034 A 
HETATM   34  N   UNL     1      17.512  51.479  44.632  1.00  0.00    -0.338 N 
HETATM   35  C   UNL     1      17.128  53.603  43.312  1.00  0.00     0.032 A 
HETATM   36  H   UNL     1      18.519  51.481  44.751  1.00  0.00     0.167 HD
HETATM   37  C   UNL     1      16.077  54.375  42.805  1.00  0.00     0.002 A 
HETATM   38  C   UNL     1      14.745  53.990  42.976  1.00  0.00     0.002 A 
ENDBRANCH   2  29
TORSDOF 8
ENDMDL
