MODEL 1
REMARK VINA RESULT:      -8.5      0.000      0.000
REMARK  7 active torsions:
REMARK  status: ('A' for Active; 'I' for Inactive)
REMARK    1  A    between atoms: C_2  and  C_3 
REMARK    2  A    between atoms: C_3  and  C_4 
REMARK    3  A    between atoms: C_8  and  C_9 
REMARK       I    between atoms: C_9  and  N_10 
REMARK    4  A    between atoms: N_10  and  C_11 
REMARK    5  A    between atoms: C_12  and  O_13 
REMARK    6  A    between atoms: O_13  and  C_14 
REMARK    7  A    between atoms: C_14  and  C_15 
ROOT
HETATM    1  C   UNL     1      26.797  44.817  52.461  1.00  0.00     0.113 C 
HETATM    2  C   UNL     1      26.758  44.840  54.012  1.00  0.00     0.144 C 
HETATM    3  C   UNL     1      26.901  46.278  54.526  1.00  0.00     0.034 C 
HETATM    4  C   UNL     1      25.840  47.202  53.938  1.00  0.00     0.003 C 
HETATM    5  C   UNL     1      25.827  47.154  52.416  1.00  0.00     0.002 C 
HETATM    6  C   UNL     1      25.693  45.725  51.896  1.00  0.00     0.028 C 
ENDROOT
BRANCH   1   7
HETATM    7  N   UNL     1      26.680  43.440  51.974  1.00  0.00    -0.349 N 
HETATM    8  C   UNL     1      27.069  43.084  50.703  1.00  0.00     0.270 C 
HETATM    9  O   UNL     1      27.392  43.903  49.847  1.00  0.00    -0.266 OA
HETATM   10  H   UNL     1      26.759  42.723  52.684  1.00  0.00     0.163 HD
BRANCH   8  11
HETATM   11  C   UNL     1      27.096  41.670  50.443  1.00  0.00     0.119 A 
HETATM   12  N   UNL     1      26.039  40.867  50.782  1.00  0.00    -0.273 N 
HETATM   13  N   UNL     1      26.209  39.573  50.470  1.00  0.00    -0.179 NA
HETATM   14  H   UNL     1      25.174  41.159  51.229  1.00  0.00     0.189 HD
HETATM   15  C   UNL     1      27.425  39.532  49.917  1.00  0.00     0.057 A 
HETATM   16  C   UNL     1      28.024  40.815  49.884  1.00  0.00     0.065 A 
BRANCH  15  17
HETATM   17  C   UNL     1      27.991  38.238  49.434  1.00  0.00     0.061 C 
BRANCH  17  18
HETATM   18  C   UNL     1      29.515  38.155  49.559  1.00  0.00     0.002 C 
HETATM   19  C   UNL     1      29.978  37.720  50.943  1.00  0.00     0.005 C 
ENDBRANCH  17  18
ENDBRANCH  15  17
ENDBRANCH   8  11
ENDBRANCH   1   7
BRANCH   2  20
HETATM   20  O   UNL     1      27.824  44.000  54.486  1.00  0.00    -0.379 OA
BRANCH  20  21
HETATM   21  C   UNL     1      29.125  44.559  54.296  1.00  0.00     0.206 C 
BRANCH  21  22
HETATM   22  C   UNL     1      29.937  44.520  55.568  1.00  0.00    -0.035 A 
HETATM   23  C   UNL     1      29.820  45.499  56.565  1.00  0.00     0.009 A 
HETATM   24  C   UNL     1      30.557  45.403  57.748  1.00  0.00     0.001 A 
HETATM   25  C   UNL     1      31.413  44.323  57.953  1.00  0.00     0.000 A 
HETATM   26  C   UNL     1      31.533  43.337  56.976  1.00  0.00     0.001 A 
HETATM   27  C   UNL     1      30.799  43.433  55.793  1.00  0.00     0.009 A 
ENDBRANCH  21  22
ENDBRANCH  20  21
ENDBRANCH   2  20
TORSDOF 7
ENDMDL
MODEL 2
REMARK VINA RESULT:      -8.4      3.016      6.580
REMARK  7 active torsions:
REMARK  status: ('A' for Active; 'I' for Inactive)
REMARK    1  A    between atoms: C_2  and  C_3 
REMARK    2  A    between atoms: C_3  and  C_4 
REMARK    3  A    between atoms: C_8  and  C_9 
REMARK       I    between atoms: C_9  and  N_10 
REMARK    4  A    between atoms: N_10  and  C_11 
REMARK    5  A    between atoms: C_12  and  O_13 
REMARK    6  A    between atoms: O_13  and  C_14 
REMARK    7  A    between atoms: C_14  and  C_15 
ROOT
HETATM    1  C   UNL     1      26.060  42.848  50.842  1.00  0.00     0.113 C 
HETATM    2  C   UNL     1      27.587  42.944  51.102  1.00  0.00     0.144 C 
HETATM    3  C   UNL     1      28.092  41.662  51.777  1.00  0.00     0.034 C 
HETATM    4  C   UNL     1      27.752  40.417  50.966  1.00  0.00     0.003 C 
HETATM    5  C   UNL     1      26.262  40.332  50.656  1.00  0.00     0.002 C 
HETATM    6  C   UNL     1      25.750  41.607  49.990  1.00  0.00     0.028 C 
ENDROOT
BRANCH   1   7
HETATM    7  N   UNL     1      25.577  44.080  50.215  1.00  0.00    -0.349 N 
HETATM    8  C   UNL     1      24.679  44.912  50.845  1.00  0.00     0.270 C 
HETATM    9  O   UNL     1      24.110  44.615  51.891  1.00  0.00    -0.266 OA
HETATM   10  H   UNL     1      26.226  44.523  49.576  1.00  0.00     0.163 HD
BRANCH   8  11
HETATM   11  C   UNL     1      24.465  46.182  50.203  1.00  0.00     0.119 A 
HETATM   12  N   UNL     1      23.267  46.481  49.609  1.00  0.00    -0.273 N 
HETATM   13  N   UNL     1      23.217  47.705  49.059  1.00  0.00    -0.179 NA
HETATM   14  H   UNL     1      22.450  45.881  49.555  1.00  0.00     0.189 HD
HETATM   15  C   UNL     1      24.430  48.215  49.297  1.00  0.00     0.057 A 
HETATM   16  C   UNL     1      25.250  47.299  50.001  1.00  0.00     0.065 A 
BRANCH  15  17
HETATM   17  C   UNL     1      24.777  49.588  48.825  1.00  0.00     0.061 C 
BRANCH  17  18
HETATM   18  C   UNL     1      23.712  50.208  47.918  1.00  0.00     0.002 C 
HETATM   19  C   UNL     1      22.810  51.196  48.644  1.00  0.00     0.005 C 
ENDBRANCH  17  18
ENDBRANCH  15  17
ENDBRANCH   8  11
ENDBRANCH   1   7
BRANCH   2  20
HETATM   20  O   UNL     1      27.816  44.101  51.922  1.00  0.00    -0.379 OA
BRANCH  20  21
HETATM   21  C   UNL     1      27.411  43.932  53.282  1.00  0.00     0.206 C 
BRANCH  21  22
HETATM   22  C   UNL     1      28.519  44.298  54.241  1.00  0.00    -0.035 A 
HETATM   23  C   UNL     1      28.531  45.508  54.949  1.00  0.00     0.009 A 
HETATM   24  C   UNL     1      29.551  45.790  55.860  1.00  0.00     0.001 A 
HETATM   25  C   UNL     1      30.567  44.862  56.082  1.00  0.00     0.000 A 
HETATM   26  C   UNL     1      30.564  43.651  55.394  1.00  0.00     0.001 A 
HETATM   27  C   UNL     1      29.547  43.370  54.481  1.00  0.00     0.009 A 
ENDBRANCH  21  22
ENDBRANCH  20  21
ENDBRANCH   2  20
TORSDOF 7
ENDMDL
MODEL 3
REMARK VINA RESULT:      -8.2      2.192      5.361
REMARK  7 active torsions:
REMARK  status: ('A' for Active; 'I' for Inactive)
REMARK    1  A    between atoms: C_2  and  C_3 
REMARK    2  A    between atoms: C_3  and  C_4 
REMARK    3  A    between atoms: C_8  and  C_9 
REMARK       I    between atoms: C_9  and  N_10 
REMARK    4  A    between atoms: N_10  and  C_11 
REMARK    5  A    between atoms: C_12  and  O_13 
REMARK    6  A    between atoms: O_13  and  C_14 
REMARK    7  A    between atoms: C_14  and  C_15 
ROOT
HETATM    1  C   UNL     1      28.877  43.521  54.537  1.00  0.00     0.113 C 
HETATM    2  C   UNL     1      28.525  45.001  54.840  1.00  0.00     0.144 C 
HETATM    3  C   UNL     1      29.121  45.423  56.189  1.00  0.00     0.034 C 
HETATM    4  C   UNL     1      30.628  45.198  56.243  1.00  0.00     0.003 C 
HETATM    5  C   UNL     1      30.998  43.761  55.896  1.00  0.00     0.002 C 
HETATM    6  C   UNL     1      30.402  43.330  54.559  1.00  0.00     0.028 C 
ENDROOT
BRANCH   1   7
HETATM    7  N   UNL     1      28.291  43.115  53.257  1.00  0.00    -0.349 N 
HETATM    8  C   UNL     1      28.057  41.793  52.953  1.00  0.00     0.270 C 
HETATM    9  O   UNL     1      28.455  40.864  53.649  1.00  0.00    -0.266 OA
HETATM   10  H   UNL     1      27.663  43.789  52.837  1.00  0.00     0.163 HD
BRANCH   8  11
HETATM   11  C   UNL     1      27.285  41.565  51.761  1.00  0.00     0.119 A 
HETATM   12  N   UNL     1      26.624  40.382  51.561  1.00  0.00    -0.273 N 
HETATM   13  N   UNL     1      25.942  40.322  50.405  1.00  0.00    -0.179 NA
HETATM   14  H   UNL     1      26.606  39.584  52.188  1.00  0.00     0.189 HD
HETATM   15  C   UNL     1      26.177  41.506  49.831  1.00  0.00     0.057 A 
HETATM   16  C   UNL     1      27.017  42.316  50.633  1.00  0.00     0.065 A 
BRANCH  15  17
HETATM   17  C   UNL     1      25.584  41.829  48.499  1.00  0.00     0.061 C 
BRANCH  17  18
HETATM   18  C   UNL     1      24.151  41.319  48.330  1.00  0.00     0.002 C 
HETATM   19  C   UNL     1      23.119  42.192  49.031  1.00  0.00     0.005 C 
ENDBRANCH  17  18
ENDBRANCH  15  17
ENDBRANCH   8  11
ENDBRANCH   1   7
BRANCH   2  20
HETATM   20  O   UNL     1      27.093  45.117  54.834  1.00  0.00    -0.379 OA
BRANCH  20  21
HETATM   21  C   UNL     1      26.616  46.333  54.255  1.00  0.00     0.206 C 
BRANCH  21  22
HETATM   22  C   UNL     1      25.901  46.083  52.948  1.00  0.00    -0.035 A 
HETATM   23  C   UNL     1      25.174  44.910  52.702  1.00  0.00     0.009 A 
HETATM   24  C   UNL     1      24.490  44.736  51.497  1.00  0.00     0.001 A 
HETATM   25  C   UNL     1      24.516  45.736  50.526  1.00  0.00     0.000 A 
HETATM   26  C   UNL     1      25.226  46.912  50.760  1.00  0.00     0.001 A 
HETATM   27  C   UNL     1      25.912  47.085  51.963  1.00  0.00     0.009 A 
ENDBRANCH  21  22
ENDBRANCH  20  21
ENDBRANCH   2  20
TORSDOF 7
ENDMDL
MODEL 4
REMARK VINA RESULT:      -8.0      1.690      4.939
REMARK  7 active torsions:
REMARK  status: ('A' for Active; 'I' for Inactive)
REMARK    1  A    between atoms: C_2  and  C_3 
REMARK    2  A    between atoms: C_3  and  C_4 
REMARK    3  A    between atoms: C_8  and  C_9 
REMARK       I    between atoms: C_9  and  N_10 
REMARK    4  A    between atoms: N_10  and  C_11 
REMARK    5  A    between atoms: C_12  and  O_13 
REMARK    6  A    between atoms: O_13  and  C_14 
REMARK    7  A    between atoms: C_14  and  C_15 
ROOT
HETATM    1  C   UNL     1      29.076  43.281  54.432  1.00  0.00     0.113 C 
HETATM    2  C   UNL     1      28.558  44.744  54.427  1.00  0.00     0.144 C 
HETATM    3  C   UNL     1      28.880  45.426  55.763  1.00  0.00     0.034 C 
HETATM    4  C   UNL     1      30.370  45.374  56.085  1.00  0.00     0.003 C 
HETATM    5  C   UNL     1      30.909  43.949  56.044  1.00  0.00     0.002 C 
HETATM    6  C   UNL     1      30.585  43.261  54.721  1.00  0.00     0.028 C 
ENDROOT
BRANCH   1   7
HETATM    7  N   UNL     1      28.749  42.626  53.163  1.00  0.00    -0.349 N 
HETATM    8  C   UNL     1      28.009  41.467  53.114  1.00  0.00     0.270 C 
HETATM    9  O   UNL     1      27.704  40.823  54.114  1.00  0.00    -0.266 OA
HETATM   10  H   UNL     1      28.665  43.246  52.367  1.00  0.00     0.163 HD
BRANCH   8  11
HETATM   11  C   UNL     1      27.589  41.062  51.799  1.00  0.00     0.119 A 
HETATM   12  N   UNL     1      26.370  40.471  51.596  1.00  0.00    -0.273 N 
HETATM   13  N   UNL     1      26.118  40.157  50.315  1.00  0.00    -0.179 NA
HETATM   14  H   UNL     1      25.671  40.263  52.303  1.00  0.00     0.189 HD
HETATM   15  C   UNL     1      27.218  40.550  49.664  1.00  0.00     0.057 A 
HETATM   16  C   UNL     1      28.171  41.114  50.548  1.00  0.00     0.065 A 
BRANCH  15  17
HETATM   17  C   UNL     1      27.330  40.362  48.188  1.00  0.00     0.061 C 
BRANCH  17  18
HETATM   18  C   UNL     1      28.465  39.421  47.777  1.00  0.00     0.002 C 
HETATM   19  C   UNL     1      28.332  38.026  48.374  1.00  0.00     0.005 C 
ENDBRANCH  17  18
ENDBRANCH  15  17
ENDBRANCH   8  11
ENDBRANCH   1   7
BRANCH   2  20
HETATM   20  O   UNL     1      27.143  44.703  54.181  1.00  0.00    -0.379 OA
BRANCH  20  21
HETATM   21  C   UNL     1      26.711  45.602  53.158  1.00  0.00     0.206 C 
BRANCH  21  22
HETATM   22  C   UNL     1      26.188  44.860  51.951  1.00  0.00    -0.035 A 
HETATM   23  C   UNL     1      24.943  44.216  51.946  1.00  0.00     0.009 A 
HETATM   24  C   UNL     1      24.476  43.578  50.794  1.00  0.00     0.001 A 
HETATM   25  C   UNL     1      25.243  43.584  49.631  1.00  0.00     0.000 A 
HETATM   26  C   UNL     1      26.478  44.229  49.617  1.00  0.00     0.001 A 
HETATM   27  C   UNL     1      26.946  44.864  50.768  1.00  0.00     0.009 A 
ENDBRANCH  21  22
ENDBRANCH  20  21
ENDBRANCH   2  20
TORSDOF 7
ENDMDL
MODEL 5
REMARK VINA RESULT:      -7.9      2.723      6.097
REMARK  7 active torsions:
REMARK  status: ('A' for Active; 'I' for Inactive)
REMARK    1  A    between atoms: C_2  and  C_3 
REMARK    2  A    between atoms: C_3  and  C_4 
REMARK    3  A    between atoms: C_8  and  C_9 
REMARK       I    between atoms: C_9  and  N_10 
REMARK    4  A    between atoms: N_10  and  C_11 
REMARK    5  A    between atoms: C_12  and  O_13 
REMARK    6  A    between atoms: O_13  and  C_14 
REMARK    7  A    between atoms: C_14  and  C_15 
ROOT
HETATM    1  C   UNL     1      29.258  45.589  55.924  1.00  0.00     0.113 C 
HETATM    2  C   UNL     1      30.131  44.306  55.928  1.00  0.00     0.144 C 
HETATM    3  C   UNL     1      31.368  44.508  56.812  1.00  0.00     0.034 C 
HETATM    4  C   UNL     1      30.995  44.920  58.231  1.00  0.00     0.003 C 
HETATM    5  C   UNL     1      30.094  46.149  58.246  1.00  0.00     0.002 C 
HETATM    6  C   UNL     1      28.864  45.959  57.363  1.00  0.00     0.028 C 
ENDROOT
BRANCH   1   7
HETATM    7  N   UNL     1      28.088  45.400  55.064  1.00  0.00    -0.349 N 
HETATM    8  C   UNL     1      27.487  46.453  54.413  1.00  0.00     0.270 C 
HETATM    9  O   UNL     1      27.784  47.626  54.620  1.00  0.00    -0.266 OA
HETATM   10  H   UNL     1      28.030  44.499  54.606  1.00  0.00     0.163 HD
BRANCH   8  11
HETATM   11  C   UNL     1      26.490  46.087  53.443  1.00  0.00     0.119 A 
HETATM   12  N   UNL     1      25.607  45.069  53.685  1.00  0.00    -0.273 N 
HETATM   13  N   UNL     1      24.733  44.850  52.689  1.00  0.00    -0.179 NA
HETATM   14  H   UNL     1      25.559  44.493  54.520  1.00  0.00     0.189 HD
HETATM   15  C   UNL     1      25.068  45.754  51.763  1.00  0.00     0.057 A 
HETATM   16  C   UNL     1      26.165  46.546  52.182  1.00  0.00     0.065 A 
BRANCH  15  17
HETATM   17  C   UNL     1      24.318  45.828  50.475  1.00  0.00     0.061 C 
BRANCH  17  18
HETATM   18  C   UNL     1      24.976  45.039  49.340  1.00  0.00     0.002 C 
HETATM   19  C   UNL     1      23.971  44.313  48.456  1.00  0.00     0.005 C 
ENDBRANCH  17  18
ENDBRANCH  15  17
ENDBRANCH   8  11
ENDBRANCH   1   7
BRANCH   2  20
HETATM   20  O   UNL     1      30.493  44.022  54.567  1.00  0.00    -0.379 OA
BRANCH  20  21
HETATM   21  C   UNL     1      30.352  42.646  54.209  1.00  0.00     0.206 C 
BRANCH  21  22
HETATM   22  C   UNL     1      29.274  42.449  53.170  1.00  0.00    -0.035 A 
HETATM   23  C   UNL     1      28.565  41.247  53.041  1.00  0.00     0.009 A 
HETATM   24  C   UNL     1      27.544  41.120  52.096  1.00  0.00     0.001 A 
HETATM   25  C   UNL     1      27.213  42.196  51.274  1.00  0.00     0.000 A 
HETATM   26  C   UNL     1      27.902  43.401  51.398  1.00  0.00     0.001 A 
HETATM   27  C   UNL     1      28.924  43.527  52.340  1.00  0.00     0.009 A 
ENDBRANCH  21  22
ENDBRANCH  20  21
ENDBRANCH   2  20
TORSDOF 7
ENDMDL
MODEL 6
REMARK VINA RESULT:      -7.7      6.940     11.803
REMARK  7 active torsions:
REMARK  status: ('A' for Active; 'I' for Inactive)
REMARK    1  A    between atoms: C_2  and  C_3 
REMARK    2  A    between atoms: C_3  and  C_4 
REMARK    3  A    between atoms: C_8  and  C_9 
REMARK       I    between atoms: C_9  and  N_10 
REMARK    4  A    between atoms: N_10  and  C_11 
REMARK    5  A    between atoms: C_12  and  O_13 
REMARK    6  A    between atoms: O_13  and  C_14 
REMARK    7  A    between atoms: C_14  and  C_15 
ROOT
HETATM    1  C   UNL     1      24.224  47.222  49.707  1.00  0.00     0.113 C 
HETATM    2  C   UNL     1      23.597  45.840  49.380  1.00  0.00     0.144 C 
HETATM    3  C   UNL     1      24.696  44.781  49.231  1.00  0.00     0.034 C 
HETATM    4  C   UNL     1      25.582  44.699  50.469  1.00  0.00     0.003 C 
HETATM    5  C   UNL     1      26.166  46.058  50.838  1.00  0.00     0.002 C 
HETATM    6  C   UNL     1      25.080  47.120  50.980  1.00  0.00     0.028 C 
ENDROOT
BRANCH   1   7
HETATM    7  N   UNL     1      23.174  48.236  49.830  1.00  0.00    -0.349 N 
HETATM    8  C   UNL     1      23.229  49.425  49.139  1.00  0.00     0.270 C 
HETATM    9  O   UNL     1      24.214  49.785  48.502  1.00  0.00    -0.266 OA
HETATM   10  H   UNL     1      22.249  47.877  50.031  1.00  0.00     0.163 HD
BRANCH   8  11
HETATM   11  C   UNL     1      22.032  50.221  49.192  1.00  0.00     0.119 A 
HETATM   12  N   UNL     1      21.296  50.317  50.344  1.00  0.00    -0.273 N 
HETATM   13  N   UNL     1      20.211  51.101  50.239  1.00  0.00    -0.179 NA
HETATM   14  H   UNL     1      21.497  49.865  51.231  1.00  0.00     0.189 HD
HETATM   15  C   UNL     1      20.240  51.522  48.970  1.00  0.00     0.057 A 
HETATM   16  C   UNL     1      21.353  50.994  48.272  1.00  0.00     0.065 A 
BRANCH  15  17
HETATM   17  C   UNL     1      19.173  52.430  48.452  1.00  0.00     0.061 C 
BRANCH  17  18
HETATM   18  C   UNL     1      17.755  51.925  48.731  1.00  0.00     0.002 C 
HETATM   19  C   UNL     1      17.047  52.706  49.829  1.00  0.00     0.005 C 
ENDBRANCH  17  18
ENDBRANCH  15  17
ENDBRANCH   8  11
ENDBRANCH   1   7
BRANCH   2  20
HETATM   20  O   UNL     1      22.834  45.986  48.171  1.00  0.00    -0.379 OA
BRANCH  20  21
HETATM   21  C   UNL     1      21.484  45.530  48.285  1.00  0.00     0.206 C 
BRANCH  21  22
HETATM   22  C   UNL     1      20.498  46.634  47.984  1.00  0.00    -0.035 A 
HETATM   23  C   UNL     1      20.329  47.158  46.695  1.00  0.00     0.009 A 
HETATM   24  C   UNL     1      19.374  48.148  46.449  1.00  0.00     0.001 A 
HETATM   25  C   UNL     1      18.571  48.619  47.485  1.00  0.00     0.000 A 
HETATM   26  C   UNL     1      18.720  48.100  48.770  1.00  0.00     0.001 A 
HETATM   27  C   UNL     1      19.676  47.113  49.017  1.00  0.00     0.009 A 
ENDBRANCH  21  22
ENDBRANCH  20  21
ENDBRANCH   2  20
TORSDOF 7
ENDMDL
MODEL 7
REMARK VINA RESULT:      -7.6     13.691     15.152
REMARK  7 active torsions:
REMARK  status: ('A' for Active; 'I' for Inactive)
REMARK    1  A    between atoms: C_2  and  C_3 
REMARK    2  A    between atoms: C_3  and  C_4 
REMARK    3  A    between atoms: C_8  and  C_9 
REMARK       I    between atoms: C_9  and  N_10 
REMARK    4  A    between atoms: N_10  and  C_11 
REMARK    5  A    between atoms: C_12  and  O_13 
REMARK    6  A    between atoms: O_13  and  C_14 
REMARK    7  A    between atoms: C_14  and  C_15 
ROOT
HETATM    1  C   UNL     1      34.060  49.945  41.687  1.00  0.00     0.113 C 
HETATM    2  C   UNL     1      33.712  51.246  42.457  1.00  0.00     0.144 C 
HETATM    3  C   UNL     1      34.901  51.686  43.320  1.00  0.00     0.034 C 
HETATM    4  C   UNL     1      36.171  51.863  42.494  1.00  0.00     0.003 C 
HETATM    5  C   UNL     1      36.501  50.612  41.688  1.00  0.00     0.002 C 
HETATM    6  C   UNL     1      35.319  50.162  40.833  1.00  0.00     0.028 C 
ENDROOT
BRANCH   1   7
HETATM    7  N   UNL     1      32.915  49.515  40.879  1.00  0.00    -0.349 N 
HETATM    8  C   UNL     1      32.485  48.208  40.866  1.00  0.00     0.270 C 
HETATM    9  O   UNL     1      33.107  47.293  41.398  1.00  0.00    -0.266 OA
HETATM   10  H   UNL     1      32.207  50.222  40.725  1.00  0.00     0.163 HD
BRANCH   8  11
HETATM   11  C   UNL     1      31.230  47.982  40.201  1.00  0.00     0.119 A 
HETATM   12  N   UNL     1      31.133  48.033  38.836  1.00  0.00    -0.273 N 
HETATM   13  N   UNL     1      29.899  47.794  38.363  1.00  0.00    -0.179 NA
HETATM   14  H   UNL     1      31.885  48.227  38.181  1.00  0.00     0.189 HD
HETATM   15  C   UNL     1      29.167  47.589  39.462  1.00  0.00     0.057 A 
HETATM   16  C   UNL     1      29.950  47.704  40.637  1.00  0.00     0.065 A 
BRANCH  15  17
HETATM   17  C   UNL     1      27.708  47.292  39.353  1.00  0.00     0.061 C 
BRANCH  17  18
HETATM   18  C   UNL     1      26.816  48.500  39.648  1.00  0.00     0.002 C 
HETATM   19  C   UNL     1      26.694  49.456  38.469  1.00  0.00     0.005 C 
ENDBRANCH  17  18
ENDBRANCH  15  17
ENDBRANCH   8  11
ENDBRANCH   1   7
BRANCH   2  20
HETATM   20  O   UNL     1      32.548  50.979  43.256  1.00  0.00    -0.379 OA
BRANCH  20  21
HETATM   21  C   UNL     1      31.673  52.101  43.391  1.00  0.00     0.206 C 
BRANCH  21  22
HETATM   22  C   UNL     1      30.791  52.266  42.176  1.00  0.00    -0.035 A 
HETATM   23  C   UNL     1      30.820  53.419  41.378  1.00  0.00     0.009 A 
HETATM   24  C   UNL     1      30.020  53.514  40.237  1.00  0.00     0.001 A 
HETATM   25  C   UNL     1      29.188  52.457  39.875  1.00  0.00     0.000 A 
HETATM   26  C   UNL     1      29.156  51.301  40.652  1.00  0.00     0.001 A 
HETATM   27  C   UNL     1      29.953  51.206  41.794  1.00  0.00     0.009 A 
ENDBRANCH  21  22
ENDBRANCH  20  21
ENDBRANCH   2  20
TORSDOF 7
ENDMDL
MODEL 8
REMARK VINA RESULT:      -7.6      1.533      1.884
REMARK  7 active torsions:
REMARK  status: ('A' for Active; 'I' for Inactive)
REMARK    1  A    between atoms: C_2  and  C_3 
REMARK    2  A    between atoms: C_3  and  C_4 
REMARK    3  A    between atoms: C_8  and  C_9 
REMARK       I    between atoms: C_9  and  N_10 
REMARK    4  A    between atoms: N_10  and  C_11 
REMARK    5  A    between atoms: C_12  and  O_13 
REMARK    6  A    between atoms: O_13  and  C_14 
REMARK    7  A    between atoms: C_14  and  C_15 
ROOT
HETATM    1  C   UNL     1      27.533  44.462  51.347  1.00  0.00     0.113 C 
HETATM    2  C   UNL     1      27.073  44.590  52.823  1.00  0.00     0.144 C 
HETATM    3  C   UNL     1      26.502  45.990  53.082  1.00  0.00     0.034 C 
HETATM    4  C   UNL     1      25.366  46.329  52.123  1.00  0.00     0.003 C 
HETATM    5  C   UNL     1      25.782  46.158  50.668  1.00  0.00     0.002 C 
HETATM    6  C   UNL     1      26.359  44.770  50.404  1.00  0.00     0.028 C 
ENDROOT
BRANCH   1   7
HETATM    7  N   UNL     1      28.096  43.131  51.107  1.00  0.00    -0.349 N 
HETATM    8  C   UNL     1      27.299  42.015  50.989  1.00  0.00     0.270 C 
HETATM    9  O   UNL     1      26.094  42.025  51.223  1.00  0.00    -0.266 OA
HETATM   10  H   UNL     1      28.965  43.117  50.589  1.00  0.00     0.163 HD
BRANCH   8  11
HETATM   11  C   UNL     1      27.972  40.825  50.544  1.00  0.00     0.119 A 
HETATM   12  N   UNL     1      28.698  40.055  51.414  1.00  0.00    -0.273 N 
HETATM   13  N   UNL     1      29.261  38.973  50.853  1.00  0.00    -0.179 NA
HETATM   14  H   UNL     1      28.838  40.227  52.406  1.00  0.00     0.189 HD
HETATM   15  C   UNL     1      28.894  39.049  49.569  1.00  0.00     0.057 A 
HETATM   16  C   UNL     1      28.095  40.191  49.324  1.00  0.00     0.065 A 
BRANCH  15  17
HETATM   17  C   UNL     1      29.336  38.007  48.596  1.00  0.00     0.061 C 
BRANCH  17  18
HETATM   18  C   UNL     1      28.220  37.533  47.662  1.00  0.00     0.002 C 
HETATM   19  C   UNL     1      28.417  37.978  46.220  1.00  0.00     0.005 C 
ENDBRANCH  17  18
ENDBRANCH  15  17
ENDBRANCH   8  11
ENDBRANCH   1   7
BRANCH   2  20
HETATM   20  O   UNL     1      28.212  44.320  53.658  1.00  0.00    -0.379 OA
BRANCH  20  21
HETATM   21  C   UNL     1      28.472  45.341  54.623  1.00  0.00     0.206 C 
BRANCH  21  22
HETATM   22  C   UNL     1      29.522  44.908  55.619  1.00  0.00    -0.035 A 
HETATM   23  C   UNL     1      29.770  45.615  56.804  1.00  0.00     0.009 A 
HETATM   24  C   UNL     1      30.718  45.157  57.721  1.00  0.00     0.001 A 
HETATM   25  C   UNL     1      31.424  43.982  57.470  1.00  0.00     0.000 A 
HETATM   26  C   UNL     1      31.182  43.263  56.302  1.00  0.00     0.001 A 
HETATM   27  C   UNL     1      30.236  43.721  55.384  1.00  0.00     0.009 A 
ENDBRANCH  21  22
ENDBRANCH  20  21
ENDBRANCH   2  20
TORSDOF 7
ENDMDL
MODEL 9
REMARK VINA RESULT:      -7.5     13.118     15.723
REMARK  7 active torsions:
REMARK  status: ('A' for Active; 'I' for Inactive)
REMARK    1  A    between atoms: C_2  and  C_3 
REMARK    2  A    between atoms: C_3  and  C_4 
REMARK    3  A    between atoms: C_8  and  C_9 
REMARK       I    between atoms: C_9  and  N_10 
REMARK    4  A    between atoms: N_10  and  C_11 
REMARK    5  A    between atoms: C_12  and  O_13 
REMARK    6  A    between atoms: O_13  and  C_14 
REMARK    7  A    between atoms: C_14  and  C_15 
ROOT
HETATM    1  C   UNL     1      28.001  47.408  39.399  1.00  0.00     0.113 C 
HETATM    2  C   UNL     1      26.871  48.378  38.962  1.00  0.00     0.144 C 
HETATM    3  C   UNL     1      25.728  47.597  38.301  1.00  0.00     0.034 C 
HETATM    4  C   UNL     1      25.186  46.499  39.209  1.00  0.00     0.003 C 
HETATM    5  C   UNL     1      26.290  45.567  39.692  1.00  0.00     0.002 C 
HETATM    6  C   UNL     1      27.435  46.336  40.344  1.00  0.00     0.028 C 
ENDROOT
BRANCH   1   7
HETATM    7  N   UNL     1      29.100  48.158  40.013  1.00  0.00    -0.349 N 
HETATM    8  C   UNL     1      30.312  48.318  39.380  1.00  0.00     0.270 C 
HETATM    9  O   UNL     1      30.611  47.729  38.346  1.00  0.00    -0.266 OA
HETATM   10  H   UNL     1      28.817  48.905  40.636  1.00  0.00     0.163 HD
BRANCH   8  11
HETATM   11  C   UNL     1      31.210  49.252  40.004  1.00  0.00     0.119 A 
HETATM   12  N   UNL     1      32.117  49.964  39.264  1.00  0.00    -0.273 N 
HETATM   13  N   UNL     1      32.881  50.799  39.987  1.00  0.00    -0.179 NA
HETATM   14  H   UNL     1      32.251  49.916  38.259  1.00  0.00     0.189 HD
HETATM   15  C   UNL     1      32.461  50.615  41.243  1.00  0.00     0.057 A 
HETATM   16  C   UNL     1      31.425  49.652  41.308  1.00  0.00     0.065 A 
BRANCH  15  17
HETATM   17  C   UNL     1      33.084  51.376  42.366  1.00  0.00     0.061 C 
BRANCH  17  18
HETATM   18  C   UNL     1      32.213  51.427  43.624  1.00  0.00     0.002 C 
HETATM   19  C   UNL     1      32.922  52.055  44.816  1.00  0.00     0.005 C 
ENDBRANCH  17  18
ENDBRANCH  15  17
ENDBRANCH   8  11
ENDBRANCH   1   7
BRANCH   2  20
HETATM   20  O   UNL     1      27.447  49.338  38.062  1.00  0.00    -0.379 OA
BRANCH  20  21
HETATM   21  C   UNL     1      27.004  50.678  38.291  1.00  0.00     0.206 C 
BRANCH  21  22
HETATM   22  C   UNL     1      27.943  51.423  39.211  1.00  0.00    -0.035 A 
HETATM   23  C   UNL     1      29.054  52.132  38.736  1.00  0.00     0.009 A 
HETATM   24  C   UNL     1      29.873  52.846  39.615  1.00  0.00     0.001 A 
HETATM   25  C   UNL     1      29.585  52.866  40.978  1.00  0.00     0.000 A 
HETATM   26  C   UNL     1      28.478  52.174  41.465  1.00  0.00     0.001 A 
HETATM   27  C   UNL     1      27.662  51.459  40.587  1.00  0.00     0.009 A 
ENDBRANCH  21  22
ENDBRANCH  20  21
ENDBRANCH   2  20
TORSDOF 7
ENDMDL
MODEL 10
REMARK VINA RESULT:      -7.5     13.106     15.697
REMARK  7 active torsions:
REMARK  status: ('A' for Active; 'I' for Inactive)
REMARK    1  A    between atoms: C_2  and  C_3 
REMARK    2  A    between atoms: C_3  and  C_4 
REMARK    3  A    between atoms: C_8  and  C_9 
REMARK       I    between atoms: C_9  and  N_10 
REMARK    4  A    between atoms: N_10  and  C_11 
REMARK    5  A    between atoms: C_12  and  O_13 
REMARK    6  A    between atoms: O_13  and  C_14 
REMARK    7  A    between atoms: C_14  and  C_15 
ROOT
HETATM    1  C   UNL     1      30.060  48.349  40.551  1.00  0.00     0.113 C 
HETATM    2  C   UNL     1      28.970  48.162  41.640  1.00  0.00     0.144 C 
HETATM    3  C   UNL     1      27.722  47.506  41.035  1.00  0.00     0.034 C 
HETATM    4  C   UNL     1      28.048  46.182  40.353  1.00  0.00     0.003 C 
HETATM    5  C   UNL     1      29.154  46.335  39.316  1.00  0.00     0.002 C 
HETATM    6  C   UNL     1      30.396  46.994  39.908  1.00  0.00     0.028 C 
ENDROOT
BRANCH   1   7
HETATM    7  N   UNL     1      31.243  48.994  41.127  1.00  0.00    -0.349 N 
HETATM    8  C   UNL     1      31.800  50.121  40.567  1.00  0.00     0.270 C 
HETATM    9  O   UNL     1      31.452  50.572  39.480  1.00  0.00    -0.266 OA
HETATM   10  H   UNL     1      31.342  48.895  42.130  1.00  0.00     0.163 HD
BRANCH   8  11
HETATM   11  C   UNL     1      32.818  50.759  41.358  1.00  0.00     0.119 A 
HETATM   12  N   UNL     1      33.874  51.403  40.768  1.00  0.00    -0.273 N 
HETATM   13  N   UNL     1      34.736  51.955  41.636  1.00  0.00    -0.179 NA
HETATM   14  H   UNL     1      34.048  51.494  39.771  1.00  0.00     0.189 HD
HETATM   15  C   UNL     1      34.226  51.651  42.834  1.00  0.00     0.057 A 
HETATM   16  C   UNL     1      33.032  50.897  42.715  1.00  0.00     0.065 A 
BRANCH  15  17
HETATM   17  C   UNL     1      34.915  52.093  44.082  1.00  0.00     0.061 C 
BRANCH  17  18
HETATM   18  C   UNL     1      36.267  52.765  43.827  1.00  0.00     0.002 C 
HETATM   19  C   UNL     1      37.303  52.451  44.897  1.00  0.00     0.005 C 
ENDBRANCH  17  18
ENDBRANCH  15  17
ENDBRANCH   8  11
ENDBRANCH   1   7
BRANCH   2  20
HETATM   20  O   UNL     1      28.675  49.458  42.186  1.00  0.00    -0.379 OA
BRANCH  20  21
HETATM   21  C   UNL     1      27.596  50.127  41.531  1.00  0.00     0.206 C 
BRANCH  21  22
HETATM   22  C   UNL     1      28.091  51.249  40.650  1.00  0.00    -0.035 A 
HETATM   23  C   UNL     1      28.799  52.347  41.158  1.00  0.00     0.009 A 
HETATM   24  C   UNL     1      29.278  53.342  40.303  1.00  0.00     0.001 A 
HETATM   25  C   UNL     1      29.064  53.248  38.930  1.00  0.00     0.000 A 
HETATM   26  C   UNL     1      28.371  52.158  38.408  1.00  0.00     0.001 A 
HETATM   27  C   UNL     1      27.889  51.165  39.262  1.00  0.00     0.009 A 
ENDBRANCH  21  22
ENDBRANCH  20  21
ENDBRANCH   2  20
TORSDOF 7
ENDMDL
