MODEL 1
REMARK VINA RESULT:      -8.6      0.000      0.000
REMARK  8 active torsions:
REMARK  status: ('A' for Active; 'I' for Inactive)
REMARK    1  A    between atoms: N_2  and  C_3 
REMARK    2  A    between atoms: C_6  and  C_7 
REMARK    3  A    between atoms: N_8  and  C_9 
REMARK    4  A    between atoms: C_9  and  C_10 
REMARK    5  A    between atoms: C_14  and  N_15 
REMARK    6  A    between atoms: C_17  and  N_18 
REMARK    7  A    between atoms: C_19  and  C_20 
REMARK    8  A    between atoms: C_26  and  C_27 
ROOT
HETATM    1  C   UNL     1      20.880  49.448  48.964  1.00  0.00     0.141 A 
HETATM    2  N   UNL     1      20.766  48.079  48.792  1.00  0.00    -0.324 N 
HETATM    3  C   UNL     1      22.052  47.550  48.688  1.00  0.00     0.076 A 
HETATM    4  C   UNL     1      22.882  48.646  48.888  1.00  0.00     0.097 A 
HETATM    5  N   UNL     1      22.148  49.798  48.987  1.00  0.00    -0.227 NA
ENDROOT
BRANCH   2   6
HETATM    6  C   UNL     1      19.509  47.329  48.811  1.00  0.00     0.178 C 
BRANCH   6   7
HETATM    7  C   UNL     1      19.012  46.745  47.522  1.00  0.00     0.068 A 
HETATM    8  C   UNL     1      18.876  45.268  47.538  1.00  0.00     0.259 A 
HETATM    9  O   UNL     1      19.194  44.586  48.508  1.00  0.00    -0.267 OA
HETATM   10  N   UNL     1      18.347  44.701  46.423  1.00  0.00    -0.298 N 
HETATM   11  C   UNL     1      17.934  45.442  45.370  1.00  0.00     0.181 A 
HETATM   12  H   UNL     1      18.193  43.708  46.449  1.00  0.00     0.171 HD
HETATM   13  N   UNL     1      18.053  46.726  45.333  1.00  0.00    -0.208 NA
HETATM   14  C   UNL     1      18.585  47.386  46.413  1.00  0.00     0.117 A 
BRANCH  11  15
HETATM   15  N   UNL     1      17.384  44.765  44.333  1.00  0.00    -0.272 NA
HETATM   16  H   UNL     1      17.784  43.864  44.110  1.00  0.00     0.127 HD
HETATM   17  H   UNL     1      17.256  45.356  43.518  1.00  0.00     0.127 HD
ENDBRANCH  11  15
BRANCH  14  18
HETATM   18  N   UNL     1      18.615  48.762  46.314  1.00  0.00    -0.286 NA
HETATM   19  H   UNL     1      18.292  49.217  47.164  1.00  0.00     0.125 HD
HETATM   20  H   UNL     1      19.580  49.031  46.133  1.00  0.00     0.125 HD
ENDBRANCH  14  18
ENDBRANCH   6   7
ENDBRANCH   2   6
BRANCH   1  21
HETATM   21  C   UNL     1      19.793  50.418  49.073  1.00  0.00     0.010 A 
HETATM   22  C   UNL     1      19.790  51.615  48.360  1.00  0.00     0.017 A 
HETATM   23  C   UNL     1      18.680  52.475  48.419  1.00  0.00     0.030 A 
HETATM   24  C   UNL     1      17.523  52.165  49.157  1.00  0.00     0.029 A 
HETATM   25  C   UNL     1      17.568  50.965  49.887  1.00  0.00     0.030 A 
HETATM   26  C   UNL     1      18.672  50.102  49.839  1.00  0.00     0.017 A 
BRANCH  24  27
HETATM   27  N   UNL     1      16.408  53.016  49.187  1.00  0.00    -0.390 N 
HETATM   28  C   UNL     1      15.362  52.817  48.183  1.00  0.00     0.149 C 
HETATM   29  C   UNL     1      15.936  53.501  50.484  1.00  0.00     0.149 C 
ENDBRANCH  24  27
ENDBRANCH   1  21
BRANCH   3  30
HETATM   30  C   UNL     1      22.373  46.167  48.333  1.00  0.00    -0.007 A 
HETATM   31  C   UNL     1      22.428  45.804  46.979  1.00  0.00     0.014 A 
HETATM   32  C   UNL     1      22.745  44.499  46.602  1.00  0.00     0.001 A 
HETATM   33  C   UNL     1      23.009  43.541  47.579  1.00  0.00     0.000 A 
HETATM   34  C   UNL     1      22.961  43.891  48.928  1.00  0.00     0.001 A 
HETATM   35  C   UNL     1      22.649  45.201  49.306  1.00  0.00     0.014 A 
ENDBRANCH   3  30
BRANCH   4  36
HETATM   36  C   UNL     1      24.336  48.682  48.969  1.00  0.00    -0.005 A 
HETATM   37  C   UNL     1      25.032  49.665  48.247  1.00  0.00     0.014 A 
HETATM   38  C   UNL     1      26.421  49.776  48.345  1.00  0.00     0.001 A 
HETATM   39  C   UNL     1      27.131  48.908  49.171  1.00  0.00     0.000 A 
HETATM   40  C   UNL     1      26.453  47.934  49.900  1.00  0.00     0.001 A 
HETATM   41  C   UNL     1      25.061  47.825  49.804  1.00  0.00     0.014 A 
ENDBRANCH   4  36
TORSDOF 8
ENDMDL
MODEL 2
REMARK VINA RESULT:      -8.5      4.869      8.528
REMARK  8 active torsions:
REMARK  status: ('A' for Active; 'I' for Inactive)
REMARK    1  A    between atoms: N_2  and  C_3 
REMARK    2  A    between atoms: C_6  and  C_7 
REMARK    3  A    between atoms: N_8  and  C_9 
REMARK    4  A    between atoms: C_9  and  C_10 
REMARK    5  A    between atoms: C_14  and  N_15 
REMARK    6  A    between atoms: C_17  and  N_18 
REMARK    7  A    between atoms: C_19  and  C_20 
REMARK    8  A    between atoms: C_26  and  C_27 
ROOT
HETATM    1  C   UNL     1      25.518  46.327  51.912  1.00  0.00     0.141 A 
HETATM    2  N   UNL     1      24.859  45.368  51.160  1.00  0.00    -0.324 N 
HETATM    3  C   UNL     1      24.201  46.018  50.116  1.00  0.00     0.076 A 
HETATM    4  C   UNL     1      24.576  47.349  50.261  1.00  0.00     0.097 A 
HETATM    5  N   UNL     1      25.322  47.521  51.397  1.00  0.00    -0.227 NA
ENDROOT
BRANCH   2   6
HETATM    6  C   UNL     1      24.930  43.924  51.386  1.00  0.00     0.178 C 
BRANCH   6   7
HETATM    7  C   UNL     1      25.560  43.070  50.325  1.00  0.00     0.068 A 
HETATM    8  C   UNL     1      24.626  42.111  49.685  1.00  0.00     0.259 A 
HETATM    9  O   UNL     1      23.455  41.995  50.036  1.00  0.00    -0.267 OA
HETATM   10  N   UNL     1      25.128  41.377  48.660  1.00  0.00    -0.298 N 
HETATM   11  C   UNL     1      26.397  41.535  48.221  1.00  0.00     0.181 A 
HETATM   12  H   UNL     1      24.486  40.770  48.180  1.00  0.00     0.171 HD
HETATM   13  N   UNL     1      27.227  42.356  48.769  1.00  0.00    -0.208 NA
HETATM   14  C   UNL     1      26.810  43.135  49.820  1.00  0.00     0.117 A 
BRANCH  11  15
HETATM   15  N   UNL     1      26.770  40.775  47.161  1.00  0.00    -0.272 NA
HETATM   16  H   UNL     1      26.801  41.229  46.259  1.00  0.00     0.127 HD
HETATM   17  H   UNL     1      26.282  39.885  47.142  1.00  0.00     0.127 HD
ENDBRANCH  11  15
BRANCH  14  18
HETATM   18  N   UNL     1      27.741  44.032  50.304  1.00  0.00    -0.286 NA
HETATM   19  H   UNL     1      27.956  44.765  49.634  1.00  0.00     0.125 HD
HETATM   20  H   UNL     1      27.350  44.447  51.146  1.00  0.00     0.125 HD
ENDBRANCH  14  18
ENDBRANCH   6   7
ENDBRANCH   2   6
BRANCH   1  21
HETATM   21  C   UNL     1      26.299  46.111  53.128  1.00  0.00     0.010 A 
HETATM   22  C   UNL     1      26.784  44.856  53.488  1.00  0.00     0.017 A 
HETATM   23  C   UNL     1      27.611  44.710  54.614  1.00  0.00     0.030 A 
HETATM   24  C   UNL     1      28.016  45.804  55.402  1.00  0.00     0.029 A 
HETATM   25  C   UNL     1      27.488  47.052  55.028  1.00  0.00     0.030 A 
HETATM   26  C   UNL     1      26.658  47.208  53.910  1.00  0.00     0.017 A 
BRANCH  24  27
HETATM   27  N   UNL     1      28.866  45.652  56.507  1.00  0.00    -0.390 N 
HETATM   28  C   UNL     1      30.302  45.516  56.259  1.00  0.00     0.149 C 
HETATM   29  C   UNL     1      28.516  46.333  57.754  1.00  0.00     0.149 C 
ENDBRANCH  24  27
ENDBRANCH   1  21
BRANCH   3  30
HETATM   30  C   UNL     1      23.255  45.393  49.191  1.00  0.00    -0.007 A 
HETATM   31  C   UNL     1      23.711  44.958  47.938  1.00  0.00     0.014 A 
HETATM   32  C   UNL     1      22.842  44.344  47.035  1.00  0.00     0.001 A 
HETATM   33  C   UNL     1      21.505  44.161  47.379  1.00  0.00     0.000 A 
HETATM   34  C   UNL     1      21.040  44.586  48.623  1.00  0.00     0.001 A 
HETATM   35  C   UNL     1      21.913  45.195  49.530  1.00  0.00     0.014 A 
ENDBRANCH   3  30
BRANCH   4  36
HETATM   36  C   UNL     1      24.255  48.482  49.404  1.00  0.00    -0.005 A 
HETATM   37  C   UNL     1      25.299  49.159  48.754  1.00  0.00     0.014 A 
HETATM   38  C   UNL     1      25.032  50.211  47.874  1.00  0.00     0.001 A 
HETATM   39  C   UNL     1      23.717  50.593  47.628  1.00  0.00     0.000 A 
HETATM   40  C   UNL     1      22.670  49.925  48.258  1.00  0.00     0.001 A 
HETATM   41  C   UNL     1      22.937  48.870  49.138  1.00  0.00     0.014 A 
ENDBRANCH   4  36
TORSDOF 8
ENDMDL
MODEL 3
REMARK VINA RESULT:      -8.5      6.703     10.964
REMARK  8 active torsions:
REMARK  status: ('A' for Active; 'I' for Inactive)
REMARK    1  A    between atoms: N_2  and  C_3 
REMARK    2  A    between atoms: C_6  and  C_7 
REMARK    3  A    between atoms: N_8  and  C_9 
REMARK    4  A    between atoms: C_9  and  C_10 
REMARK    5  A    between atoms: C_14  and  N_15 
REMARK    6  A    between atoms: C_17  and  N_18 
REMARK    7  A    between atoms: C_19  and  C_20 
REMARK    8  A    between atoms: C_26  and  C_27 
ROOT
HETATM    1  C   UNL     1      27.690  41.300  50.403  1.00  0.00     0.141 A 
HETATM    2  N   UNL     1      27.101  42.484  49.993  1.00  0.00    -0.324 N 
HETATM    3  C   UNL     1      27.315  43.437  50.989  1.00  0.00     0.076 A 
HETATM    4  C   UNL     1      28.104  42.775  51.922  1.00  0.00     0.097 A 
HETATM    5  N   UNL     1      28.263  41.459  51.576  1.00  0.00    -0.227 NA
ENDROOT
BRANCH   2   6
HETATM    6  C   UNL     1      26.454  42.699  48.698  1.00  0.00     0.178 C 
BRANCH   6   7
HETATM    7  C   UNL     1      25.088  42.116  48.482  1.00  0.00     0.068 A 
HETATM    8  C   UNL     1      25.032  41.081  47.422  1.00  0.00     0.259 A 
HETATM    9  O   UNL     1      26.010  40.771  46.748  1.00  0.00    -0.267 OA
HETATM   10  N   UNL     1      23.836  40.463  47.250  1.00  0.00    -0.298 N 
HETATM   11  C   UNL     1      22.764  40.747  48.023  1.00  0.00     0.181 A 
HETATM   12  H   UNL     1      23.804  39.716  46.576  1.00  0.00     0.171 HD
HETATM   13  N   UNL     1      22.790  41.650  48.944  1.00  0.00    -0.208 NA
HETATM   14  C   UNL     1      23.956  42.335  49.184  1.00  0.00     0.117 A 
BRANCH  11  15
HETATM   15  N   UNL     1      21.638  40.032  47.783  1.00  0.00    -0.272 NA
HETATM   16  H   UNL     1      21.115  40.266  46.950  1.00  0.00     0.127 HD
HETATM   17  H   UNL     1      21.054  39.953  48.609  1.00  0.00     0.127 HD
ENDBRANCH  11  15
BRANCH  14  18
HETATM   18  N   UNL     1      23.913  43.236  50.229  1.00  0.00    -0.286 NA
HETATM   19  H   UNL     1      24.840  43.522  50.530  1.00  0.00     0.125 HD
HETATM   20  H   UNL     1      23.397  44.051  49.903  1.00  0.00     0.125 HD
ENDBRANCH  14  18
ENDBRANCH   6   7
ENDBRANCH   2   6
BRANCH   1  21
HETATM   21  C   UNL     1      27.679  40.019  49.700  1.00  0.00     0.010 A 
HETATM   22  C   UNL     1      26.660  39.084  49.871  1.00  0.00     0.017 A 
HETATM   23  C   UNL     1      26.637  37.908  49.104  1.00  0.00     0.030 A 
HETATM   24  C   UNL     1      27.602  37.631  48.117  1.00  0.00     0.029 A 
HETATM   25  C   UNL     1      28.631  38.579  47.987  1.00  0.00     0.030 A 
HETATM   26  C   UNL     1      28.666  39.754  48.750  1.00  0.00     0.017 A 
BRANCH  24  27
HETATM   27  N   UNL     1      27.555  36.467  47.335  1.00  0.00    -0.390 N 
HETATM   28  C   UNL     1      26.348  35.642  47.399  1.00  0.00     0.149 C 
HETATM   29  C   UNL     1      28.234  36.470  46.039  1.00  0.00     0.149 C 
ENDBRANCH  24  27
ENDBRANCH   1  21
BRANCH   3  30
HETATM   30  C   UNL     1      26.714  44.771  51.027  1.00  0.00    -0.007 A 
HETATM   31  C   UNL     1      26.999  45.678  49.996  1.00  0.00     0.014 A 
HETATM   32  C   UNL     1      26.433  46.954  49.991  1.00  0.00     0.001 A 
HETATM   33  C   UNL     1      25.577  47.335  51.021  1.00  0.00     0.000 A 
HETATM   34  C   UNL     1      25.284  46.440  52.050  1.00  0.00     0.001 A 
HETATM   35  C   UNL     1      25.846  45.159  52.051  1.00  0.00     0.014 A 
ENDBRANCH   3  30
BRANCH   4  36
HETATM   36  C   UNL     1      28.704  43.301  53.140  1.00  0.00    -0.005 A 
HETATM   37  C   UNL     1      29.952  42.806  53.551  1.00  0.00     0.014 A 
HETATM   38  C   UNL     1      30.592  43.326  54.679  1.00  0.00     0.001 A 
HETATM   39  C   UNL     1      29.996  44.353  55.405  1.00  0.00     0.000 A 
HETATM   40  C   UNL     1      28.762  44.861  55.003  1.00  0.00     0.001 A 
HETATM   41  C   UNL     1      28.122  44.342  53.873  1.00  0.00     0.014 A 
ENDBRANCH   4  36
TORSDOF 8
ENDMDL
MODEL 4
REMARK VINA RESULT:      -8.2      6.968     11.061
REMARK  8 active torsions:
REMARK  status: ('A' for Active; 'I' for Inactive)
REMARK    1  A    between atoms: N_2  and  C_3 
REMARK    2  A    between atoms: C_6  and  C_7 
REMARK    3  A    between atoms: N_8  and  C_9 
REMARK    4  A    between atoms: C_9  and  C_10 
REMARK    5  A    between atoms: C_14  and  N_15 
REMARK    6  A    between atoms: C_17  and  N_18 
REMARK    7  A    between atoms: C_19  and  C_20 
REMARK    8  A    between atoms: C_26  and  C_27 
ROOT
HETATM    1  C   UNL     1      27.807  41.953  51.791  1.00  0.00     0.141 A 
HETATM    2  N   UNL     1      26.586  42.291  51.231  1.00  0.00    -0.324 N 
HETATM    3  C   UNL     1      26.302  41.366  50.228  1.00  0.00     0.076 A 
HETATM    4  C   UNL     1      27.355  40.461  50.299  1.00  0.00     0.097 A 
HETATM    5  N   UNL     1      28.290  40.876  51.211  1.00  0.00    -0.227 NA
ENDROOT
BRANCH   2   6
HETATM    6  C   UNL     1      25.721  43.379  51.691  1.00  0.00     0.178 C 
BRANCH   6   7
HETATM    7  C   UNL     1      25.909  44.739  51.086  1.00  0.00     0.068 A 
HETATM    8  C   UNL     1      25.516  45.858  51.976  1.00  0.00     0.259 A 
HETATM    9  O   UNL     1      25.030  45.678  53.089  1.00  0.00    -0.267 OA
HETATM   10  N   UNL     1      25.749  47.110  51.505  1.00  0.00    -0.298 N 
HETATM   11  C   UNL     1      26.339  47.326  50.308  1.00  0.00     0.181 A 
HETATM   12  H   UNL     1      25.544  47.873  52.127  1.00  0.00     0.171 HD
HETATM   13  N   UNL     1      26.679  46.367  49.516  1.00  0.00    -0.208 NA
HETATM   14  C   UNL     1      26.474  45.066  49.905  1.00  0.00     0.117 A 
BRANCH  11  15
HETATM   15  N   UNL     1      26.557  48.620  49.967  1.00  0.00    -0.272 NA
HETATM   16  H   UNL     1      27.518  48.931  49.938  1.00  0.00     0.127 HD
HETATM   17  H   UNL     1      25.949  49.255  50.475  1.00  0.00     0.127 HD
ENDBRANCH  11  15
BRANCH  14  18
HETATM   18  N   UNL     1      26.927  44.104  49.025  1.00  0.00    -0.286 NA
HETATM   19  H   UNL     1      26.606  44.267  48.075  1.00  0.00     0.125 HD
HETATM   20  H   UNL     1      27.944  44.129  49.048  1.00  0.00     0.125 HD
ENDBRANCH  14  18
ENDBRANCH   6   7
ENDBRANCH   2   6
BRANCH   1  21
HETATM   21  C   UNL     1      28.524  42.668  52.845  1.00  0.00     0.010 A 
HETATM   22  C   UNL     1      27.867  43.446  53.796  1.00  0.00     0.017 A 
HETATM   23  C   UNL     1      28.583  44.037  54.849  1.00  0.00     0.030 A 
HETATM   24  C   UNL     1      29.969  43.853  55.018  1.00  0.00     0.029 A 
HETATM   25  C   UNL     1      30.606  43.086  54.027  1.00  0.00     0.030 A 
HETATM   26  C   UNL     1      29.902  42.495  52.970  1.00  0.00     0.017 A 
BRANCH  24  27
HETATM   27  N   UNL     1      30.672  44.424  56.089  1.00  0.00    -0.390 N 
HETATM   28  C   UNL     1      30.133  45.642  56.695  1.00  0.00     0.149 C 
HETATM   29  C   UNL     1      31.380  43.535  57.011  1.00  0.00     0.149 C 
ENDBRANCH  24  27
ENDBRANCH   1  21
BRANCH   3  30
HETATM   30  C   UNL     1      25.191  41.458  49.281  1.00  0.00    -0.007 A 
HETATM   31  C   UNL     1      25.407  41.113  47.938  1.00  0.00     0.014 A 
HETATM   32  C   UNL     1      24.368  41.174  47.009  1.00  0.00     0.001 A 
HETATM   33  C   UNL     1      23.100  41.583  47.416  1.00  0.00     0.000 A 
HETATM   34  C   UNL     1      22.872  41.925  48.749  1.00  0.00     0.001 A 
HETATM   35  C   UNL     1      23.912  41.857  49.681  1.00  0.00     0.014 A 
ENDBRANCH   3  30
BRANCH   4  36
HETATM   36  C   UNL     1      27.551  39.233  49.541  1.00  0.00    -0.005 A 
HETATM   37  C   UNL     1      26.686  38.150  49.766  1.00  0.00     0.014 A 
HETATM   38  C   UNL     1      26.798  36.976  49.017  1.00  0.00     0.001 A 
HETATM   39  C   UNL     1      27.773  36.874  48.029  1.00  0.00     0.000 A 
HETATM   40  C   UNL     1      28.632  37.943  47.787  1.00  0.00     0.001 A 
HETATM   41  C   UNL     1      28.518  39.120  48.536  1.00  0.00     0.014 A 
ENDBRANCH   4  36
TORSDOF 8
ENDMDL
MODEL 5
REMARK VINA RESULT:      -8.2     10.789     13.382
REMARK  8 active torsions:
REMARK  status: ('A' for Active; 'I' for Inactive)
REMARK    1  A    between atoms: N_2  and  C_3 
REMARK    2  A    between atoms: C_6  and  C_7 
REMARK    3  A    between atoms: N_8  and  C_9 
REMARK    4  A    between atoms: C_9  and  C_10 
REMARK    5  A    between atoms: C_14  and  N_15 
REMARK    6  A    between atoms: C_17  and  N_18 
REMARK    7  A    between atoms: C_19  and  C_20 
REMARK    8  A    between atoms: C_26  and  C_27 
ROOT
HETATM    1  C   UNL     1      29.470  47.518  40.421  1.00  0.00     0.141 A 
HETATM    2  N   UNL     1      28.123  47.703  40.157  1.00  0.00    -0.324 N 
HETATM    3  C   UNL     1      27.634  46.533  39.577  1.00  0.00     0.076 A 
HETATM    4  C   UNL     1      28.722  45.669  39.598  1.00  0.00     0.097 A 
HETATM    5  N   UNL     1      29.843  46.311  40.055  1.00  0.00    -0.227 NA
ENDROOT
BRANCH   2   6
HETATM    6  C   UNL     1      27.349  48.892  40.519  1.00  0.00     0.178 C 
BRANCH   6   7
HETATM    7  C   UNL     1      27.617  50.166  39.773  1.00  0.00     0.068 A 
HETATM    8  C   UNL     1      28.173  51.255  40.613  1.00  0.00     0.259 A 
HETATM    9  O   UNL     1      28.348  51.132  41.823  1.00  0.00    -0.267 OA
HETATM   10  N   UNL     1      28.513  52.398  39.966  1.00  0.00    -0.298 N 
HETATM   11  C   UNL     1      28.386  52.528  38.626  1.00  0.00     0.181 A 
HETATM   12  H   UNL     1      28.949  53.118  40.517  1.00  0.00     0.171 HD
HETATM   13  N   UNL     1      27.895  51.597  37.880  1.00  0.00    -0.208 NA
HETATM   14  C   UNL     1      27.516  50.407  38.449  1.00  0.00     0.117 A 
BRANCH  11  15
HETATM   15  N   UNL     1      28.799  53.703  38.091  1.00  0.00    -0.272 NA
HETATM   16  H   UNL     1      28.084  54.319  37.731  1.00  0.00     0.127 HD
HETATM   17  H   UNL     1      29.576  53.576  37.449  1.00  0.00     0.127 HD
ENDBRANCH  11  15
BRANCH  14  18
HETATM   18  N   UNL     1      27.063  49.444  37.569  1.00  0.00    -0.286 NA
HETATM   19  H   UNL     1      26.121  49.636  37.239  1.00  0.00     0.125 HD
HETATM   20  H   UNL     1      27.703  49.434  36.778  1.00  0.00     0.125 HD
ENDBRANCH  14  18
ENDBRANCH   6   7
ENDBRANCH   2   6
BRANCH   1  21
HETATM   21  C   UNL     1      30.401  48.493  40.986  1.00  0.00     0.010 A 
HETATM   22  C   UNL     1      30.572  48.649  42.359  1.00  0.00     0.017 A 
HETATM   23  C   UNL     1      31.547  49.529  42.859  1.00  0.00     0.030 A 
HETATM   24  C   UNL     1      32.408  50.258  42.018  1.00  0.00     0.029 A 
HETATM   25  C   UNL     1      32.192  50.099  40.638  1.00  0.00     0.030 A 
HETATM   26  C   UNL     1      31.220  49.228  40.129  1.00  0.00     0.017 A 
BRANCH  24  27
HETATM   27  N   UNL     1      33.398  51.113  42.526  1.00  0.00    -0.390 N 
HETATM   28  C   UNL     1      33.195  51.689  43.856  1.00  0.00     0.149 C 
HETATM   29  C   UNL     1      34.794  50.850  42.172  1.00  0.00     0.149 C 
ENDBRANCH  24  27
ENDBRANCH   1  21
BRANCH   3  30
HETATM   30  C   UNL     1      26.301  46.369  38.995  1.00  0.00    -0.007 A 
HETATM   31  C   UNL     1      26.166  46.319  37.599  1.00  0.00     0.014 A 
HETATM   32  C   UNL     1      24.913  46.148  37.010  1.00  0.00     0.001 A 
HETATM   33  C   UNL     1      23.781  46.028  37.813  1.00  0.00     0.000 A 
HETATM   34  C   UNL     1      23.903  46.073  39.201  1.00  0.00     0.001 A 
HETATM   35  C   UNL     1      25.160  46.237  39.792  1.00  0.00     0.014 A 
ENDBRANCH   3  30
BRANCH   4  36
HETATM   36  C   UNL     1      28.781  44.272  39.192  1.00  0.00    -0.005 A 
HETATM   37  C   UNL     1      28.043  43.322  39.916  1.00  0.00     0.014 A 
HETATM   38  C   UNL     1      28.021  41.981  39.523  1.00  0.00     0.001 A 
HETATM   39  C   UNL     1      28.731  41.576  38.396  1.00  0.00     0.000 A 
HETATM   40  C   UNL     1      29.460  42.509  37.662  1.00  0.00     0.001 A 
HETATM   41  C   UNL     1      29.480  43.852  38.054  1.00  0.00     0.014 A 
ENDBRANCH   4  36
TORSDOF 8
ENDMDL
MODEL 6
REMARK VINA RESULT:      -7.8      3.978      7.595
REMARK  8 active torsions:
REMARK  status: ('A' for Active; 'I' for Inactive)
REMARK    1  A    between atoms: N_2  and  C_3 
REMARK    2  A    between atoms: C_6  and  C_7 
REMARK    3  A    between atoms: N_8  and  C_9 
REMARK    4  A    between atoms: C_9  and  C_10 
REMARK    5  A    between atoms: C_14  and  N_15 
REMARK    6  A    between atoms: C_17  and  N_18 
REMARK    7  A    between atoms: C_19  and  C_20 
REMARK    8  A    between atoms: C_26  and  C_27 
ROOT
HETATM    1  C   UNL     1      15.354  52.562  48.556  1.00  0.00     0.141 A 
HETATM    2  N   UNL     1      16.253  51.526  48.748  1.00  0.00    -0.324 N 
HETATM    3  C   UNL     1      16.279  50.758  47.585  1.00  0.00     0.076 A 
HETATM    4  C   UNL     1      15.434  51.438  46.716  1.00  0.00     0.097 A 
HETATM    5  N   UNL     1      14.833  52.493  47.350  1.00  0.00    -0.227 NA
ENDROOT
BRANCH   2   6
HETATM    6  C   UNL     1      17.087  51.344  49.937  1.00  0.00     0.178 C 
BRANCH   6   7
HETATM    7  C   UNL     1      18.571  51.222  49.752  1.00  0.00     0.068 A 
HETATM    8  C   UNL     1      19.183  50.088  50.486  1.00  0.00     0.259 A 
HETATM    9  O   UNL     1      18.533  49.349  51.220  1.00  0.00    -0.267 OA
HETATM   10  N   UNL     1      20.509  49.885  50.280  1.00  0.00    -0.298 N 
HETATM   11  C   UNL     1      21.226  50.651  49.427  1.00  0.00     0.181 A 
HETATM   12  H   UNL     1      20.919  49.081  50.723  1.00  0.00     0.171 HD
HETATM   13  N   UNL     1      20.715  51.647  48.787  1.00  0.00    -0.208 NA
HETATM   14  C   UNL     1      19.381  51.934  48.940  1.00  0.00     0.117 A 
BRANCH  11  15
HETATM   15  N   UNL     1      22.533  50.323  49.274  1.00  0.00    -0.272 NA
HETATM   16  H   UNL     1      23.076  50.195  50.116  1.00  0.00     0.127 HD
HETATM   17  H   UNL     1      22.995  50.912  48.588  1.00  0.00     0.127 HD
ENDBRANCH  11  15
BRANCH  14  18
HETATM   18  N   UNL     1      18.904  52.975  48.169  1.00  0.00    -0.286 NA
HETATM   19  H   UNL     1      18.622  52.671  47.242  1.00  0.00     0.125 HD
HETATM   20  H   UNL     1      18.099  53.365  48.656  1.00  0.00     0.125 HD
ENDBRANCH  14  18
ENDBRANCH   6   7
ENDBRANCH   2   6
BRANCH   1  21
HETATM   21  C   UNL     1      14.970  53.589  49.522  1.00  0.00     0.010 A 
HETATM   22  C   UNL     1      14.039  53.350  50.530  1.00  0.00     0.017 A 
HETATM   23  C   UNL     1      13.770  54.333  51.497  1.00  0.00     0.030 A 
HETATM   24  C   UNL     1      14.437  55.573  51.520  1.00  0.00     0.029 A 
HETATM   25  C   UNL     1      15.350  55.793  50.475  1.00  0.00     0.030 A 
HETATM   26  C   UNL     1      15.623  54.821  49.503  1.00  0.00     0.017 A 
BRANCH  24  27
HETATM   27  N   UNL     1      14.183  56.538  52.507  1.00  0.00    -0.390 N 
HETATM   28  C   UNL     1      13.185  56.229  53.531  1.00  0.00     0.149 C 
HETATM   29  C   UNL     1      15.289  57.383  52.956  1.00  0.00     0.149 C 
ENDBRANCH  24  27
ENDBRANCH   1  21
BRANCH   3  30
HETATM   30  C   UNL     1      16.970  49.477  47.431  1.00  0.00    -0.007 A 
HETATM   31  C   UNL     1      16.455  48.341  48.073  1.00  0.00     0.014 A 
HETATM   32  C   UNL     1      17.078  47.100  47.937  1.00  0.00     0.001 A 
HETATM   33  C   UNL     1      18.227  46.985  47.157  1.00  0.00     0.000 A 
HETATM   34  C   UNL     1      18.746  48.107  46.512  1.00  0.00     0.001 A 
HETATM   35  C   UNL     1      18.117  49.349  46.642  1.00  0.00     0.014 A 
ENDBRANCH   3  30
BRANCH   4  36
HETATM   36  C   UNL     1      15.135  51.141  45.321  1.00  0.00    -0.005 A 
HETATM   37  C   UNL     1      15.988  51.639  44.324  1.00  0.00     0.014 A 
HETATM   38  C   UNL     1      15.775  51.327  42.978  1.00  0.00     0.001 A 
HETATM   39  C   UNL     1      14.709  50.508  42.616  1.00  0.00     0.000 A 
HETATM   40  C   UNL     1      13.860  49.999  43.596  1.00  0.00     0.001 A 
HETATM   41  C   UNL     1      14.075  50.310  44.943  1.00  0.00     0.014 A 
ENDBRANCH   4  36
TORSDOF 8
ENDMDL
MODEL 7
REMARK VINA RESULT:      -7.8     10.635     14.446
REMARK  8 active torsions:
REMARK  status: ('A' for Active; 'I' for Inactive)
REMARK    1  A    between atoms: N_2  and  C_3 
REMARK    2  A    between atoms: C_6  and  C_7 
REMARK    3  A    between atoms: N_8  and  C_9 
REMARK    4  A    between atoms: C_9  and  C_10 
REMARK    5  A    between atoms: C_14  and  N_15 
REMARK    6  A    between atoms: C_17  and  N_18 
REMARK    7  A    between atoms: C_19  and  C_20 
REMARK    8  A    between atoms: C_26  and  C_27 
ROOT
HETATM    1  C   UNL     1      30.839  48.660  39.841  1.00  0.00     0.141 A 
HETATM    2  N   UNL     1      29.577  48.907  40.354  1.00  0.00    -0.324 N 
HETATM    3  C   UNL     1      28.685  48.024  39.747  1.00  0.00     0.076 A 
HETATM    4  C   UNL     1      29.495  47.229  38.945  1.00  0.00     0.097 A 
HETATM    5  N   UNL     1      30.789  47.677  38.968  1.00  0.00    -0.227 NA
ENDROOT
BRANCH   2   6
HETATM    6  C   UNL     1      29.272  49.868  41.415  1.00  0.00     0.178 C 
BRANCH   6   7
HETATM    7  C   UNL     1      29.641  51.306  41.197  1.00  0.00     0.068 A 
HETATM    8  C   UNL     1      30.676  51.815  42.129  1.00  0.00     0.259 A 
HETATM    9  O   UNL     1      31.148  51.129  43.032  1.00  0.00    -0.267 OA
HETATM   10  N   UNL     1      31.105  53.085  41.914  1.00  0.00    -0.298 N 
HETATM   11  C   UNL     1      30.643  53.833  40.888  1.00  0.00     0.181 A 
HETATM   12  H   UNL     1      31.852  53.417  42.502  1.00  0.00     0.171 HD
HETATM   13  N   UNL     1      29.736  53.412  40.073  1.00  0.00    -0.208 NA
HETATM   14  C   UNL     1      29.236  52.142  40.217  1.00  0.00     0.117 A 
BRANCH  11  15
HETATM   15  N   UNL     1      31.179  55.071  40.752  1.00  0.00    -0.272 NA
HETATM   16  H   UNL     1      32.151  55.123  40.480  1.00  0.00     0.127 HD
HETATM   17  H   UNL     1      30.954  55.671  41.539  1.00  0.00     0.127 HD
ENDBRANCH  11  15
BRANCH  14  18
HETATM   18  N   UNL     1      28.318  51.751  39.264  1.00  0.00    -0.286 NA
HETATM   19  H   UNL     1      27.508  51.294  39.672  1.00  0.00     0.125 HD
HETATM   20  H   UNL     1      28.020  52.590  38.770  1.00  0.00     0.125 HD
ENDBRANCH  14  18
ENDBRANCH   6   7
ENDBRANCH   2   6
BRANCH   1  21
HETATM   21  C   UNL     1      32.075  49.374  40.153  1.00  0.00     0.010 A 
HETATM   22  C   UNL     1      32.439  50.550  39.501  1.00  0.00     0.017 A 
HETATM   23  C   UNL     1      33.586  51.258  39.898  1.00  0.00     0.030 A 
HETATM   24  C   UNL     1      34.393  50.845  40.975  1.00  0.00     0.029 A 
HETATM   25  C   UNL     1      34.014  49.641  41.594  1.00  0.00     0.030 A 
HETATM   26  C   UNL     1      32.875  48.925  41.203  1.00  0.00     0.017 A 
BRANCH  24  27
HETATM   27  N   UNL     1      35.521  51.573  41.383  1.00  0.00    -0.390 N 
HETATM   28  C   UNL     1      36.017  52.628  40.499  1.00  0.00     0.149 C 
HETATM   29  C   UNL     1      35.707  51.826  42.813  1.00  0.00     0.149 C 
ENDBRANCH  24  27
ENDBRANCH   1  21
BRANCH   3  30
HETATM   30  C   UNL     1      27.229  48.063  39.884  1.00  0.00    -0.007 A 
HETATM   31  C   UNL     1      26.485  48.901  39.039  1.00  0.00     0.014 A 
HETATM   32  C   UNL     1      25.094  48.953  39.130  1.00  0.00     0.001 A 
HETATM   33  C   UNL     1      24.432  48.168  40.071  1.00  0.00     0.000 A 
HETATM   34  C   UNL     1      25.160  47.329  40.914  1.00  0.00     0.001 A 
HETATM   35  C   UNL     1      26.554  47.271  40.818  1.00  0.00     0.014 A 
ENDBRANCH   3  30
BRANCH   4  36
HETATM   36  C   UNL     1      29.121  46.079  38.133  1.00  0.00    -0.005 A 
HETATM   37  C   UNL     1      29.559  44.803  38.521  1.00  0.00     0.014 A 
HETATM   38  C   UNL     1      29.173  43.665  37.807  1.00  0.00     0.001 A 
HETATM   39  C   UNL     1      28.338  43.791  36.701  1.00  0.00     0.000 A 
HETATM   40  C   UNL     1      27.888  45.049  36.309  1.00  0.00     0.001 A 
HETATM   41  C   UNL     1      28.273  46.188  37.025  1.00  0.00     0.014 A 
ENDBRANCH   4  36
TORSDOF 8
ENDMDL
MODEL 8
REMARK VINA RESULT:      -7.7      4.535      8.336
REMARK  8 active torsions:
REMARK  status: ('A' for Active; 'I' for Inactive)
REMARK    1  A    between atoms: N_2  and  C_3 
REMARK    2  A    between atoms: C_6  and  C_7 
REMARK    3  A    between atoms: N_8  and  C_9 
REMARK    4  A    between atoms: C_9  and  C_10 
REMARK    5  A    between atoms: C_14  and  N_15 
REMARK    6  A    between atoms: C_17  and  N_18 
REMARK    7  A    between atoms: C_19  and  C_20 
REMARK    8  A    between atoms: C_26  and  C_27 
ROOT
HETATM    1  C   UNL     1      24.624  45.589  50.519  1.00  0.00     0.141 A 
HETATM    2  N   UNL     1      23.597  45.003  49.796  1.00  0.00    -0.324 N 
HETATM    3  C   UNL     1      22.925  46.013  49.109  1.00  0.00     0.076 A 
HETATM    4  C   UNL     1      23.652  47.160  49.404  1.00  0.00     0.097 A 
HETATM    5  N   UNL     1      24.639  46.888  50.314  1.00  0.00    -0.227 NA
ENDROOT
BRANCH   2   6
HETATM    6  C   UNL     1      23.340  43.565  49.711  1.00  0.00     0.178 C 
BRANCH   6   7
HETATM    7  C   UNL     1      24.243  42.732  48.850  1.00  0.00     0.068 A 
HETATM    8  C   UNL     1      25.065  41.752  49.601  1.00  0.00     0.259 A 
HETATM    9  O   UNL     1      25.042  41.672  50.826  1.00  0.00    -0.267 OA
HETATM   10  N   UNL     1      25.833  40.917  48.856  1.00  0.00    -0.298 N 
HETATM   11  C   UNL     1      25.824  40.950  47.505  1.00  0.00     0.181 A 
HETATM   12  H   UNL     1      26.345  40.208  49.353  1.00  0.00     0.171 HD
HETATM   13  N   UNL     1      25.124  41.800  46.833  1.00  0.00    -0.208 NA
HETATM   14  C   UNL     1      24.322  42.691  47.503  1.00  0.00     0.117 A 
BRANCH  11  15
HETATM   15  N   UNL     1      26.602  40.037  46.873  1.00  0.00    -0.272 NA
HETATM   16  H   UNL     1      27.150  39.420  47.455  1.00  0.00     0.127 HD
HETATM   17  H   UNL     1      27.137  40.451  46.117  1.00  0.00     0.127 HD
ENDBRANCH  11  15
BRANCH  14  18
HETATM   18  N   UNL     1      23.559  43.520  46.706  1.00  0.00    -0.286 NA
HETATM   19  H   UNL     1      23.547  43.219  45.735  1.00  0.00     0.125 HD
HETATM   20  H   UNL     1      22.611  43.506  47.076  1.00  0.00     0.125 HD
ENDBRANCH  14  18
ENDBRANCH   6   7
ENDBRANCH   2   6
BRANCH   1  21
HETATM   21  C   UNL     1      25.560  44.922  51.421  1.00  0.00     0.010 A 
HETATM   22  C   UNL     1      25.204  44.539  52.712  1.00  0.00     0.017 A 
HETATM   23  C   UNL     1      26.103  43.814  53.512  1.00  0.00     0.030 A 
HETATM   24  C   UNL     1      27.372  43.415  53.051  1.00  0.00     0.029 A 
HETATM   25  C   UNL     1      27.711  43.840  51.755  1.00  0.00     0.030 A 
HETATM   26  C   UNL     1      26.824  44.567  50.950  1.00  0.00     0.017 A 
BRANCH  24  27
HETATM   27  N   UNL     1      28.252  42.666  53.847  1.00  0.00    -0.390 N 
HETATM   28  C   UNL     1      28.570  41.301  53.427  1.00  0.00     0.149 C 
HETATM   29  C   UNL     1      29.334  43.368  54.539  1.00  0.00     0.149 C 
ENDBRANCH  24  27
ENDBRANCH   1  21
BRANCH   3  30
HETATM   30  C   UNL     1      21.678  45.845  48.362  1.00  0.00    -0.007 A 
HETATM   31  C   UNL     1      21.633  46.223  47.012  1.00  0.00     0.014 A 
HETATM   32  C   UNL     1      20.466  46.063  46.264  1.00  0.00     0.001 A 
HETATM   33  C   UNL     1      19.329  45.524  46.863  1.00  0.00     0.000 A 
HETATM   34  C   UNL     1      19.363  45.142  48.204  1.00  0.00     0.001 A 
HETATM   35  C   UNL     1      20.535  45.295  48.951  1.00  0.00     0.014 A 
ENDBRANCH   3  30
BRANCH   4  36
HETATM   36  C   UNL     1      23.462  48.512  48.897  1.00  0.00    -0.005 A 
HETATM   37  C   UNL     1      22.221  49.141  49.088  1.00  0.00     0.014 A 
HETATM   38  C   UNL     1      22.015  50.459  48.674  1.00  0.00     0.001 A 
HETATM   39  C   UNL     1      23.050  51.167  48.070  1.00  0.00     0.000 A 
HETATM   40  C   UNL     1      24.290  50.561  47.883  1.00  0.00     0.001 A 
HETATM   41  C   UNL     1      24.497  49.241  48.299  1.00  0.00     0.014 A 
ENDBRANCH   4  36
TORSDOF 8
ENDMDL
MODEL 9
REMARK VINA RESULT:      -7.6      4.608      9.321
REMARK  8 active torsions:
REMARK  status: ('A' for Active; 'I' for Inactive)
REMARK    1  A    between atoms: N_2  and  C_3 
REMARK    2  A    between atoms: C_6  and  C_7 
REMARK    3  A    between atoms: N_8  and  C_9 
REMARK    4  A    between atoms: C_9  and  C_10 
REMARK    5  A    between atoms: C_14  and  N_15 
REMARK    6  A    between atoms: C_17  and  N_18 
REMARK    7  A    between atoms: C_19  and  C_20 
REMARK    8  A    between atoms: C_26  and  C_27 
ROOT
HETATM    1  C   UNL     1      25.580  43.749  50.761  1.00  0.00     0.141 A 
HETATM    2  N   UNL     1      24.584  44.605  50.322  1.00  0.00    -0.324 N 
HETATM    3  C   UNL     1      23.875  43.959  49.310  1.00  0.00     0.076 A 
HETATM    4  C   UNL     1      24.451  42.695  49.254  1.00  0.00     0.097 A 
HETATM    5  N   UNL     1      25.527  42.614  50.098  1.00  0.00    -0.227 NA
ENDROOT
BRANCH   2   6
HETATM    6  C   UNL     1      24.287  45.918  50.899  1.00  0.00     0.178 C 
BRANCH   6   7
HETATM    7  C   UNL     1      24.592  47.138  50.080  1.00  0.00     0.068 A 
HETATM    8  C   UNL     1      26.037  47.352  49.825  1.00  0.00     0.259 A 
HETATM    9  O   UNL     1      26.906  46.619  50.291  1.00  0.00    -0.267 OA
HETATM   10  N   UNL     1      26.357  48.393  49.016  1.00  0.00    -0.298 N 
HETATM   11  C   UNL     1      25.411  49.173  48.445  1.00  0.00     0.181 A 
HETATM   12  H   UNL     1      27.329  48.508  48.787  1.00  0.00     0.171 HD
HETATM   13  N   UNL     1      24.150  49.009  48.662  1.00  0.00    -0.208 NA
HETATM   14  C   UNL     1      23.733  47.984  49.475  1.00  0.00     0.117 A 
BRANCH  11  15
HETATM   15  N   UNL     1      25.853  50.156  47.623  1.00  0.00    -0.272 NA
HETATM   16  H   UNL     1      26.546  49.900  46.933  1.00  0.00     0.127 HD
HETATM   17  H   UNL     1      26.092  51.000  48.134  1.00  0.00     0.127 HD
ENDBRANCH  11  15
BRANCH  14  18
HETATM   18  N   UNL     1      22.365  47.842  49.600  1.00  0.00    -0.286 NA
HETATM   19  H   UNL     1      22.060  47.883  50.568  1.00  0.00     0.125 HD
HETATM   20  H   UNL     1      21.934  48.602  49.077  1.00  0.00     0.125 HD
ENDBRANCH  14  18
ENDBRANCH   6   7
ENDBRANCH   2   6
BRANCH   1  21
HETATM   21  C   UNL     1      26.594  44.021  51.778  1.00  0.00     0.010 A 
HETATM   22  C   UNL     1      26.285  44.629  52.992  1.00  0.00     0.017 A 
HETATM   23  C   UNL     1      27.270  44.784  53.981  1.00  0.00     0.030 A 
HETATM   24  C   UNL     1      28.587  44.312  53.816  1.00  0.00     0.029 A 
HETATM   25  C   UNL     1      28.873  43.728  52.571  1.00  0.00     0.030 A 
HETATM   26  C   UNL     1      27.899  43.573  51.576  1.00  0.00     0.017 A 
BRANCH  24  27
HETATM   27  N   UNL     1      29.557  44.446  54.821  1.00  0.00    -0.390 N 
HETATM   28  C   UNL     1      29.316  45.417  55.888  1.00  0.00     0.149 C 
HETATM   29  C   UNL     1      30.310  43.257  55.225  1.00  0.00     0.149 C 
ENDBRANCH  24  27
ENDBRANCH   1  21
BRANCH   3  30
HETATM   30  C   UNL     1      22.851  44.575  48.467  1.00  0.00    -0.007 A 
HETATM   31  C   UNL     1      21.536  44.670  48.946  1.00  0.00     0.014 A 
HETATM   32  C   UNL     1      20.537  45.264  48.176  1.00  0.00     0.001 A 
HETATM   33  C   UNL     1      20.843  45.769  46.914  1.00  0.00     0.000 A 
HETATM   34  C   UNL     1      22.147  45.684  46.428  1.00  0.00     0.001 A 
HETATM   35  C   UNL     1      23.151  45.094  47.203  1.00  0.00     0.014 A 
ENDBRANCH   3  30
BRANCH   4  36
HETATM   36  C   UNL     1      24.065  41.556  48.432  1.00  0.00    -0.005 A 
HETATM   37  C   UNL     1      22.701  41.315  48.204  1.00  0.00     0.014 A 
HETATM   38  C   UNL     1      22.287  40.272  47.371  1.00  0.00     0.001 A 
HETATM   39  C   UNL     1      23.234  39.462  46.751  1.00  0.00     0.000 A 
HETATM   40  C   UNL     1      24.591  39.695  46.960  1.00  0.00     0.001 A 
HETATM   41  C   UNL     1      25.005  40.741  47.793  1.00  0.00     0.014 A 
ENDBRANCH   4  36
TORSDOF 8
ENDMDL
MODEL 10
REMARK VINA RESULT:      -7.4      2.910      8.057
REMARK  8 active torsions:
REMARK  status: ('A' for Active; 'I' for Inactive)
REMARK    1  A    between atoms: N_2  and  C_3 
REMARK    2  A    between atoms: C_6  and  C_7 
REMARK    3  A    between atoms: N_8  and  C_9 
REMARK    4  A    between atoms: C_9  and  C_10 
REMARK    5  A    between atoms: C_14  and  N_15 
REMARK    6  A    between atoms: C_17  and  N_18 
REMARK    7  A    between atoms: C_19  and  C_20 
REMARK    8  A    between atoms: C_26  and  C_27 
ROOT
HETATM    1  C   UNL     1      18.723  47.802  45.397  1.00  0.00     0.141 A 
HETATM    2  N   UNL     1      18.483  48.325  46.657  1.00  0.00    -0.324 N 
HETATM    3  C   UNL     1      18.181  49.678  46.510  1.00  0.00     0.076 A 
HETATM    4  C   UNL     1      18.181  49.874  45.134  1.00  0.00     0.097 A 
HETATM    5  N   UNL     1      18.577  48.736  44.482  1.00  0.00    -0.227 NA
ENDROOT
BRANCH   2   6
HETATM    6  C   UNL     1      18.464  47.552  47.900  1.00  0.00     0.178 C 
BRANCH   6   7
HETATM    7  C   UNL     1      19.672  46.732  48.244  1.00  0.00     0.068 A 
HETATM    8  C   UNL     1      20.901  47.529  48.478  1.00  0.00     0.259 A 
HETATM    9  O   UNL     1      20.931  48.750  48.348  1.00  0.00    -0.267 OA
HETATM   10  N   UNL     1      21.998  46.838  48.876  1.00  0.00    -0.298 N 
HETATM   11  C   UNL     1      21.967  45.502  49.084  1.00  0.00     0.181 A 
HETATM   12  H   UNL     1      22.818  47.377  49.098  1.00  0.00     0.171 HD
HETATM   13  N   UNL     1      20.912  44.790  48.877  1.00  0.00    -0.208 NA
HETATM   14  C   UNL     1      19.755  45.403  48.463  1.00  0.00     0.117 A 
BRANCH  11  15
HETATM   15  N   UNL     1      23.116  44.932  49.522  1.00  0.00    -0.272 NA
HETATM   16  H   UNL     1      23.214  43.935  49.387  1.00  0.00     0.127 HD
HETATM   17  H   UNL     1      23.355  45.231  50.463  1.00  0.00     0.127 HD
ENDBRANCH  11  15
BRANCH  14  18
HETATM   18  N   UNL     1      18.658  44.575  48.329  1.00  0.00    -0.286 NA
HETATM   19  H   UNL     1      18.221  44.366  49.222  1.00  0.00     0.125 HD
HETATM   20  H   UNL     1      17.990  45.056  47.730  1.00  0.00     0.125 HD
ENDBRANCH  14  18
ENDBRANCH   6   7
ENDBRANCH   2   6
BRANCH   1  21
HETATM   21  C   UNL     1      19.119  46.434  45.069  1.00  0.00     0.010 A 
HETATM   22  C   UNL     1      20.455  46.052  44.962  1.00  0.00     0.017 A 
HETATM   23  C   UNL     1      20.794  44.707  44.741  1.00  0.00     0.030 A 
HETATM   24  C   UNL     1      19.826  43.688  44.653  1.00  0.00     0.029 A 
HETATM   25  C   UNL     1      18.488  44.110  44.737  1.00  0.00     0.030 A 
HETATM   26  C   UNL     1      18.138  45.450  44.953  1.00  0.00     0.017 A 
BRANCH  24  27
HETATM   27  N   UNL     1      20.176  42.343  44.461  1.00  0.00    -0.390 N 
HETATM   28  C   UNL     1      21.219  41.774  45.314  1.00  0.00     0.149 C 
HETATM   29  C   UNL     1      19.131  41.404  44.051  1.00  0.00     0.149 C 
ENDBRANCH  24  27
ENDBRANCH   1  21
BRANCH   3  30
HETATM   30  C   UNL     1      18.028  50.635  47.606  1.00  0.00    -0.007 A 
HETATM   31  C   UNL     1      19.092  51.496  47.916  1.00  0.00     0.014 A 
HETATM   32  C   UNL     1      18.977  52.431  48.945  1.00  0.00     0.001 A 
HETATM   33  C   UNL     1      17.794  52.514  49.676  1.00  0.00     0.000 A 
HETATM   34  C   UNL     1      16.728  51.666  49.375  1.00  0.00     0.001 A 
HETATM   35  C   UNL     1      16.841  50.733  48.339  1.00  0.00     0.014 A 
ENDBRANCH   3  30
BRANCH   4  36
HETATM   36  C   UNL     1      17.851  51.081  44.388  1.00  0.00    -0.005 A 
HETATM   37  C   UNL     1      18.180  51.148  43.025  1.00  0.00     0.014 A 
HETATM   38  C   UNL     1      17.826  52.260  42.257  1.00  0.00     0.001 A 
HETATM   39  C   UNL     1      17.133  53.316  42.842  1.00  0.00     0.000 A 
HETATM   40  C   UNL     1      16.791  53.260  44.191  1.00  0.00     0.001 A 
HETATM   41  C   UNL     1      17.144  52.145  44.960  1.00  0.00     0.014 A 
ENDBRANCH   4  36
TORSDOF 8
ENDMDL
