MODEL 1
REMARK VINA RESULT:      -8.2      0.000      0.000
REMARK  6 active torsions:
REMARK  status: ('A' for Active; 'I' for Inactive)
REMARK    1  A    between atoms: C_2  and  O_3 
REMARK    2  A    between atoms: O_3  and  C_4 
REMARK    3  A    between atoms: C_8  and  C_9 
REMARK    4  A    between atoms: C_9  and  N_10 
REMARK       I    between atoms: N_10  and  C_11 
REMARK       I    between atoms: C_11  and  N_12 
REMARK    5  A    between atoms: N_12  and  C_13 
REMARK    6  A    between atoms: C_14  and  C_15 
ROOT
HETATM    1  N   UNL     1      26.477  43.872  49.974  1.00  0.00    -0.339 N 
HETATM    2  C   UNL     1      26.348  42.732  50.722  1.00  0.00     0.316 C 
HETATM    3  N   UNL     1      27.566  42.233  51.119  1.00  0.00    -0.338 N 
HETATM    4  O   UNL     1      25.272  42.221  51.001  1.00  0.00    -0.247 OA
HETATM    5  H   UNL     1      27.395  44.197  49.718  1.00  0.00     0.164 HD
HETATM    6  H   UNL     1      28.361  42.854  51.066  1.00  0.00     0.164 HD
ENDROOT
BRANCH   1   7
HETATM    7  C   UNL     1      25.330  44.553  49.417  1.00  0.00     0.163 C 
BRANCH   7   8
HETATM    8  C   UNL     1      25.454  46.052  49.501  1.00  0.00    -0.035 A 
HETATM    9  C   UNL     1      26.698  46.682  49.593  1.00  0.00     0.028 A 
HETATM   10  C   UNL     1      26.738  48.061  49.729  1.00  0.00     0.120 A 
HETATM   11  N   UNL     1      25.641  48.843  49.802  1.00  0.00    -0.237 NA
HETATM   12  C   UNL     1      24.450  48.220  49.749  1.00  0.00     0.165 A 
HETATM   13  C   UNL     1      24.309  46.850  49.584  1.00  0.00     0.066 A 
BRANCH  12  14
HETATM   14  O   UNL     1      23.279  48.937  49.836  1.00  0.00    -0.324 OA
BRANCH  14  15
HETATM   15  C   UNL     1      22.764  49.606  48.670  1.00  0.00     0.058 C 
HETATM   16  C   UNL     1      21.846  48.703  47.834  1.00  0.00     0.045 C 
HETATM   17  C   UNL     1      23.861  50.267  47.820  1.00  0.00     0.045 C 
HETATM   18  C   UNL     1      21.894  50.737  49.254  1.00  0.00     0.045 C 
ENDBRANCH  14  15
ENDBRANCH  12  14
ENDBRANCH   7   8
ENDBRANCH   1   7
BRANCH   3  19
HETATM   19  C   UNL     1      27.686  41.089  51.978  1.00  0.00     0.095 A 
HETATM   20  C   UNL     1      28.075  41.209  53.438  1.00  0.00     0.043 A 
HETATM   21  C   UNL     1      29.043  40.638  52.430  1.00  0.00     0.037 A 
BRANCH  20  22
HETATM   22  C   UNL     1      28.334  42.557  54.071  1.00  0.00    -0.052 A 
HETATM   23  C   UNL     1      29.636  42.959  54.415  1.00  0.00     0.007 A 
HETATM   24  C   UNL     1      29.887  44.204  54.995  1.00  0.00     0.001 A 
HETATM   25  C   UNL     1      28.834  45.083  55.235  1.00  0.00     0.000 A 
HETATM   26  C   UNL     1      27.537  44.718  54.890  1.00  0.00     0.001 A 
HETATM   27  C   UNL     1      27.293  43.470  54.311  1.00  0.00     0.007 A 
ENDBRANCH  20  22
ENDBRANCH   3  19
TORSDOF 6
ENDMDL
MODEL 2
REMARK VINA RESULT:      -8.1      2.358      9.398
REMARK  6 active torsions:
REMARK  status: ('A' for Active; 'I' for Inactive)
REMARK    1  A    between atoms: C_2  and  O_3 
REMARK    2  A    between atoms: O_3  and  C_4 
REMARK    3  A    between atoms: C_8  and  C_9 
REMARK    4  A    between atoms: C_9  and  N_10 
REMARK       I    between atoms: N_10  and  C_11 
REMARK       I    between atoms: C_11  and  N_12 
REMARK    5  A    between atoms: N_12  and  C_13 
REMARK    6  A    between atoms: C_14  and  C_15 
ROOT
HETATM    1  N   UNL     1      23.824  46.962  50.419  1.00  0.00    -0.339 N 
HETATM    2  C   UNL     1      24.213  48.071  49.717  1.00  0.00     0.316 C 
HETATM    3  N   UNL     1      23.231  49.032  49.680  1.00  0.00    -0.338 N 
HETATM    4  O   UNL     1      25.309  48.187  49.184  1.00  0.00    -0.247 OA
HETATM    5  H   UNL     1      22.881  46.900  50.767  1.00  0.00     0.164 HD
HETATM    6  H   UNL     1      22.482  48.955  50.355  1.00  0.00     0.164 HD
ENDROOT
BRANCH   1   7
HETATM    7  C   UNL     1      24.682  45.807  50.559  1.00  0.00     0.163 C 
BRANCH   7   8
HETATM    8  C   UNL     1      25.392  45.775  51.887  1.00  0.00    -0.035 A 
HETATM    9  C   UNL     1      25.649  46.943  52.611  1.00  0.00     0.028 A 
HETATM   10  C   UNL     1      26.361  46.848  53.796  1.00  0.00     0.120 A 
HETATM   11  N   UNL     1      26.848  45.692  54.293  1.00  0.00    -0.237 NA
HETATM   12  C   UNL     1      26.625  44.582  53.568  1.00  0.00     0.165 A 
HETATM   13  C   UNL     1      25.900  44.571  52.386  1.00  0.00     0.066 A 
BRANCH  12  14
HETATM   14  O   UNL     1      27.103  43.362  53.988  1.00  0.00    -0.324 OA
BRANCH  14  15
HETATM   15  C   UNL     1      28.443  42.963  53.645  1.00  0.00     0.058 C 
HETATM   16  C   UNL     1      29.443  43.241  54.776  1.00  0.00     0.045 C 
HETATM   17  C   UNL     1      28.915  43.534  52.297  1.00  0.00     0.045 C 
HETATM   18  C   UNL     1      28.338  41.434  53.484  1.00  0.00     0.045 C 
ENDBRANCH  14  15
ENDBRANCH  12  14
ENDBRANCH   7   8
ENDBRANCH   1   7
BRANCH   3  19
HETATM   19  C   UNL     1      23.431  50.316  49.070  1.00  0.00     0.095 A 
HETATM   20  C   UNL     1      22.276  51.185  48.613  1.00  0.00     0.043 A 
HETATM   21  C   UNL     1      23.162  50.493  47.605  1.00  0.00     0.037 A 
BRANCH  20  22
HETATM   22  C   UNL     1      20.843  50.745  48.804  1.00  0.00    -0.052 A 
HETATM   23  C   UNL     1      20.076  51.220  49.883  1.00  0.00     0.007 A 
HETATM   24  C   UNL     1      18.749  50.825  50.065  1.00  0.00     0.001 A 
HETATM   25  C   UNL     1      18.155  49.949  49.161  1.00  0.00     0.000 A 
HETATM   26  C   UNL     1      18.884  49.475  48.076  1.00  0.00     0.001 A 
HETATM   27  C   UNL     1      20.212  49.874  47.900  1.00  0.00     0.007 A 
ENDBRANCH  20  22
ENDBRANCH   3  19
TORSDOF 6
ENDMDL
MODEL 3
REMARK VINA RESULT:      -8.0      1.485      2.265
REMARK  6 active torsions:
REMARK  status: ('A' for Active; 'I' for Inactive)
REMARK    1  A    between atoms: C_2  and  O_3 
REMARK    2  A    between atoms: O_3  and  C_4 
REMARK    3  A    between atoms: C_8  and  C_9 
REMARK    4  A    between atoms: C_9  and  N_10 
REMARK       I    between atoms: N_10  and  C_11 
REMARK       I    between atoms: C_11  and  N_12 
REMARK    5  A    between atoms: N_12  and  C_13 
REMARK    6  A    between atoms: C_14  and  C_15 
ROOT
HETATM    1  N   UNL     1      26.053  45.797  50.687  1.00  0.00    -0.339 N 
HETATM    2  C   UNL     1      25.684  44.515  50.993  1.00  0.00     0.316 C 
HETATM    3  N   UNL     1      26.616  43.594  50.578  1.00  0.00    -0.338 N 
HETATM    4  O   UNL     1      24.642  44.227  51.568  1.00  0.00    -0.247 OA
HETATM    5  H   UNL     1      26.887  45.958  50.145  1.00  0.00     0.164 HD
HETATM    6  H   UNL     1      27.540  43.938  50.357  1.00  0.00     0.164 HD
ENDROOT
BRANCH   1   7
HETATM    7  C   UNL     1      25.209  46.930  50.996  1.00  0.00     0.163 C 
BRANCH   7   8
HETATM    8  C   UNL     1      25.087  47.887  49.840  1.00  0.00    -0.035 A 
HETATM    9  C   UNL     1      26.170  48.654  49.403  1.00  0.00     0.028 A 
HETATM   10  C   UNL     1      25.973  49.561  48.373  1.00  0.00     0.120 A 
HETATM   11  N   UNL     1      24.783  49.771  47.772  1.00  0.00    -0.237 NA
HETATM   12  C   UNL     1      23.741  49.053  48.227  1.00  0.00     0.165 A 
HETATM   13  C   UNL     1      23.846  48.103  49.232  1.00  0.00     0.066 A 
BRANCH  12  14
HETATM   14  O   UNL     1      22.487  49.217  47.687  1.00  0.00    -0.324 OA
BRANCH  14  15
HETATM   15  C   UNL     1      21.437  49.800  48.482  1.00  0.00     0.058 C 
HETATM   16  C   UNL     1      21.964  50.863  49.457  1.00  0.00     0.045 C 
HETATM   17  C   UNL     1      20.559  48.751  49.183  1.00  0.00     0.045 C 
HETATM   18  C   UNL     1      20.552  50.520  47.445  1.00  0.00     0.045 C 
ENDBRANCH  14  15
ENDBRANCH  12  14
ENDBRANCH   7   8
ENDBRANCH   1   7
BRANCH   3  19
HETATM   19  C   UNL     1      26.489  42.191  50.855  1.00  0.00     0.095 A 
HETATM   20  C   UNL     1      27.246  41.515  51.981  1.00  0.00     0.043 A 
HETATM   21  C   UNL     1      27.626  41.265  50.542  1.00  0.00     0.037 A 
BRANCH  20  22
HETATM   22  C   UNL     1      28.162  42.302  52.891  1.00  0.00    -0.052 A 
HETATM   23  C   UNL     1      27.642  43.153  53.882  1.00  0.00     0.007 A 
HETATM   24  C   UNL     1      28.479  43.880  54.731  1.00  0.00     0.001 A 
HETATM   25  C   UNL     1      29.861  43.762  54.614  1.00  0.00     0.000 A 
HETATM   26  C   UNL     1      30.403  42.915  53.652  1.00  0.00     0.001 A 
HETATM   27  C   UNL     1      29.560  42.191  52.804  1.00  0.00     0.007 A 
ENDBRANCH  20  22
ENDBRANCH   3  19
TORSDOF 6
ENDMDL
MODEL 4
REMARK VINA RESULT:      -7.8      1.856      9.002
REMARK  6 active torsions:
REMARK  status: ('A' for Active; 'I' for Inactive)
REMARK    1  A    between atoms: C_2  and  O_3 
REMARK    2  A    between atoms: O_3  and  C_4 
REMARK    3  A    between atoms: C_8  and  C_9 
REMARK    4  A    between atoms: C_9  and  N_10 
REMARK       I    between atoms: N_10  and  C_11 
REMARK       I    between atoms: C_11  and  N_12 
REMARK    5  A    between atoms: N_12  and  C_13 
REMARK    6  A    between atoms: C_14  and  C_15 
ROOT
HETATM    1  N   UNL     1      23.701  46.270  49.912  1.00  0.00    -0.339 N 
HETATM    2  C   UNL     1      24.266  47.512  50.015  1.00  0.00     0.316 C 
HETATM    3  N   UNL     1      23.895  48.338  48.982  1.00  0.00    -0.338 N 
HETATM    4  O   UNL     1      25.016  47.844  50.925  1.00  0.00    -0.247 OA
HETATM    5  H   UNL     1      23.154  46.039  49.098  1.00  0.00     0.164 HD
HETATM    6  H   UNL     1      23.086  48.067  48.440  1.00  0.00     0.164 HD
ENDROOT
BRANCH   1   7
HETATM    7  C   UNL     1      23.979  45.222  50.869  1.00  0.00     0.163 C 
BRANCH   7   8
HETATM    8  C   UNL     1      25.219  44.441  50.522  1.00  0.00    -0.035 A 
HETATM    9  C   UNL     1      25.232  43.504  49.486  1.00  0.00     0.028 A 
HETATM   10  C   UNL     1      26.390  42.776  49.260  1.00  0.00     0.120 A 
HETATM   11  N   UNL     1      27.513  42.897  49.998  1.00  0.00    -0.237 NA
HETATM   12  C   UNL     1      27.475  43.777  51.015  1.00  0.00     0.165 A 
HETATM   13  C   UNL     1      26.374  44.570  51.301  1.00  0.00     0.066 A 
BRANCH  12  14
HETATM   14  O   UNL     1      28.567  43.952  51.833  1.00  0.00    -0.324 OA
BRANCH  14  15
HETATM   15  C   UNL     1      28.664  43.209  53.063  1.00  0.00     0.058 C 
HETATM   16  C   UNL     1      27.786  41.950  53.057  1.00  0.00     0.045 C 
HETATM   17  C   UNL     1      28.430  44.077  54.310  1.00  0.00     0.045 C 
HETATM   18  C   UNL     1      30.135  42.749  53.095  1.00  0.00     0.045 C 
ENDBRANCH  14  15
ENDBRANCH  12  14
ENDBRANCH   7   8
ENDBRANCH   1   7
BRANCH   3  19
HETATM   19  C   UNL     1      24.297  49.715  48.913  1.00  0.00     0.095 A 
HETATM   20  C   UNL     1      23.293  50.849  48.841  1.00  0.00     0.043 A 
HETATM   21  C   UNL     1      24.121  50.478  47.634  1.00  0.00     0.037 A 
BRANCH  20  22
HETATM   22  C   UNL     1      21.806  50.581  48.863  1.00  0.00    -0.052 A 
HETATM   23  C   UNL     1      21.064  50.706  50.051  1.00  0.00     0.007 A 
HETATM   24  C   UNL     1      19.689  50.465  50.081  1.00  0.00     0.001 A 
HETATM   25  C   UNL     1      19.021  50.105  48.914  1.00  0.00     0.000 A 
HETATM   26  C   UNL     1      19.727  49.990  47.721  1.00  0.00     0.001 A 
HETATM   27  C   UNL     1      21.103  50.229  47.698  1.00  0.00     0.007 A 
ENDBRANCH  20  22
ENDBRANCH   3  19
TORSDOF 6
ENDMDL
MODEL 5
REMARK VINA RESULT:      -7.6      2.942      9.587
REMARK  6 active torsions:
REMARK  status: ('A' for Active; 'I' for Inactive)
REMARK    1  A    between atoms: C_2  and  O_3 
REMARK    2  A    between atoms: O_3  and  C_4 
REMARK    3  A    between atoms: C_8  and  C_9 
REMARK    4  A    between atoms: C_9  and  N_10 
REMARK       I    between atoms: N_10  and  C_11 
REMARK       I    between atoms: C_11  and  N_12 
REMARK    5  A    between atoms: N_12  and  C_13 
REMARK    6  A    between atoms: C_14  and  C_15 
ROOT
HETATM    1  N   UNL     1      22.475  47.985  49.562  1.00  0.00    -0.339 N 
HETATM    2  C   UNL     1      21.836  47.863  48.357  1.00  0.00     0.316 C 
HETATM    3  N   UNL     1      20.471  47.794  48.498  1.00  0.00    -0.338 N 
HETATM    4  O   UNL     1      22.419  47.821  47.281  1.00  0.00    -0.247 OA
HETATM    5  H   UNL     1      21.940  47.937  50.414  1.00  0.00     0.164 HD
HETATM    6  H   UNL     1      20.080  48.096  49.380  1.00  0.00     0.164 HD
ENDROOT
BRANCH   1   7
HETATM    7  C   UNL     1      23.916  48.039  49.661  1.00  0.00     0.163 C 
BRANCH   7   8
HETATM    8  C   UNL     1      24.511  46.733  50.116  1.00  0.00    -0.035 A 
HETATM    9  C   UNL     1      24.074  45.508  49.603  1.00  0.00     0.028 A 
HETATM   10  C   UNL     1      24.621  44.340  50.111  1.00  0.00     0.120 A 
HETATM   11  N   UNL     1      25.543  44.306  51.097  1.00  0.00    -0.237 NA
HETATM   12  C   UNL     1      25.927  45.490  51.606  1.00  0.00     0.165 A 
HETATM   13  C   UNL     1      25.459  46.711  51.144  1.00  0.00     0.066 A 
BRANCH  12  14
HETATM   14  O   UNL     1      26.847  45.549  52.627  1.00  0.00    -0.324 OA
BRANCH  14  15
HETATM   15  C   UNL     1      26.396  45.615  53.993  1.00  0.00     0.058 C 
HETATM   16  C   UNL     1      25.205  44.684  54.260  1.00  0.00     0.045 C 
HETATM   17  C   UNL     1      26.130  47.052  54.470  1.00  0.00     0.045 C 
HETATM   18  C   UNL     1      27.595  45.078  54.799  1.00  0.00     0.045 C 
ENDBRANCH  14  15
ENDBRANCH  12  14
ENDBRANCH   7   8
ENDBRANCH   1   7
BRANCH   3  19
HETATM   19  C   UNL     1      19.581  47.742  47.372  1.00  0.00     0.095 A 
HETATM   20  C   UNL     1      18.586  48.846  47.075  1.00  0.00     0.043 A 
HETATM   21  C   UNL     1      18.117  47.508  47.592  1.00  0.00     0.037 A 
BRANCH  20  22
HETATM   22  C   UNL     1      18.500  50.078  47.946  1.00  0.00    -0.052 A 
HETATM   23  C   UNL     1      19.258  51.226  47.654  1.00  0.00     0.007 A 
HETATM   24  C   UNL     1      19.182  52.372  48.449  1.00  0.00     0.001 A 
HETATM   25  C   UNL     1      18.333  52.397  49.552  1.00  0.00     0.000 A 
HETATM   26  C   UNL     1      17.560  51.281  49.856  1.00  0.00     0.001 A 
HETATM   27  C   UNL     1      17.642  50.137  49.057  1.00  0.00     0.007 A 
ENDBRANCH  20  22
ENDBRANCH   3  19
TORSDOF 6
ENDMDL
MODEL 6
REMARK VINA RESULT:      -7.5      2.876      9.966
REMARK  6 active torsions:
REMARK  status: ('A' for Active; 'I' for Inactive)
REMARK    1  A    between atoms: C_2  and  O_3 
REMARK    2  A    between atoms: O_3  and  C_4 
REMARK    3  A    between atoms: C_8  and  C_9 
REMARK    4  A    between atoms: C_9  and  N_10 
REMARK       I    between atoms: N_10  and  C_11 
REMARK       I    between atoms: C_11  and  N_12 
REMARK    5  A    between atoms: N_12  and  C_13 
REMARK    6  A    between atoms: C_14  and  C_15 
ROOT
HETATM    1  N   UNL     1      22.867  47.915  49.585  1.00  0.00    -0.339 N 
HETATM    2  C   UNL     1      22.567  49.250  49.627  1.00  0.00     0.316 C 
HETATM    3  N   UNL     1      21.212  49.478  49.580  1.00  0.00    -0.338 N 
HETATM    4  O   UNL     1      23.411  50.134  49.699  1.00  0.00    -0.247 OA
HETATM    5  H   UNL     1      22.128  47.244  49.450  1.00  0.00     0.164 HD
HETATM    6  H   UNL     1      20.603  48.698  49.784  1.00  0.00     0.164 HD
ENDROOT
BRANCH   1   7
HETATM    7  C   UNL     1      24.232  47.439  49.587  1.00  0.00     0.163 C 
BRANCH   7   8
HETATM    8  C   UNL     1      24.383  46.127  50.312  1.00  0.00    -0.035 A 
HETATM    9  C   UNL     1      23.849  44.940  49.803  1.00  0.00     0.028 A 
HETATM   10  C   UNL     1      23.971  43.780  50.552  1.00  0.00     0.120 A 
HETATM   11  N   UNL     1      24.558  43.724  51.766  1.00  0.00    -0.237 NA
HETATM   12  C   UNL     1      25.036  44.881  52.259  1.00  0.00     0.165 A 
HETATM   13  C   UNL     1      24.986  46.085  51.573  1.00  0.00     0.066 A 
BRANCH  12  14
HETATM   14  O   UNL     1      25.633  44.921  53.498  1.00  0.00    -0.324 OA
BRANCH  14  15
HETATM   15  C   UNL     1      27.018  44.551  53.635  1.00  0.00     0.058 C 
HETATM   16  C   UNL     1      27.827  45.593  54.419  1.00  0.00     0.045 C 
HETATM   17  C   UNL     1      27.679  44.186  52.296  1.00  0.00     0.045 C 
HETATM   18  C   UNL     1      26.968  43.266  54.486  1.00  0.00     0.045 C 
ENDBRANCH  14  15
ENDBRANCH  12  14
ENDBRANCH   7   8
ENDBRANCH   1   7
BRANCH   3  19
HETATM   19  C   UNL     1      20.648  50.794  49.689  1.00  0.00     0.095 A 
HETATM   20  C   UNL     1      19.304  51.152  49.087  1.00  0.00     0.043 A 
HETATM   21  C   UNL     1      20.581  51.678  48.479  1.00  0.00     0.037 A 
BRANCH  20  22
HETATM   22  C   UNL     1      18.474  50.121  48.356  1.00  0.00    -0.052 A 
HETATM   23  C   UNL     1      18.536  50.000  46.956  1.00  0.00     0.007 A 
HETATM   24  C   UNL     1      17.777  49.048  46.272  1.00  0.00     0.001 A 
HETATM   25  C   UNL     1      16.946  48.183  46.978  1.00  0.00     0.000 A 
HETATM   26  C   UNL     1      16.877  48.270  48.365  1.00  0.00     0.001 A 
HETATM   27  C   UNL     1      17.637  49.226  49.044  1.00  0.00     0.007 A 
ENDBRANCH  20  22
ENDBRANCH   3  19
TORSDOF 6
ENDMDL
MODEL 7
REMARK VINA RESULT:      -7.4      4.100      6.917
REMARK  6 active torsions:
REMARK  status: ('A' for Active; 'I' for Inactive)
REMARK    1  A    between atoms: C_2  and  O_3 
REMARK    2  A    between atoms: O_3  and  C_4 
REMARK    3  A    between atoms: C_8  and  C_9 
REMARK    4  A    between atoms: C_9  and  N_10 
REMARK       I    between atoms: N_10  and  C_11 
REMARK       I    between atoms: C_11  and  N_12 
REMARK    5  A    between atoms: N_12  and  C_13 
REMARK    6  A    between atoms: C_14  and  C_15 
ROOT
HETATM    1  N   UNL     1      25.632  43.794  52.785  1.00  0.00    -0.339 N 
HETATM    2  C   UNL     1      26.192  45.043  52.806  1.00  0.00     0.316 C 
HETATM    3  N   UNL     1      26.372  45.508  54.086  1.00  0.00    -0.338 N 
HETATM    4  O   UNL     1      26.496  45.668  51.798  1.00  0.00    -0.247 OA
HETATM    5  H   UNL     1      25.336  43.367  53.649  1.00  0.00     0.164 HD
HETATM    6  H   UNL     1      26.338  44.831  54.835  1.00  0.00     0.164 HD
ENDROOT
BRANCH   1   7
HETATM    7  C   UNL     1      25.317  43.119  51.546  1.00  0.00     0.163 C 
BRANCH   7   8
HETATM    8  C   UNL     1      26.282  42.005  51.236  1.00  0.00    -0.035 A 
HETATM    9  C   UNL     1      27.489  41.865  51.928  1.00  0.00     0.028 A 
HETATM   10  C   UNL     1      28.359  40.855  51.551  1.00  0.00     0.120 A 
HETATM   11  N   UNL     1      28.127  40.000  50.532  1.00  0.00    -0.237 NA
HETATM   12  C   UNL     1      26.979  40.170  49.852  1.00  0.00     0.165 A 
HETATM   13  C   UNL     1      26.033  41.132  50.172  1.00  0.00     0.066 A 
BRANCH  12  14
HETATM   14  O   UNL     1      26.669  39.357  48.786  1.00  0.00    -0.324 OA
BRANCH  14  15
HETATM   15  C   UNL     1      27.509  39.362  47.617  1.00  0.00     0.058 C 
HETATM   16  C   UNL     1      28.554  38.237  47.643  1.00  0.00     0.045 C 
HETATM   17  C   UNL     1      28.139  40.735  47.333  1.00  0.00     0.045 C 
HETATM   18  C   UNL     1      26.531  39.059  46.464  1.00  0.00     0.045 C 
ENDBRANCH  14  15
ENDBRANCH  12  14
ENDBRANCH   7   8
ENDBRANCH   1   7
BRANCH   3  19
HETATM   19  C   UNL     1      27.015  46.761  54.368  1.00  0.00     0.095 A 
HETATM   20  C   UNL     1      28.422  46.842  54.926  1.00  0.00     0.043 A 
HETATM   21  C   UNL     1      27.232  47.183  55.790  1.00  0.00     0.037 A 
BRANCH  20  22
HETATM   22  C   UNL     1      29.232  45.594  55.193  1.00  0.00    -0.052 A 
HETATM   23  C   UNL     1      30.046  45.489  56.335  1.00  0.00     0.007 A 
HETATM   24  C   UNL     1      30.794  44.338  56.594  1.00  0.00     0.001 A 
HETATM   25  C   UNL     1      30.734  43.258  55.717  1.00  0.00     0.000 A 
HETATM   26  C   UNL     1      29.924  43.329  54.588  1.00  0.00     0.001 A 
HETATM   27  C   UNL     1      29.179  44.484  54.333  1.00  0.00     0.007 A 
ENDBRANCH  20  22
ENDBRANCH   3  19
TORSDOF 6
ENDMDL
MODEL 8
REMARK VINA RESULT:      -7.4      2.603      8.569
REMARK  6 active torsions:
REMARK  status: ('A' for Active; 'I' for Inactive)
REMARK    1  A    between atoms: C_2  and  O_3 
REMARK    2  A    between atoms: O_3  and  C_4 
REMARK    3  A    between atoms: C_8  and  C_9 
REMARK    4  A    between atoms: C_9  and  N_10 
REMARK       I    between atoms: N_10  and  C_11 
REMARK       I    between atoms: C_11  and  N_12 
REMARK    5  A    between atoms: N_12  and  C_13 
REMARK    6  A    between atoms: C_14  and  C_15 
ROOT
HETATM    1  N   UNL     1      22.159  45.740  49.146  1.00  0.00    -0.339 N 
HETATM    2  C   UNL     1      21.675  46.403  48.050  1.00  0.00     0.316 C 
HETATM    3  N   UNL     1      20.369  46.796  48.217  1.00  0.00    -0.338 N 
HETATM    4  O   UNL     1      22.333  46.617  47.040  1.00  0.00    -0.247 OA
HETATM    5  H   UNL     1      21.540  45.532  49.913  1.00  0.00     0.164 HD
HETATM    6  H   UNL     1      20.005  46.808  49.160  1.00  0.00     0.164 HD
ENDROOT
BRANCH   1   7
HETATM    7  C   UNL     1      23.500  45.202  49.182  1.00  0.00     0.163 C 
BRANCH   7   8
HETATM    8  C   UNL     1      24.402  45.966  50.115  1.00  0.00    -0.035 A 
HETATM    9  C   UNL     1      25.126  47.082  49.687  1.00  0.00     0.028 A 
HETATM   10  C   UNL     1      25.985  47.702  50.581  1.00  0.00     0.120 A 
HETATM   11  N   UNL     1      26.187  47.281  51.847  1.00  0.00    -0.237 NA
HETATM   12  C   UNL     1      25.510  46.185  52.235  1.00  0.00     0.165 A 
HETATM   13  C   UNL     1      24.609  45.514  51.422  1.00  0.00     0.066 A 
BRANCH  12  14
HETATM   14  O   UNL     1      25.670  45.674  53.502  1.00  0.00    -0.324 OA
BRANCH  14  15
HETATM   15  C   UNL     1      26.860  44.931  53.828  1.00  0.00     0.058 C 
HETATM   16  C   UNL     1      27.864  45.763  54.638  1.00  0.00     0.045 C 
HETATM   17  C   UNL     1      27.508  44.265  52.604  1.00  0.00     0.045 C 
HETATM   18  C   UNL     1      26.345  43.804  54.745  1.00  0.00     0.045 C 
ENDBRANCH  14  15
ENDBRANCH  12  14
ENDBRANCH   7   8
ENDBRANCH   1   7
BRANCH   3  19
HETATM   19  C   UNL     1      19.667  47.576  47.236  1.00  0.00     0.095 A 
HETATM   20  C   UNL     1      19.841  49.078  47.120  1.00  0.00     0.043 A 
HETATM   21  C   UNL     1      18.561  48.493  47.667  1.00  0.00     0.037 A 
BRANCH  20  22
HETATM   22  C   UNL     1      20.790  49.829  48.025  1.00  0.00    -0.052 A 
HETATM   23  C   UNL     1      22.097  50.137  47.609  1.00  0.00     0.007 A 
HETATM   24  C   UNL     1      22.980  50.835  48.436  1.00  0.00     0.001 A 
HETATM   25  C   UNL     1      22.568  51.251  49.698  1.00  0.00     0.000 A 
HETATM   26  C   UNL     1      21.275  50.974  50.130  1.00  0.00     0.001 A 
HETATM   27  C   UNL     1      20.397  50.273  49.299  1.00  0.00     0.007 A 
ENDBRANCH  20  22
ENDBRANCH   3  19
TORSDOF 6
ENDMDL
MODEL 9
REMARK VINA RESULT:      -7.4      2.454      8.718
REMARK  6 active torsions:
REMARK  status: ('A' for Active; 'I' for Inactive)
REMARK    1  A    between atoms: C_2  and  O_3 
REMARK    2  A    between atoms: O_3  and  C_4 
REMARK    3  A    between atoms: C_8  and  C_9 
REMARK    4  A    between atoms: C_9  and  N_10 
REMARK       I    between atoms: N_10  and  C_11 
REMARK       I    between atoms: C_11  and  N_12 
REMARK    5  A    between atoms: N_12  and  C_13 
REMARK    6  A    between atoms: C_14  and  C_15 
ROOT
HETATM    1  N   UNL     1      22.421  44.650  49.902  1.00  0.00    -0.339 N 
HETATM    2  C   UNL     1      21.460  44.846  48.947  1.00  0.00     0.316 C 
HETATM    3  N   UNL     1      20.733  45.990  49.171  1.00  0.00    -0.338 N 
HETATM    4  O   UNL     1      21.274  44.087  48.005  1.00  0.00    -0.247 OA
HETATM    5  H   UNL     1      22.471  45.273  50.692  1.00  0.00     0.164 HD
HETATM    6  H   UNL     1      21.124  46.672  49.807  1.00  0.00     0.164 HD
ENDROOT
BRANCH   1   7
HETATM    7  C   UNL     1      23.284  43.490  49.890  1.00  0.00     0.163 C 
BRANCH   7   8
HETATM    8  C   UNL     1      24.738  43.854  50.036  1.00  0.00    -0.035 A 
HETATM    9  C   UNL     1      25.260  45.029  49.488  1.00  0.00     0.028 A 
HETATM   10  C   UNL     1      26.620  45.272  49.606  1.00  0.00     0.120 A 
HETATM   11  N   UNL     1      27.488  44.429  50.203  1.00  0.00    -0.237 NA
HETATM   12  C   UNL     1      26.978  43.285  50.693  1.00  0.00     0.165 A 
HETATM   13  C   UNL     1      25.628  42.966  50.649  1.00  0.00     0.066 A 
BRANCH  12  14
HETATM   14  O   UNL     1      27.792  42.357  51.301  1.00  0.00    -0.324 OA
BRANCH  14  15
HETATM   15  C   UNL     1      28.147  42.518  52.687  1.00  0.00     0.058 C 
HETATM   16  C   UNL     1      28.173  41.181  53.442  1.00  0.00     0.045 C 
HETATM   17  C   UNL     1      27.298  43.578  53.408  1.00  0.00     0.045 C 
HETATM   18  C   UNL     1      29.594  43.048  52.633  1.00  0.00     0.045 C 
ENDBRANCH  14  15
ENDBRANCH  12  14
ENDBRANCH   7   8
ENDBRANCH   1   7
BRANCH   3  19
HETATM   19  C   UNL     1      19.720  46.450  48.263  1.00  0.00     0.095 A 
HETATM   20  C   UNL     1      19.621  47.899  47.825  1.00  0.00     0.043 A 
HETATM   21  C   UNL     1      18.601  47.310  48.770  1.00  0.00     0.037 A 
BRANCH  20  22
HETATM   22  C   UNL     1      20.611  48.932  48.312  1.00  0.00    -0.052 A 
HETATM   23  C   UNL     1      21.847  49.113  47.667  1.00  0.00     0.007 A 
HETATM   24  C   UNL     1      22.766  50.069  48.105  1.00  0.00     0.001 A 
HETATM   25  C   UNL     1      22.461  50.877  49.197  1.00  0.00     0.000 A 
HETATM   26  C   UNL     1      21.238  50.731  49.844  1.00  0.00     0.001 A 
HETATM   27  C   UNL     1      20.324  49.771  49.402  1.00  0.00     0.007 A 
ENDBRANCH  20  22
ENDBRANCH   3  19
TORSDOF 6
ENDMDL
MODEL 10
REMARK VINA RESULT:      -7.4      3.654      8.567
REMARK  6 active torsions:
REMARK  status: ('A' for Active; 'I' for Inactive)
REMARK    1  A    between atoms: C_2  and  O_3 
REMARK    2  A    between atoms: O_3  and  C_4 
REMARK    3  A    between atoms: C_8  and  C_9 
REMARK    4  A    between atoms: C_9  and  N_10 
REMARK       I    between atoms: N_10  and  C_11 
REMARK       I    between atoms: C_11  and  N_12 
REMARK    5  A    between atoms: N_12  and  C_13 
REMARK    6  A    between atoms: C_14  and  C_15 
ROOT
HETATM    1  N   UNL     1      20.651  45.744  49.257  1.00  0.00    -0.339 N 
HETATM    2  C   UNL     1      19.737  46.594  48.695  1.00  0.00     0.316 C 
HETATM    3  N   UNL     1      19.248  47.503  49.602  1.00  0.00    -0.338 N 
HETATM    4  O   UNL     1      19.398  46.546  47.520  1.00  0.00    -0.247 OA
HETATM    5  H   UNL     1      20.828  45.790  50.248  1.00  0.00     0.164 HD
HETATM    6  H   UNL     1      19.771  47.631  50.458  1.00  0.00     0.164 HD
ENDROOT
BRANCH   1   7
HETATM    7  C   UNL     1      21.272  44.681  48.500  1.00  0.00     0.163 C 
BRANCH   7   8
HETATM    8  C   UNL     1      22.647  44.339  49.010  1.00  0.00    -0.035 A 
HETATM    9  C   UNL     1      22.899  43.152  49.703  1.00  0.00     0.028 A 
HETATM   10  C   UNL     1      24.174  42.928  50.199  1.00  0.00     0.120 A 
HETATM   11  N   UNL     1      25.196  43.801  50.074  1.00  0.00    -0.237 NA
HETATM   12  C   UNL     1      24.929  44.955  49.437  1.00  0.00     0.165 A 
HETATM   13  C   UNL     1      23.694  45.256  48.882  1.00  0.00     0.066 A 
BRANCH  12  14
HETATM   14  O   UNL     1      25.905  45.912  49.281  1.00  0.00    -0.324 OA
BRANCH  14  15
HETATM   15  C   UNL     1      25.828  47.139  50.031  1.00  0.00     0.058 C 
HETATM   16  C   UNL     1      26.058  46.921  51.533  1.00  0.00     0.045 C 
HETATM   17  C   UNL     1      24.546  47.939  49.747  1.00  0.00     0.045 C 
HETATM   18  C   UNL     1      27.013  47.967  49.495  1.00  0.00     0.045 C 
ENDBRANCH  14  15
ENDBRANCH  12  14
ENDBRANCH   7   8
ENDBRANCH   1   7
BRANCH   3  19
HETATM   19  C   UNL     1      18.335  48.548  49.231  1.00  0.00     0.095 A 
HETATM   20  C   UNL     1      18.807  49.935  48.840  1.00  0.00     0.043 A 
HETATM   21  C   UNL     1      18.111  49.704  50.159  1.00  0.00     0.037 A 
BRANCH  20  22
HETATM   22  C   UNL     1      20.278  50.278  48.799  1.00  0.00    -0.052 A 
HETATM   23  C   UNL     1      20.947  50.740  49.946  1.00  0.00     0.007 A 
HETATM   24  C   UNL     1      22.308  51.055  49.920  1.00  0.00     0.001 A 
HETATM   25  C   UNL     1      23.034  50.904  48.743  1.00  0.00     0.000 A 
HETATM   26  C   UNL     1      22.401  50.434  47.596  1.00  0.00     0.001 A 
HETATM   27  C   UNL     1      21.039  50.122  47.628  1.00  0.00     0.007 A 
ENDBRANCH  20  22
ENDBRANCH   3  19
TORSDOF 6
ENDMDL
