MODEL 1
REMARK VINA RESULT:      -9.9      0.000      0.000
REMARK  10 active torsions:
REMARK  status: ('A' for Active; 'I' for Inactive)
REMARK    1  A    between atoms: C_2  and  C_3 
REMARK    2  A    between atoms: C_3  and  O_4 
REMARK    3  A    between atoms: O_4  and  C_5 
REMARK    4  A    between atoms: C_8  and  C_9 
REMARK       I    between atoms: C_9  and  N_10 
REMARK    5  A    between atoms: N_10  and  C_11 
REMARK    6  A    between atoms: C_11  and  N_12 
REMARK    7  A    between atoms: N_12  and  C_13 
REMARK    8  A    between atoms: C_16  and  N_17 
REMARK    9  A    between atoms: N_20  and  C_22 
REMARK   10  A    between atoms: C_22  and  C_23 
ROOT
HETATM    1  C   UNL     1      23.894  46.983  49.633  1.00  0.00     0.034 A 
HETATM    2  C   UNL     1      24.725  47.553  50.597  1.00  0.00     0.032 A 
HETATM    3  C   UNL     1      25.316  46.763  51.592  1.00  0.00     0.031 A 
HETATM    4  C   UNL     1      25.077  45.384  51.679  1.00  0.00     0.030 A 
HETATM    5  C   UNL     1      24.227  44.833  50.713  1.00  0.00     0.031 A 
HETATM    6  C   UNL     1      23.652  45.615  49.698  1.00  0.00     0.032 A 
ENDROOT
BRANCH   1   7
HETATM    7  N   UNL     1      23.264  47.861  48.730  1.00  0.00    -0.333 N 
HETATM    8  H   UNL     1      22.548  47.429  48.142  1.00  0.00     0.168 HD
BRANCH   7   9
HETATM    9  C   UNL     1      23.479  49.185  48.433  1.00  0.00     0.179 C 
HETATM   10  S   UNL     1      24.923  49.951  48.080  1.00  0.00    -0.040 SA
BRANCH   9  11
HETATM   11  N   UNL     1      22.339  49.973  48.434  1.00  0.00    -0.299 N 
HETATM   12  C   UNL     1      21.826  50.701  49.498  1.00  0.00     0.257 C 
HETATM   13  O   UNL     1      22.477  51.025  50.487  1.00  0.00    -0.267 OA
HETATM   14  H   UNL     1      21.735  49.792  47.643  1.00  0.00     0.171 HD
BRANCH  12  15
HETATM   15  C   UNL     1      20.391  51.059  49.399  1.00  0.00     0.032 A 
HETATM   16  C   UNL     1      19.487  50.355  50.200  1.00  0.00     0.020 A 
HETATM   17  C   UNL     1      18.116  50.605  50.102  1.00  0.00     0.038 A 
HETATM   18  C   UNL     1      17.644  51.571  49.211  1.00  0.00     0.068 A 
HETATM   19  C   UNL     1      18.557  52.295  48.438  1.00  0.00     0.038 A 
HETATM   20  C   UNL     1      19.929  52.044  48.523  1.00  0.00     0.020 A 
BRANCH  18  21
HETATM   21  O   UNL     1      16.333  51.904  49.013  1.00  0.00    -0.351 OA
BRANCH  21  22
HETATM   22  C   UNL     1      15.679  52.615  50.067  1.00  0.00     0.175 C 
BRANCH  22  23
HETATM   23  C   UNL     1      15.021  53.852  49.464  1.00  0.00     0.022 C 
HETATM   24  C   UNL     1      14.596  53.618  48.025  1.00  0.00     0.007 C 
ENDBRANCH  22  23
ENDBRANCH  21  22
ENDBRANCH  18  21
ENDBRANCH  12  15
ENDBRANCH   9  11
ENDBRANCH   7   9
ENDBRANCH   1   7
BRANCH   4  25
HETATM   25  N   UNL     1      25.629  44.649  52.724  1.00  0.00    -0.378 N 
HETATM   26  C   UNL     1      25.280  45.062  54.096  1.00  0.00     0.150 C 
HETATM   27  C   UNL     1      26.388  45.954  54.698  1.00  0.00     0.255 C 
HETATM   28  N   UNL     1      27.746  45.247  54.614  1.00  0.00    -0.064 N 
HETATM   29  H   UNL     1      27.654  44.375  55.149  1.00  0.00     0.280 HD
HETATM   30  C   UNL     1      28.070  44.867  53.172  1.00  0.00     0.255 C 
HETATM   31  C   UNL     1      26.942  44.004  52.574  1.00  0.00     0.150 C 
BRANCH  28  32
HETATM   32  C   UNL     1      28.864  46.037  55.244  1.00  0.00     0.273 C 
BRANCH  32  33
HETATM   33  C   UNL     1      29.804  45.181  56.047  1.00  0.00    -0.033 A 
HETATM   34  C   UNL     1      30.171  45.553  57.349  1.00  0.00     0.009 A 
HETATM   35  C   UNL     1      31.062  44.770  58.084  1.00  0.00     0.001 A 
HETATM   36  C   UNL     1      31.592  43.608  57.526  1.00  0.00     0.000 A 
HETATM   37  C   UNL     1      31.230  43.225  56.237  1.00  0.00     0.001 A 
HETATM   38  C   UNL     1      30.340  44.005  55.499  1.00  0.00     0.009 A 
ENDBRANCH  32  33
ENDBRANCH  28  32
ENDBRANCH   4  25
TORSDOF 10
ENDMDL
MODEL 2
REMARK VINA RESULT:      -9.8      1.785      2.150
REMARK  10 active torsions:
REMARK  status: ('A' for Active; 'I' for Inactive)
REMARK    1  A    between atoms: C_2  and  C_3 
REMARK    2  A    between atoms: C_3  and  O_4 
REMARK    3  A    between atoms: O_4  and  C_5 
REMARK    4  A    between atoms: C_8  and  C_9 
REMARK       I    between atoms: C_9  and  N_10 
REMARK    5  A    between atoms: N_10  and  C_11 
REMARK    6  A    between atoms: C_11  and  N_12 
REMARK    7  A    between atoms: N_12  and  C_13 
REMARK    8  A    between atoms: C_16  and  N_17 
REMARK    9  A    between atoms: N_20  and  C_22 
REMARK   10  A    between atoms: C_22  and  C_23 
ROOT
HETATM    1  C   UNL     1      23.598  45.525  49.355  1.00  0.00     0.034 A 
HETATM    2  C   UNL     1      23.403  44.205  49.763  1.00  0.00     0.032 A 
HETATM    3  C   UNL     1      24.016  43.717  50.926  1.00  0.00     0.031 A 
HETATM    4  C   UNL     1      24.867  44.516  51.703  1.00  0.00     0.030 A 
HETATM    5  C   UNL     1      25.063  45.831  51.267  1.00  0.00     0.031 A 
HETATM    6  C   UNL     1      24.431  46.334  50.118  1.00  0.00     0.032 A 
ENDROOT
BRANCH   1   7
HETATM    7  N   UNL     1      23.026  45.905  48.126  1.00  0.00    -0.333 N 
HETATM    8  H   UNL     1      23.681  46.316  47.458  1.00  0.00     0.168 HD
BRANCH   7   9
HETATM    9  C   UNL     1      21.728  45.898  47.674  1.00  0.00     0.179 C 
HETATM   10  S   UNL     1      20.856  44.623  47.034  1.00  0.00    -0.040 SA
BRANCH   9  11
HETATM   11  N   UNL     1      21.074  47.117  47.768  1.00  0.00    -0.299 N 
HETATM   12  C   UNL     1      21.656  48.371  47.877  1.00  0.00     0.257 C 
HETATM   13  O   UNL     1      22.818  48.620  47.572  1.00  0.00    -0.267 OA
HETATM   14  H   UNL     1      20.096  47.021  48.004  1.00  0.00     0.171 HD
BRANCH  12  15
HETATM   15  C   UNL     1      20.786  49.436  48.431  1.00  0.00     0.032 A 
HETATM   16  C   UNL     1      19.756  49.052  49.295  1.00  0.00     0.020 A 
HETATM   17  C   UNL     1      18.865  50.006  49.796  1.00  0.00     0.038 A 
HETATM   18  C   UNL     1      19.010  51.349  49.447  1.00  0.00     0.068 A 
HETATM   19  C   UNL     1      20.064  51.730  48.610  1.00  0.00     0.038 A 
HETATM   20  C   UNL     1      20.953  50.782  48.096  1.00  0.00     0.020 A 
BRANCH  18  21
HETATM   21  O   UNL     1      18.206  52.375  49.859  1.00  0.00    -0.351 OA
BRANCH  21  22
HETATM   22  C   UNL     1      16.805  52.105  49.946  1.00  0.00     0.175 C 
BRANCH  22  23
HETATM   23  C   UNL     1      16.072  53.441  50.023  1.00  0.00     0.022 C 
HETATM   24  C   UNL     1      14.739  53.309  50.736  1.00  0.00     0.007 C 
ENDBRANCH  22  23
ENDBRANCH  21  22
ENDBRANCH  18  21
ENDBRANCH  12  15
ENDBRANCH   9  11
ENDBRANCH   7   9
ENDBRANCH   1   7
BRANCH   4  25
HETATM   25  N   UNL     1      25.510  43.970  52.811  1.00  0.00    -0.378 N 
HETATM   26  C   UNL     1      25.196  44.557  54.128  1.00  0.00     0.150 C 
HETATM   27  C   UNL     1      26.272  45.585  54.539  1.00  0.00     0.255 C 
HETATM   28  N   UNL     1      27.667  44.950  54.483  1.00  0.00    -0.064 N 
HETATM   29  H   UNL     1      27.653  44.160  55.140  1.00  0.00     0.280 HD
HETATM   30  C   UNL     1      27.949  44.386  53.094  1.00  0.00     0.255 C 
HETATM   31  C   UNL     1      26.852  43.384  52.684  1.00  0.00     0.150 C 
BRANCH  28  32
HETATM   32  C   UNL     1      28.760  45.884  54.936  1.00  0.00     0.273 C 
BRANCH  32  33
HETATM   33  C   UNL     1      29.669  45.264  55.961  1.00  0.00    -0.033 A 
HETATM   34  C   UNL     1      29.812  45.844  57.231  1.00  0.00     0.009 A 
HETATM   35  C   UNL     1      30.675  45.282  58.173  1.00  0.00     0.001 A 
HETATM   36  C   UNL     1      31.400  44.134  57.856  1.00  0.00     0.000 A 
HETATM   37  C   UNL     1      31.261  43.546  56.601  1.00  0.00     0.001 A 
HETATM   38  C   UNL     1      30.400  44.105  55.657  1.00  0.00     0.009 A 
ENDBRANCH  32  33
ENDBRANCH  28  32
ENDBRANCH   4  25
TORSDOF 10
ENDMDL
MODEL 3
REMARK VINA RESULT:      -9.6      1.278      1.857
REMARK  10 active torsions:
REMARK  status: ('A' for Active; 'I' for Inactive)
REMARK    1  A    between atoms: C_2  and  C_3 
REMARK    2  A    between atoms: C_3  and  O_4 
REMARK    3  A    between atoms: O_4  and  C_5 
REMARK    4  A    between atoms: C_8  and  C_9 
REMARK       I    between atoms: C_9  and  N_10 
REMARK    5  A    between atoms: N_10  and  C_11 
REMARK    6  A    between atoms: C_11  and  N_12 
REMARK    7  A    between atoms: N_12  and  C_13 
REMARK    8  A    between atoms: C_16  and  N_17 
REMARK    9  A    between atoms: N_20  and  C_22 
REMARK   10  A    between atoms: C_22  and  C_23 
ROOT
HETATM    1  C   UNL     1      24.141  46.918  49.954  1.00  0.00     0.034 A 
HETATM    2  C   UNL     1      23.863  45.554  49.875  1.00  0.00     0.032 A 
HETATM    3  C   UNL     1      24.341  44.667  50.850  1.00  0.00     0.031 A 
HETATM    4  C   UNL     1      25.135  45.104  51.919  1.00  0.00     0.030 A 
HETATM    5  C   UNL     1      25.418  46.473  51.972  1.00  0.00     0.031 A 
HETATM    6  C   UNL     1      24.921  47.371  51.013  1.00  0.00     0.032 A 
ENDROOT
BRANCH   1   7
HETATM    7  N   UNL     1      23.707  47.724  48.884  1.00  0.00    -0.333 N 
HETATM    8  H   UNL     1      23.124  47.243  48.196  1.00  0.00     0.168 HD
BRANCH   7   9
HETATM    9  C   UNL     1      23.980  49.027  48.544  1.00  0.00     0.179 C 
HETATM   10  S   UNL     1      25.470  49.758  48.338  1.00  0.00    -0.040 SA
BRANCH   9  11
HETATM   11  N   UNL     1      22.863  49.824  48.353  1.00  0.00    -0.299 N 
HETATM   12  C   UNL     1      22.200  50.578  49.312  1.00  0.00     0.257 C 
HETATM   13  O   UNL     1      22.694  50.916  50.383  1.00  0.00    -0.267 OA
HETATM   14  H   UNL     1      22.386  49.632  47.483  1.00  0.00     0.171 HD
BRANCH  12  15
HETATM   15  C   UNL     1      20.802  50.945  48.985  1.00  0.00     0.032 A 
HETATM   16  C   UNL     1      19.973  51.352  50.035  1.00  0.00     0.020 A 
HETATM   17  C   UNL     1      18.628  51.648  49.797  1.00  0.00     0.038 A 
HETATM   18  C   UNL     1      18.111  51.553  48.504  1.00  0.00     0.068 A 
HETATM   19  C   UNL     1      18.954  51.178  47.453  1.00  0.00     0.038 A 
HETATM   20  C   UNL     1      20.298  50.870  47.685  1.00  0.00     0.020 A 
BRANCH  18  21
HETATM   21  O   UNL     1      16.817  51.805  48.139  1.00  0.00    -0.351 OA
BRANCH  21  22
HETATM   22  C   UNL     1      16.205  50.878  47.241  1.00  0.00     0.175 C 
BRANCH  22  23
HETATM   23  C   UNL     1      15.512  49.803  48.072  1.00  0.00     0.022 C 
HETATM   24  C   UNL     1      16.243  48.475  47.994  1.00  0.00     0.007 C 
ENDBRANCH  22  23
ENDBRANCH  21  22
ENDBRANCH  18  21
ENDBRANCH  12  15
ENDBRANCH   9  11
ENDBRANCH   7   9
ENDBRANCH   1   7
BRANCH   4  25
HETATM   25  N   UNL     1      25.646  44.179  52.826  1.00  0.00    -0.378 N 
HETATM   26  C   UNL     1      26.005  44.678  54.167  1.00  0.00     0.150 C 
HETATM   27  C   UNL     1      27.519  44.968  54.256  1.00  0.00     0.255 C 
HETATM   28  N   UNL     1      28.324  43.731  53.844  1.00  0.00    -0.064 N 
HETATM   29  H   UNL     1      28.061  42.982  54.495  1.00  0.00     0.280 HD
HETATM   30  C   UNL     1      27.935  43.275  52.441  1.00  0.00     0.255 C 
HETATM   31  C   UNL     1      26.417  43.019  52.358  1.00  0.00     0.150 C 
BRANCH  28  32
HETATM   32  C   UNL     1      29.814  43.926  53.970  1.00  0.00     0.273 C 
BRANCH  32  33
HETATM   33  C   UNL     1      30.255  44.146  55.390  1.00  0.00    -0.033 A 
HETATM   34  C   UNL     1      29.943  45.343  56.056  1.00  0.00     0.009 A 
HETATM   35  C   UNL     1      30.374  45.556  57.366  1.00  0.00     0.001 A 
HETATM   36  C   UNL     1      31.116  44.577  58.024  1.00  0.00     0.000 A 
HETATM   37  C   UNL     1      31.426  43.383  57.376  1.00  0.00     0.001 A 
HETATM   38  C   UNL     1      30.998  43.167  56.066  1.00  0.00     0.009 A 
ENDBRANCH  32  33
ENDBRANCH  28  32
ENDBRANCH   4  25
TORSDOF 10
ENDMDL
MODEL 4
REMARK VINA RESULT:      -9.3      2.784     12.829
REMARK  10 active torsions:
REMARK  status: ('A' for Active; 'I' for Inactive)
REMARK    1  A    between atoms: C_2  and  C_3 
REMARK    2  A    between atoms: C_3  and  O_4 
REMARK    3  A    between atoms: O_4  and  C_5 
REMARK    4  A    between atoms: C_8  and  C_9 
REMARK       I    between atoms: C_9  and  N_10 
REMARK    5  A    between atoms: N_10  and  C_11 
REMARK    6  A    between atoms: C_11  and  N_12 
REMARK    7  A    between atoms: N_12  and  C_13 
REMARK    8  A    between atoms: C_16  and  N_17 
REMARK    9  A    between atoms: N_20  and  C_22 
REMARK   10  A    between atoms: C_22  and  C_23 
ROOT
HETATM    1  C   UNL     1      23.723  47.047  49.334  1.00  0.00     0.034 A 
HETATM    2  C   UNL     1      22.779  46.466  48.488  1.00  0.00     0.032 A 
HETATM    3  C   UNL     1      21.781  47.245  47.885  1.00  0.00     0.031 A 
HETATM    4  C   UNL     1      21.672  48.622  48.127  1.00  0.00     0.030 A 
HETATM    5  C   UNL     1      22.618  49.183  48.992  1.00  0.00     0.031 A 
HETATM    6  C   UNL     1      23.636  48.413  49.579  1.00  0.00     0.032 A 
ENDROOT
BRANCH   1   7
HETATM    7  N   UNL     1      24.629  46.179  49.974  1.00  0.00    -0.333 N 
HETATM    8  H   UNL     1      25.613  46.357  49.763  1.00  0.00     0.168 HD
BRANCH   7   9
HETATM    9  C   UNL     1      24.439  45.082  50.780  1.00  0.00     0.179 C 
HETATM   10  S   UNL     1      23.442  43.764  50.523  1.00  0.00    -0.040 SA
BRANCH   9  11
HETATM   11  N   UNL     1      25.176  45.089  51.953  1.00  0.00    -0.299 N 
HETATM   12  C   UNL     1      25.676  46.198  52.620  1.00  0.00     0.257 C 
HETATM   13  O   UNL     1      25.262  47.342  52.460  1.00  0.00    -0.267 OA
HETATM   14  H   UNL     1      25.555  44.180  52.185  1.00  0.00     0.171 HD
BRANCH  12  15
HETATM   15  C   UNL     1      26.801  45.935  53.549  1.00  0.00     0.032 A 
HETATM   16  C   UNL     1      27.169  46.954  54.433  1.00  0.00     0.020 A 
HETATM   17  C   UNL     1      28.262  46.786  55.286  1.00  0.00     0.038 A 
HETATM   18  C   UNL     1      28.983  45.591  55.270  1.00  0.00     0.068 A 
HETATM   19  C   UNL     1      28.588  44.563  54.409  1.00  0.00     0.038 A 
HETATM   20  C   UNL     1      27.502  44.727  53.544  1.00  0.00     0.020 A 
BRANCH  18  21
HETATM   21  O   UNL     1      30.072  45.304  56.045  1.00  0.00    -0.351 OA
BRANCH  21  22
HETATM   22  C   UNL     1      30.684  44.026  55.855  1.00  0.00     0.175 C 
BRANCH  22  23
HETATM   23  C   UNL     1      31.540  43.726  57.081  1.00  0.00     0.022 C 
HETATM   24  C   UNL     1      31.227  44.667  58.230  1.00  0.00     0.007 C 
ENDBRANCH  22  23
ENDBRANCH  21  22
ENDBRANCH  18  21
ENDBRANCH  12  15
ENDBRANCH   9  11
ENDBRANCH   7   9
ENDBRANCH   1   7
BRANCH   4  25
HETATM   25  N   UNL     1      20.625  49.344  47.562  1.00  0.00    -0.378 N 
HETATM   26  C   UNL     1      20.665  50.812  47.705  1.00  0.00     0.150 C 
HETATM   27  C   UNL     1      19.785  51.271  48.887  1.00  0.00     0.255 C 
HETATM   28  N   UNL     1      18.361  50.724  48.737  1.00  0.00    -0.064 N 
HETATM   29  H   UNL     1      17.998  51.096  47.851  1.00  0.00     0.280 HD
HETATM   30  C   UNL     1      18.375  49.203  48.622  1.00  0.00     0.255 C 
HETATM   31  C   UNL     1      19.281  48.757  47.458  1.00  0.00     0.150 C 
BRANCH  28  32
HETATM   32  C   UNL     1      17.430  51.189  49.828  1.00  0.00     0.273 C 
BRANCH  32  33
HETATM   33  C   UNL     1      16.392  52.159  49.334  1.00  0.00    -0.033 A 
HETATM   34  C   UNL     1      15.828  53.104  50.206  1.00  0.00     0.009 A 
HETATM   35  C   UNL     1      14.847  53.987  49.753  1.00  0.00     0.001 A 
HETATM   36  C   UNL     1      14.423  53.936  48.426  1.00  0.00     0.000 A 
HETATM   37  C   UNL     1      14.980  53.007  47.550  1.00  0.00     0.001 A 
HETATM   38  C   UNL     1      15.960  52.122  48.000  1.00  0.00     0.009 A 
ENDBRANCH  32  33
ENDBRANCH  28  32
ENDBRANCH   4  25
TORSDOF 10
ENDMDL
MODEL 5
REMARK VINA RESULT:      -9.0      3.163     12.812
REMARK  10 active torsions:
REMARK  status: ('A' for Active; 'I' for Inactive)
REMARK    1  A    between atoms: C_2  and  C_3 
REMARK    2  A    between atoms: C_3  and  O_4 
REMARK    3  A    between atoms: O_4  and  C_5 
REMARK    4  A    between atoms: C_8  and  C_9 
REMARK       I    between atoms: C_9  and  N_10 
REMARK    5  A    between atoms: N_10  and  C_11 
REMARK    6  A    between atoms: C_11  and  N_12 
REMARK    7  A    between atoms: N_12  and  C_13 
REMARK    8  A    between atoms: C_16  and  N_17 
REMARK    9  A    between atoms: N_20  and  C_22 
REMARK   10  A    between atoms: C_22  and  C_23 
ROOT
HETATM    1  C   UNL     1      24.316  46.036  49.776  1.00  0.00     0.034 A 
HETATM    2  C   UNL     1      24.423  47.415  49.958  1.00  0.00     0.032 A 
HETATM    3  C   UNL     1      23.555  48.295  49.296  1.00  0.00     0.031 A 
HETATM    4  C   UNL     1      22.573  47.834  48.408  1.00  0.00     0.030 A 
HETATM    5  C   UNL     1      22.492  46.449  48.226  1.00  0.00     0.031 A 
HETATM    6  C   UNL     1      23.341  45.560  48.906  1.00  0.00     0.032 A 
ENDROOT
BRANCH   1   7
HETATM    7  N   UNL     1      25.287  45.230  50.401  1.00  0.00    -0.333 N 
HETATM    8  H   UNL     1      26.233  45.618  50.394  1.00  0.00     0.168 HD
BRANCH   7   9
HETATM    9  C   UNL     1      25.221  43.977  50.959  1.00  0.00     0.179 C 
HETATM   10  S   UNL     1      24.101  42.769  50.673  1.00  0.00    -0.040 SA
BRANCH   9  11
HETATM   11  N   UNL     1      26.221  43.696  51.877  1.00  0.00    -0.299 N 
HETATM   12  C   UNL     1      26.205  43.965  53.238  1.00  0.00     0.257 C 
HETATM   13  O   UNL     1      25.184  44.181  53.885  1.00  0.00    -0.267 OA
HETATM   14  H   UNL     1      27.109  43.489  51.441  1.00  0.00     0.171 HD
BRANCH  12  15
HETATM   15  C   UNL     1      27.531  44.015  53.898  1.00  0.00     0.032 A 
HETATM   16  C   UNL     1      28.333  42.871  53.835  1.00  0.00     0.020 A 
HETATM   17  C   UNL     1      29.565  42.838  54.494  1.00  0.00     0.038 A 
HETATM   18  C   UNL     1      30.007  43.954  55.206  1.00  0.00     0.068 A 
HETATM   19  C   UNL     1      29.214  45.107  55.236  1.00  0.00     0.038 A 
HETATM   20  C   UNL     1      27.976  45.144  54.589  1.00  0.00     0.020 A 
BRANCH  18  21
HETATM   21  O   UNL     1      31.182  44.048  55.898  1.00  0.00    -0.351 OA
BRANCH  21  22
HETATM   22  C   UNL     1      31.201  43.508  57.221  1.00  0.00     0.175 C 
BRANCH  22  23
HETATM   23  C   UNL     1      31.513  44.644  58.190  1.00  0.00     0.022 C 
HETATM   24  C   UNL     1      30.266  45.427  58.558  1.00  0.00     0.007 C 
ENDBRANCH  22  23
ENDBRANCH  21  22
ENDBRANCH  18  21
ENDBRANCH  12  15
ENDBRANCH   9  11
ENDBRANCH   7   9
ENDBRANCH   1   7
BRANCH   4  25
HETATM   25  N   UNL     1      21.778  48.746  47.719  1.00  0.00    -0.378 N 
HETATM   26  C   UNL     1      22.222  50.153  47.709  1.00  0.00     0.150 C 
HETATM   27  C   UNL     1      21.482  50.968  48.791  1.00  0.00     0.255 C 
HETATM   28  N   UNL     1      19.965  50.819  48.627  1.00  0.00    -0.064 N 
HETATM   29  H   UNL     1      19.737  51.172  47.690  1.00  0.00     0.280 HD
HETATM   30  C   UNL     1      19.558  49.349  48.674  1.00  0.00     0.255 C 
HETATM   31  C   UNL     1      20.327  48.542  47.609  1.00  0.00     0.150 C 
BRANCH  28  32
HETATM   32  C   UNL     1      19.180  51.643  49.615  1.00  0.00     0.273 C 
BRANCH  32  33
HETATM   33  C   UNL     1      17.806  51.996  49.118  1.00  0.00    -0.033 A 
HETATM   34  C   UNL     1      17.525  52.000  47.742  1.00  0.00     0.009 A 
HETATM   35  C   UNL     1      16.256  52.353  47.281  1.00  0.00     0.001 A 
HETATM   36  C   UNL     1      15.256  52.701  48.188  1.00  0.00     0.000 A 
HETATM   37  C   UNL     1      15.521  52.694  49.555  1.00  0.00     0.001 A 
HETATM   38  C   UNL     1      16.788  52.344  50.020  1.00  0.00     0.009 A 
ENDBRANCH  32  33
ENDBRANCH  28  32
ENDBRANCH   4  25
TORSDOF 10
ENDMDL
MODEL 6
REMARK VINA RESULT:      -8.9      3.619     12.534
REMARK  10 active torsions:
REMARK  status: ('A' for Active; 'I' for Inactive)
REMARK    1  A    between atoms: C_2  and  C_3 
REMARK    2  A    between atoms: C_3  and  O_4 
REMARK    3  A    between atoms: O_4  and  C_5 
REMARK    4  A    between atoms: C_8  and  C_9 
REMARK       I    between atoms: C_9  and  N_10 
REMARK    5  A    between atoms: N_10  and  C_11 
REMARK    6  A    between atoms: C_11  and  N_12 
REMARK    7  A    between atoms: N_12  and  C_13 
REMARK    8  A    between atoms: C_16  and  N_17 
REMARK    9  A    between atoms: N_20  and  C_22 
REMARK   10  A    between atoms: C_22  and  C_23 
ROOT
HETATM    1  C   UNL     1      23.931  44.212  48.506  1.00  0.00     0.034 A 
HETATM    2  C   UNL     1      23.684  45.470  49.057  1.00  0.00     0.032 A 
HETATM    3  C   UNL     1      22.489  46.150  48.785  1.00  0.00     0.031 A 
HETATM    4  C   UNL     1      21.513  45.615  47.932  1.00  0.00     0.030 A 
HETATM    5  C   UNL     1      21.787  44.360  47.375  1.00  0.00     0.031 A 
HETATM    6  C   UNL     1      22.971  43.662  47.665  1.00  0.00     0.032 A 
ENDROOT
BRANCH   1   7
HETATM    7  N   UNL     1      25.195  43.643  48.751  1.00  0.00    -0.333 N 
HETATM    8  H   UNL     1      25.937  43.960  48.123  1.00  0.00     0.168 HD
BRANCH   7   9
HETATM    9  C   UNL     1      25.613  42.677  49.635  1.00  0.00     0.179 C 
HETATM   10  S   UNL     1      25.541  41.014  49.469  1.00  0.00    -0.040 SA
BRANCH   9  11
HETATM   11  N   UNL     1      26.161  43.164  50.811  1.00  0.00    -0.299 N 
HETATM   12  C   UNL     1      27.214  44.059  50.934  1.00  0.00     0.257 C 
HETATM   13  O   UNL     1      27.593  44.805  50.036  1.00  0.00    -0.267 OA
HETATM   14  H   UNL     1      25.896  42.623  51.623  1.00  0.00     0.171 HD
BRANCH  12  15
HETATM   15  C   UNL     1      27.911  44.054  52.243  1.00  0.00     0.032 A 
HETATM   16  C   UNL     1      27.448  44.928  53.231  1.00  0.00     0.020 A 
HETATM   17  C   UNL     1      28.106  45.012  54.461  1.00  0.00     0.038 A 
HETATM   18  C   UNL     1      29.221  44.212  54.713  1.00  0.00     0.068 A 
HETATM   19  C   UNL     1      29.657  43.315  53.732  1.00  0.00     0.038 A 
HETATM   20  C   UNL     1      29.011  43.232  52.496  1.00  0.00     0.020 A 
BRANCH  18  21
HETATM   21  O   UNL     1      29.956  44.203  55.866  1.00  0.00    -0.351 OA
BRANCH  21  22
HETATM   22  C   UNL     1      31.067  43.306  55.919  1.00  0.00     0.175 C 
BRANCH  22  23
HETATM   23  C   UNL     1      31.807  43.549  57.231  1.00  0.00     0.022 C 
HETATM   24  C   UNL     1      31.119  44.605  58.077  1.00  0.00     0.007 C 
ENDBRANCH  22  23
ENDBRANCH  21  22
ENDBRANCH  18  21
ENDBRANCH  12  15
ENDBRANCH   9  11
ENDBRANCH   7   9
ENDBRANCH   1   7
BRANCH   4  25
HETATM   25  N   UNL     1      20.372  46.354  47.634  1.00  0.00    -0.378 N 
HETATM   26  C   UNL     1      20.535  47.508  46.729  1.00  0.00     0.150 C 
HETATM   27  C   UNL     1      20.662  48.820  47.533  1.00  0.00     0.255 C 
HETATM   28  N   UNL     1      19.476  48.975  48.492  1.00  0.00    -0.064 N 
HETATM   29  H   UNL     1      18.630  48.989  47.911  1.00  0.00     0.280 HD
HETATM   30  C   UNL     1      19.372  47.770  49.423  1.00  0.00     0.255 C 
HETATM   31  C   UNL     1      19.277  46.466  48.608  1.00  0.00     0.150 C 
BRANCH  28  32
HETATM   32  C   UNL     1      19.506  50.270  49.264  1.00  0.00     0.273 C 
BRANCH  32  33
HETATM   33  C   UNL     1      18.181  50.982  49.259  1.00  0.00    -0.033 A 
HETATM   34  C   UNL     1      17.077  50.429  48.590  1.00  0.00     0.009 A 
HETATM   35  C   UNL     1      15.855  51.102  48.566  1.00  0.00     0.001 A 
HETATM   36  C   UNL     1      15.723  52.331  49.211  1.00  0.00     0.000 A 
HETATM   37  C   UNL     1      16.809  52.885  49.883  1.00  0.00     0.001 A 
HETATM   38  C   UNL     1      18.033  52.216  49.909  1.00  0.00     0.009 A 
ENDBRANCH  32  33
ENDBRANCH  28  32
ENDBRANCH   4  25
TORSDOF 10
ENDMDL
MODEL 7
REMARK VINA RESULT:      -8.9      2.219      3.007
REMARK  10 active torsions:
REMARK  status: ('A' for Active; 'I' for Inactive)
REMARK    1  A    between atoms: C_2  and  C_3 
REMARK    2  A    between atoms: C_3  and  O_4 
REMARK    3  A    between atoms: O_4  and  C_5 
REMARK    4  A    between atoms: C_8  and  C_9 
REMARK       I    between atoms: C_9  and  N_10 
REMARK    5  A    between atoms: N_10  and  C_11 
REMARK    6  A    between atoms: C_11  and  N_12 
REMARK    7  A    between atoms: N_12  and  C_13 
REMARK    8  A    between atoms: C_16  and  N_17 
REMARK    9  A    between atoms: N_20  and  C_22 
REMARK   10  A    between atoms: C_22  and  C_23 
ROOT
HETATM    1  C   UNL     1      22.080  46.181  48.461  1.00  0.00     0.034 A 
HETATM    2  C   UNL     1      22.627  47.399  48.863  1.00  0.00     0.032 A 
HETATM    3  C   UNL     1      23.913  47.459  49.418  1.00  0.00     0.031 A 
HETATM    4  C   UNL     1      24.685  46.305  49.618  1.00  0.00     0.030 A 
HETATM    5  C   UNL     1      24.112  45.091  49.224  1.00  0.00     0.031 A 
HETATM    6  C   UNL     1      22.834  45.027  48.644  1.00  0.00     0.032 A 
ENDROOT
BRANCH   1   7
HETATM    7  N   UNL     1      20.748  46.196  48.005  1.00  0.00    -0.333 N 
HETATM    8  H   UNL     1      20.169  45.427  48.348  1.00  0.00     0.168 HD
BRANCH   7   9
HETATM    9  C   UNL     1      20.088  47.014  47.120  1.00  0.00     0.179 C 
HETATM   10  S   UNL     1      19.704  46.720  45.519  1.00  0.00    -0.040 SA
BRANCH   9  11
HETATM   11  N   UNL     1      19.700  48.239  47.640  1.00  0.00    -0.299 N 
HETATM   12  C   UNL     1      19.054  48.469  48.846  1.00  0.00     0.257 C 
HETATM   13  O   UNL     1      19.030  47.669  49.776  1.00  0.00    -0.267 OA
HETATM   14  H   UNL     1      19.700  48.978  46.949  1.00  0.00     0.171 HD
BRANCH  12  15
HETATM   15  C   UNL     1      18.338  49.762  48.954  1.00  0.00     0.032 A 
HETATM   16  C   UNL     1      18.994  50.819  49.592  1.00  0.00     0.020 A 
HETATM   17  C   UNL     1      18.343  52.041  49.780  1.00  0.00     0.038 A 
HETATM   18  C   UNL     1      17.038  52.216  49.317  1.00  0.00     0.068 A 
HETATM   19  C   UNL     1      16.400  51.165  48.649  1.00  0.00     0.038 A 
HETATM   20  C   UNL     1      17.041  49.936  48.466  1.00  0.00     0.020 A 
BRANCH  18  21
HETATM   21  O   UNL     1      16.289  53.353  49.444  1.00  0.00    -0.351 OA
BRANCH  21  22
HETATM   22  C   UNL     1      15.048  53.394  48.737  1.00  0.00     0.175 C 
BRANCH  22  23
HETATM   23  C   UNL     1      14.055  54.194  49.574  1.00  0.00     0.022 C 
HETATM   24  C   UNL     1      13.694  53.473  50.860  1.00  0.00     0.007 C 
ENDBRANCH  22  23
ENDBRANCH  21  22
ENDBRANCH  18  21
ENDBRANCH  12  15
ENDBRANCH   9  11
ENDBRANCH   7   9
ENDBRANCH   1   7
BRANCH   4  25
HETATM   25  N   UNL     1      25.929  46.402  50.236  1.00  0.00    -0.378 N 
HETATM   26  C   UNL     1      26.901  45.326  49.967  1.00  0.00     0.150 C 
HETATM   27  C   UNL     1      26.888  44.281  51.103  1.00  0.00     0.255 C 
HETATM   28  N   UNL     1      27.113  44.963  52.458  1.00  0.00    -0.064 N 
HETATM   29  H   UNL     1      28.028  45.426  52.403  1.00  0.00     0.280 HD
HETATM   30  C   UNL     1      26.065  46.047  52.698  1.00  0.00     0.255 C 
HETATM   31  C   UNL     1      26.067  47.065  51.541  1.00  0.00     0.150 C 
BRANCH  28  32
HETATM   32  C   UNL     1      27.176  43.990  53.607  1.00  0.00     0.273 C 
BRANCH  32  33
HETATM   33  C   UNL     1      28.447  44.108  54.401  1.00  0.00    -0.033 A 
HETATM   34  C   UNL     1      29.417  43.094  54.349  1.00  0.00     0.009 A 
HETATM   35  C   UNL     1      30.586  43.194  55.106  1.00  0.00     0.001 A 
HETATM   36  C   UNL     1      30.797  44.306  55.919  1.00  0.00     0.000 A 
HETATM   37  C   UNL     1      29.845  45.321  55.973  1.00  0.00     0.001 A 
HETATM   38  C   UNL     1      28.676  45.225  55.219  1.00  0.00     0.009 A 
ENDBRANCH  32  33
ENDBRANCH  28  32
ENDBRANCH   4  25
TORSDOF 10
ENDMDL
MODEL 8
REMARK VINA RESULT:      -8.9      2.388      3.079
REMARK  10 active torsions:
REMARK  status: ('A' for Active; 'I' for Inactive)
REMARK    1  A    between atoms: C_2  and  C_3 
REMARK    2  A    between atoms: C_3  and  O_4 
REMARK    3  A    between atoms: O_4  and  C_5 
REMARK    4  A    between atoms: C_8  and  C_9 
REMARK       I    between atoms: C_9  and  N_10 
REMARK    5  A    between atoms: N_10  and  C_11 
REMARK    6  A    between atoms: C_11  and  N_12 
REMARK    7  A    between atoms: N_12  and  C_13 
REMARK    8  A    between atoms: C_16  and  N_17 
REMARK    9  A    between atoms: N_20  and  C_22 
REMARK   10  A    between atoms: C_22  and  C_23 
ROOT
HETATM    1  C   UNL     1      22.774  44.834  48.434  1.00  0.00     0.034 A 
HETATM    2  C   UNL     1      23.616  45.706  49.124  1.00  0.00     0.032 A 
HETATM    3  C   UNL     1      24.912  45.313  49.488  1.00  0.00     0.031 A 
HETATM    4  C   UNL     1      25.401  44.030  49.205  1.00  0.00     0.030 A 
HETATM    5  C   UNL     1      24.535  43.164  48.528  1.00  0.00     0.031 A 
HETATM    6  C   UNL     1      23.245  43.560  48.137  1.00  0.00     0.032 A 
ENDROOT
BRANCH   1   7
HETATM    7  N   UNL     1      21.457  45.272  48.193  1.00  0.00    -0.333 N 
HETATM    8  H   UNL     1      20.787  45.038  48.928  1.00  0.00     0.168 HD
BRANCH   7   9
HETATM    9  C   UNL     1      20.879  45.897  47.114  1.00  0.00     0.179 C 
HETATM   10  S   UNL     1      20.679  45.314  45.559  1.00  0.00    -0.040 SA
BRANCH   9  11
HETATM   11  N   UNL     1      20.408  47.175  47.367  1.00  0.00    -0.299 N 
HETATM   12  C   UNL     1      21.161  48.292  47.701  1.00  0.00     0.257 C 
HETATM   13  O   UNL     1      22.366  48.396  47.496  1.00  0.00    -0.267 OA
HETATM   14  H   UNL     1      19.412  47.202  47.537  1.00  0.00     0.171 HD
BRANCH  12  15
HETATM   15  C   UNL     1      20.421  49.387  48.373  1.00  0.00     0.032 A 
HETATM   16  C   UNL     1      19.446  49.034  49.312  1.00  0.00     0.020 A 
HETATM   17  C   UNL     1      18.673  50.022  49.929  1.00  0.00     0.038 A 
HETATM   18  C   UNL     1      18.882  51.367  49.620  1.00  0.00     0.068 A 
HETATM   19  C   UNL     1      19.882  51.714  48.706  1.00  0.00     0.038 A 
HETATM   20  C   UNL     1      20.652  50.732  48.077  1.00  0.00     0.020 A 
BRANCH  18  21
HETATM   21  O   UNL     1      18.192  52.424  50.144  1.00  0.00    -0.351 OA
BRANCH  21  22
HETATM   22  C   UNL     1      17.048  52.877  49.417  1.00  0.00     0.175 C 
BRANCH  22  23
HETATM   23  C   UNL     1      15.808  52.572  50.250  1.00  0.00     0.022 C 
HETATM   24  C   UNL     1      14.591  53.323  49.742  1.00  0.00     0.007 C 
ENDBRANCH  22  23
ENDBRANCH  21  22
ENDBRANCH  18  21
ENDBRANCH  12  15
ENDBRANCH   9  11
ENDBRANCH   7   9
ENDBRANCH   1   7
BRANCH   4  25
HETATM   25  N   UNL     1      26.668  43.658  49.646  1.00  0.00    -0.378 N 
HETATM   26  C   UNL     1      26.885  42.230  49.944  1.00  0.00     0.150 C 
HETATM   27  C   UNL     1      26.741  41.959  51.457  1.00  0.00     0.255 C 
HETATM   28  N   UNL     1      27.667  42.884  52.255  1.00  0.00    -0.064 N 
HETATM   29  H   UNL     1      28.623  42.680  51.942  1.00  0.00     0.280 HD
HETATM   30  C   UNL     1      27.381  44.347  51.931  1.00  0.00     0.255 C 
HETATM   31  C   UNL     1      27.498  44.596  50.414  1.00  0.00     0.150 C 
BRANCH  28  32
HETATM   32  C   UNL     1      27.623  42.626  53.740  1.00  0.00     0.273 C 
BRANCH  32  33
HETATM   33  C   UNL     1      28.631  43.440  54.503  1.00  0.00    -0.033 A 
HETATM   34  C   UNL     1      29.919  42.937  54.743  1.00  0.00     0.009 A 
HETATM   35  C   UNL     1      30.846  43.684  55.472  1.00  0.00     0.001 A 
HETATM   36  C   UNL     1      30.495  44.939  55.966  1.00  0.00     0.000 A 
HETATM   37  C   UNL     1      29.222  45.452  55.728  1.00  0.00     0.001 A 
HETATM   38  C   UNL     1      28.293  44.708  55.001  1.00  0.00     0.009 A 
ENDBRANCH  32  33
ENDBRANCH  28  32
ENDBRANCH   4  25
TORSDOF 10
ENDMDL
MODEL 9
REMARK VINA RESULT:      -8.5      2.657      3.473
REMARK  10 active torsions:
REMARK  status: ('A' for Active; 'I' for Inactive)
REMARK    1  A    between atoms: C_2  and  C_3 
REMARK    2  A    between atoms: C_3  and  O_4 
REMARK    3  A    between atoms: O_4  and  C_5 
REMARK    4  A    between atoms: C_8  and  C_9 
REMARK       I    between atoms: C_9  and  N_10 
REMARK    5  A    between atoms: N_10  and  C_11 
REMARK    6  A    between atoms: C_11  and  N_12 
REMARK    7  A    between atoms: N_12  and  C_13 
REMARK    8  A    between atoms: C_16  and  N_17 
REMARK    9  A    between atoms: N_20  and  C_22 
REMARK   10  A    between atoms: C_22  and  C_23 
ROOT
HETATM    1  C   UNL     1      24.038  44.445  49.134  1.00  0.00     0.034 A 
HETATM    2  C   UNL     1      24.014  43.400  50.057  1.00  0.00     0.032 A 
HETATM    3  C   UNL     1      24.419  43.605  51.383  1.00  0.00     0.031 A 
HETATM    4  C   UNL     1      24.889  44.849  51.828  1.00  0.00     0.030 A 
HETATM    5  C   UNL     1      24.921  45.880  50.883  1.00  0.00     0.031 A 
HETATM    6  C   UNL     1      24.492  45.688  49.559  1.00  0.00     0.032 A 
ENDROOT
BRANCH   1   7
HETATM    7  N   UNL     1      23.708  44.131  47.802  1.00  0.00    -0.333 N 
HETATM    8  H   UNL     1      24.281  43.396  47.381  1.00  0.00     0.168 HD
BRANCH   7   9
HETATM    9  C   UNL     1      22.804  44.679  46.924  1.00  0.00     0.179 C 
HETATM   10  S   UNL     1      22.620  44.369  45.291  1.00  0.00    -0.040 SA
BRANCH   9  11
HETATM   11  N   UNL     1      21.942  45.609  47.484  1.00  0.00    -0.299 N 
HETATM   12  C   UNL     1      20.605  45.422  47.804  1.00  0.00     0.257 C 
HETATM   13  O   UNL     1      20.079  44.323  47.952  1.00  0.00    -0.267 OA
HETATM   14  H   UNL     1      22.292  46.555  47.426  1.00  0.00     0.171 HD
BRANCH  12  15
HETATM   15  C   UNL     1      19.798  46.659  47.933  1.00  0.00     0.032 A 
HETATM   16  C   UNL     1      19.902  47.384  49.125  1.00  0.00     0.020 A 
HETATM   17  C   UNL     1      19.116  48.521  49.328  1.00  0.00     0.038 A 
HETATM   18  C   UNL     1      18.234  48.948  48.334  1.00  0.00     0.068 A 
HETATM   19  C   UNL     1      18.160  48.238  47.131  1.00  0.00     0.038 A 
HETATM   20  C   UNL     1      18.935  47.093  46.924  1.00  0.00     0.020 A 
BRANCH  18  21
HETATM   21  O   UNL     1      17.408  50.034  48.410  1.00  0.00    -0.351 OA
BRANCH  21  22
HETATM   22  C   UNL     1      17.697  50.999  49.424  1.00  0.00     0.175 C 
BRANCH  22  23
HETATM   23  C   UNL     1      18.320  52.217  48.752  1.00  0.00     0.022 C 
HETATM   24  C   UNL     1      19.821  52.062  48.587  1.00  0.00     0.007 C 
ENDBRANCH  22  23
ENDBRANCH  21  22
ENDBRANCH  18  21
ENDBRANCH  12  15
ENDBRANCH   9  11
ENDBRANCH   7   9
ENDBRANCH   1   7
BRANCH   4  25
HETATM   25  N   UNL     1      25.346  44.990  53.135  1.00  0.00    -0.378 N 
HETATM   26  C   UNL     1      26.216  46.146  53.423  1.00  0.00     0.150 C 
HETATM   27  C   UNL     1      27.703  45.732  53.395  1.00  0.00     0.255 C 
HETATM   28  N   UNL     1      27.946  44.551  54.342  1.00  0.00    -0.064 N 
HETATM   29  H   UNL     1      27.678  44.870  55.281  1.00  0.00     0.280 HD
HETATM   30  C   UNL     1      27.043  43.375  53.983  1.00  0.00     0.255 C 
HETATM   31  C   UNL     1      25.564  43.810  53.984  1.00  0.00     0.150 C 
BRANCH  28  32
HETATM   32  C   UNL     1      29.394  44.137  54.412  1.00  0.00     0.273 C 
BRANCH  32  33
HETATM   33  C   UNL     1      30.020  44.428  55.748  1.00  0.00    -0.033 A 
HETATM   34  C   UNL     1      30.975  43.555  56.292  1.00  0.00     0.009 A 
HETATM   35  C   UNL     1      31.537  43.813  57.543  1.00  0.00     0.001 A 
HETATM   36  C   UNL     1      31.153  44.945  58.260  1.00  0.00     0.000 A 
HETATM   37  C   UNL     1      30.211  45.821  57.727  1.00  0.00     0.001 A 
HETATM   38  C   UNL     1      29.646  45.566  56.477  1.00  0.00     0.009 A 
ENDBRANCH  32  33
ENDBRANCH  28  32
ENDBRANCH   4  25
TORSDOF 10
ENDMDL
MODEL 10
REMARK VINA RESULT:      -8.4      2.162      3.807
REMARK  10 active torsions:
REMARK  status: ('A' for Active; 'I' for Inactive)
REMARK    1  A    between atoms: C_2  and  C_3 
REMARK    2  A    between atoms: C_3  and  O_4 
REMARK    3  A    between atoms: O_4  and  C_5 
REMARK    4  A    between atoms: C_8  and  C_9 
REMARK       I    between atoms: C_9  and  N_10 
REMARK    5  A    between atoms: N_10  and  C_11 
REMARK    6  A    between atoms: C_11  and  N_12 
REMARK    7  A    between atoms: N_12  and  C_13 
REMARK    8  A    between atoms: C_16  and  N_17 
REMARK    9  A    between atoms: N_20  and  C_22 
REMARK   10  A    between atoms: C_22  and  C_23 
ROOT
HETATM    1  C   UNL     1      21.571  48.685  48.998  1.00  0.00     0.034 A 
HETATM    2  C   UNL     1      22.719  49.352  49.424  1.00  0.00     0.032 A 
HETATM    3  C   UNL     1      23.930  48.665  49.583  1.00  0.00     0.031 A 
HETATM    4  C   UNL     1      24.032  47.286  49.351  1.00  0.00     0.030 A 
HETATM    5  C   UNL     1      22.865  46.631  48.942  1.00  0.00     0.031 A 
HETATM    6  C   UNL     1      21.655  47.319  48.756  1.00  0.00     0.032 A 
ENDROOT
BRANCH   1   7
HETATM    7  N   UNL     1      20.375  49.429  48.959  1.00  0.00    -0.333 N 
HETATM    8  H   UNL     1      20.118  49.872  49.844  1.00  0.00     0.168 HD
BRANCH   7   9
HETATM    9  C   UNL     1      19.440  49.615  47.970  1.00  0.00     0.179 C 
HETATM   10  S   UNL     1      19.155  48.673  46.618  1.00  0.00    -0.040 SA
BRANCH   9  11
HETATM   11  N   UNL     1      18.640  50.735  48.131  1.00  0.00    -0.299 N 
HETATM   12  C   UNL     1      17.875  51.064  49.241  1.00  0.00     0.257 C 
HETATM   13  O   UNL     1      18.052  50.595  50.361  1.00  0.00    -0.267 OA
HETATM   14  H   UNL     1      18.444  51.208  47.259  1.00  0.00     0.171 HD
BRANCH  12  15
HETATM   15  C   UNL     1      16.770  52.021  48.999  1.00  0.00     0.032 A 
HETATM   16  C   UNL     1      16.354  52.821  50.068  1.00  0.00     0.020 A 
HETATM   17  C   UNL     1      15.275  53.696  49.915  1.00  0.00     0.038 A 
HETATM   18  C   UNL     1      14.617  53.785  48.688  1.00  0.00     0.068 A 
HETATM   19  C   UNL     1      15.060  53.007  47.613  1.00  0.00     0.038 A 
HETATM   20  C   UNL     1      16.132  52.123  47.760  1.00  0.00     0.020 A 
BRANCH  18  21
HETATM   21  O   UNL     1      13.548  54.590  48.410  1.00  0.00    -0.351 OA
BRANCH  21  22
HETATM   22  C   UNL     1      13.799  55.994  48.321  1.00  0.00     0.175 C 
BRANCH  22  23
HETATM   23  C   UNL     1      13.405  56.457  46.922  1.00  0.00     0.022 C 
HETATM   24  C   UNL     1      12.502  55.451  46.231  1.00  0.00     0.007 C 
ENDBRANCH  22  23
ENDBRANCH  21  22
ENDBRANCH  18  21
ENDBRANCH  12  15
ENDBRANCH   9  11
ENDBRANCH   7   9
ENDBRANCH   1   7
BRANCH   4  25
HETATM   25  N   UNL     1      25.237  46.630  49.588  1.00  0.00    -0.378 N 
HETATM   26  C   UNL     1      25.236  45.159  49.482  1.00  0.00     0.150 C 
HETATM   27  C   UNL     1      25.095  44.511  50.877  1.00  0.00     0.255 C 
HETATM   28  N   UNL     1      26.179  45.041  51.823  1.00  0.00    -0.064 N 
HETATM   29  H   UNL     1      27.082  44.795  51.400  1.00  0.00     0.280 HD
HETATM   30  C   UNL     1      26.117  46.563  51.917  1.00  0.00     0.255 C 
HETATM   31  C   UNL     1      26.227  47.195  50.516  1.00  0.00     0.150 C 
BRANCH  28  32
HETATM   32  C   UNL     1      26.139  44.399  53.187  1.00  0.00     0.273 C 
BRANCH  32  33
HETATM   33  C   UNL     1      27.507  44.077  53.720  1.00  0.00    -0.033 A 
HETATM   34  C   UNL     1      28.161  42.895  53.339  1.00  0.00     0.009 A 
HETATM   35  C   UNL     1      29.420  42.585  53.854  1.00  0.00     0.001 A 
HETATM   36  C   UNL     1      30.039  43.454  54.751  1.00  0.00     0.000 A 
HETATM   37  C   UNL     1      29.404  44.634  55.130  1.00  0.00     0.001 A 
HETATM   38  C   UNL     1      28.144  44.946  54.619  1.00  0.00     0.009 A 
ENDBRANCH  32  33
ENDBRANCH  28  32
ENDBRANCH   4  25
TORSDOF 10
ENDMDL
