MODEL 1
REMARK VINA RESULT:      -8.2      0.000      0.000
REMARK  4 active torsions:
REMARK  status: ('A' for Active; 'I' for Inactive)
REMARK    1  A    between atoms: O_2  and  C_3 
REMARK    2  A    between atoms: C_4  and  C_5 
REMARK    3  A    between atoms: C_9  and  N_10 
REMARK    4  A    between atoms: C_13  and  C_14 
ROOT
HETATM    1  C   UNL     1      27.182  43.402  50.113  1.00  0.00     0.167 C 
HETATM    2  N   UNL     1      27.587  42.003  50.045  1.00  0.00    -0.074 N 
HETATM    3  C   UNL     1      28.081  41.286  51.102  1.00  0.00     0.736 A 
HETATM    4  N   UNL     1      28.304  40.059  50.712  1.00  0.00     0.131 NA
HETATM    5  C   UNL     1      27.975  40.092  49.388  1.00  0.00     0.753 A 
HETATM    6  N   UNL     1      27.515  41.254  48.932  1.00  0.00     0.037 NA
HETATM    7  N   UNL     1      28.267  41.856  52.309  1.00  0.00    -0.214 N 
HETATM    8  C   UNL     1      27.675  43.158  52.597  1.00  0.00     0.135 C 
HETATM    9  C   UNL     1      27.786  44.073  51.362  1.00  0.00     0.063 C 
HETATM   10  H   UNL     1      28.399  41.233  53.102  1.00  0.00     0.178 HD
ENDROOT
BRANCH   1  11
HETATM   11  C   UNL     1      25.667  43.571  50.046  1.00  0.00     0.001 A 
HETATM   12  C   UNL     1      25.119  44.780  49.586  1.00  0.00     0.076 A 
HETATM   13  C   UNL     1      23.737  44.991  49.579  1.00  0.00     0.037 A 
HETATM   14  C   UNL     1      22.875  43.980  49.998  1.00  0.00     0.003 A 
HETATM   15  C   UNL     1      23.395  42.765  50.433  1.00  0.00     0.001 A 
HETATM   16  C   UNL     1      24.778  42.563  50.461  1.00  0.00     0.012 A 
BRANCH  12  17
HETATM   17  O   UNL     1      25.973  45.784  49.204  1.00  0.00    -0.355 OA
HETATM   18  C   UNL     1      25.766  46.967  49.981  1.00  0.00     0.210 C 
ENDBRANCH  12  17
ENDBRANCH   1  11
BRANCH   8  19
HETATM   19  C   UNL     1      28.351  43.788  53.804  1.00  0.00    -0.035 A 
HETATM   20  C   UNL     1      29.577  43.311  54.299  1.00  0.00     0.010 A 
HETATM   21  C   UNL     1      30.182  43.909  55.407  1.00  0.00     0.019 A 
HETATM   22  C   UNL     1      29.571  44.999  56.023  1.00  0.00     0.011 A 
HETATM   23 BR   UNL     1      30.388  45.807  57.524  1.00  0.00    -0.051 Br
HETATM   24  C   UNL     1      28.366  45.497  55.539  1.00  0.00     0.019 A 
HETATM   25  C   UNL     1      27.759  44.896  54.433  1.00  0.00     0.010 A 
ENDBRANCH   8  19
BRANCH   5  26
HETATM   26  N   UNL     1      28.099  38.977  48.674  1.00  0.00    -0.229 N 
HETATM   27  H   UNL     1      27.251  38.590  48.285  1.00  0.00     0.174 HD
HETATM   28  H   UNL     1      28.917  38.901  48.085  1.00  0.00     0.174 HD
ENDBRANCH   5  26
TORSDOF 4
ENDMDL
MODEL 2
REMARK VINA RESULT:      -8.1      3.219      6.121
REMARK  4 active torsions:
REMARK  status: ('A' for Active; 'I' for Inactive)
REMARK    1  A    between atoms: O_2  and  C_3 
REMARK    2  A    between atoms: C_4  and  C_5 
REMARK    3  A    between atoms: C_9  and  N_10 
REMARK    4  A    between atoms: C_13  and  C_14 
ROOT
HETATM    1  C   UNL     1      26.434  44.208  53.205  1.00  0.00     0.167 C 
HETATM    2  N   UNL     1      26.889  43.200  52.256  1.00  0.00    -0.074 N 
HETATM    3  C   UNL     1      27.094  43.428  50.921  1.00  0.00     0.736 A 
HETATM    4  N   UNL     1      27.538  42.329  50.370  1.00  0.00     0.131 NA
HETATM    5  C   UNL     1      27.539  41.442  51.407  1.00  0.00     0.753 A 
HETATM    6  N   UNL     1      27.165  41.927  52.588  1.00  0.00     0.037 NA
HETATM    7  N   UNL     1      26.845  44.631  50.369  1.00  0.00    -0.214 N 
HETATM    8  C   UNL     1      26.636  45.794  51.226  1.00  0.00     0.135 C 
HETATM    9  C   UNL     1      25.800  45.398  52.458  1.00  0.00     0.063 C 
HETATM   10  H   UNL     1      27.238  44.811  49.449  1.00  0.00     0.178 HD
ENDROOT
BRANCH   1  11
HETATM   11  C   UNL     1      27.542  44.653  54.155  1.00  0.00     0.001 A 
HETATM   12  C   UNL     1      27.392  45.837  54.897  1.00  0.00     0.076 A 
HETATM   13  C   UNL     1      28.418  46.306  55.724  1.00  0.00     0.037 A 
HETATM   14  C   UNL     1      29.600  45.579  55.851  1.00  0.00     0.003 A 
HETATM   15  C   UNL     1      29.758  44.390  55.145  1.00  0.00     0.001 A 
HETATM   16  C   UNL     1      28.742  43.932  54.302  1.00  0.00     0.012 A 
BRANCH  12  17
HETATM   17  O   UNL     1      26.241  46.566  54.745  1.00  0.00    -0.355 OA
HETATM   18  C   UNL     1      26.439  47.935  55.105  1.00  0.00     0.210 C 
ENDBRANCH  12  17
ENDBRANCH   1  11
BRANCH   8  19
HETATM   19  C   UNL     1      25.959  46.908  50.444  1.00  0.00    -0.035 A 
HETATM   20  C   UNL     1      26.700  47.888  49.760  1.00  0.00     0.010 A 
HETATM   21  C   UNL     1      26.055  48.900  49.044  1.00  0.00     0.019 A 
HETATM   22  C   UNL     1      24.664  48.934  48.996  1.00  0.00     0.011 A 
HETATM   23 BR   UNL     1      23.791  50.304  48.029  1.00  0.00    -0.051 Br
HETATM   24  C   UNL     1      23.912  47.964  49.652  1.00  0.00     0.019 A 
HETATM   25  C   UNL     1      24.557  46.954  50.372  1.00  0.00     0.010 A 
ENDBRANCH   8  19
BRANCH   5  26
HETATM   26  N   UNL     1      27.940  40.195  51.177  1.00  0.00    -0.229 N 
HETATM   27  H   UNL     1      28.024  39.589  51.980  1.00  0.00     0.174 HD
HETATM   28  H   UNL     1      27.592  39.752  50.338  1.00  0.00     0.174 HD
ENDBRANCH   5  26
TORSDOF 4
ENDMDL
MODEL 3
REMARK VINA RESULT:      -8.0      3.049      5.772
REMARK  4 active torsions:
REMARK  status: ('A' for Active; 'I' for Inactive)
REMARK    1  A    between atoms: O_2  and  C_3 
REMARK    2  A    between atoms: C_4  and  C_5 
REMARK    3  A    between atoms: C_9  and  N_10 
REMARK    4  A    between atoms: C_13  and  C_14 
ROOT
HETATM    1  C   UNL     1      26.546  42.992  52.105  1.00  0.00     0.167 C 
HETATM    2  N   UNL     1      26.690  42.133  50.937  1.00  0.00    -0.074 N 
HETATM    3  C   UNL     1      26.698  42.578  49.643  1.00  0.00     0.736 A 
HETATM    4  N   UNL     1      26.885  41.558  48.847  1.00  0.00     0.131 NA
HETATM    5  C   UNL     1      26.936  40.501  49.708  1.00  0.00     0.753 A 
HETATM    6  N   UNL     1      26.838  40.798  51.001  1.00  0.00     0.037 NA
HETATM    7  N   UNL     1      26.530  43.882  49.349  1.00  0.00    -0.214 N 
HETATM    8  C   UNL     1      26.632  44.884  50.405  1.00  0.00     0.135 C 
HETATM    9  C   UNL     1      25.968  44.361  51.694  1.00  0.00     0.063 C 
HETATM   10  H   UNL     1      26.784  44.185  48.412  1.00  0.00     0.178 HD
ENDROOT
BRANCH   1  11
HETATM   11  C   UNL     1      27.849  43.133  52.887  1.00  0.00     0.001 A 
HETATM   12  C   UNL     1      27.853  43.795  54.126  1.00  0.00     0.076 A 
HETATM   13  C   UNL     1      29.042  43.999  54.833  1.00  0.00     0.037 A 
HETATM   14  C   UNL     1      30.246  43.512  54.329  1.00  0.00     0.003 A 
HETATM   15  C   UNL     1      30.261  42.830  53.116  1.00  0.00     0.001 A 
HETATM   16  C   UNL     1      29.076  42.645  52.399  1.00  0.00     0.012 A 
BRANCH  12  17
HETATM   17  O   UNL     1      26.670  44.300  54.603  1.00  0.00    -0.355 OA
HETATM   18  C   UNL     1      26.760  45.710  54.830  1.00  0.00     0.210 C 
ENDBRANCH  12  17
ENDBRANCH   1  11
BRANCH   8  19
HETATM   19  C   UNL     1      25.996  46.189  49.956  1.00  0.00    -0.035 A 
HETATM   20  C   UNL     1      24.601  46.337  49.855  1.00  0.00     0.010 A 
HETATM   21  C   UNL     1      24.039  47.548  49.444  1.00  0.00     0.019 A 
HETATM   22  C   UNL     1      24.867  48.627  49.142  1.00  0.00     0.011 A 
HETATM   23 BR   UNL     1      24.107  50.265  48.584  1.00  0.00    -0.051 Br
HETATM   24  C   UNL     1      26.249  48.506  49.251  1.00  0.00     0.019 A 
HETATM   25  C   UNL     1      26.811  47.293  49.658  1.00  0.00     0.010 A 
ENDBRANCH   8  19
BRANCH   5  26
HETATM   26  N   UNL     1      27.114  39.281  49.209  1.00  0.00    -0.229 N 
HETATM   27  H   UNL     1      28.063  38.936  49.178  1.00  0.00     0.174 HD
HETATM   28  H   UNL     1      26.412  38.590  49.433  1.00  0.00     0.174 HD
ENDBRANCH   5  26
TORSDOF 4
ENDMDL
MODEL 4
REMARK VINA RESULT:      -7.8      3.622      4.876
REMARK  4 active torsions:
REMARK  status: ('A' for Active; 'I' for Inactive)
REMARK    1  A    between atoms: O_2  and  C_3 
REMARK    2  A    between atoms: C_4  and  C_5 
REMARK    3  A    between atoms: C_9  and  N_10 
REMARK    4  A    between atoms: C_13  and  C_14 
ROOT
HETATM    1  C   UNL     1      25.211  46.843  49.359  1.00  0.00     0.167 C 
HETATM    2  N   UNL     1      24.285  45.718  49.373  1.00  0.00    -0.074 N 
HETATM    3  C   UNL     1      23.945  45.005  50.491  1.00  0.00     0.736 A 
HETATM    4  N   UNL     1      23.066  44.096  50.162  1.00  0.00     0.131 NA
HETATM    5  C   UNL     1      22.938  44.265  48.814  1.00  0.00     0.753 A 
HETATM    6  N   UNL     1      23.650  45.255  48.281  1.00  0.00     0.037 NA
HETATM    7  N   UNL     1      24.493  45.281  51.691  1.00  0.00    -0.214 N 
HETATM    8  C   UNL     1      25.230  46.526  51.884  1.00  0.00     0.135 C 
HETATM    9  C   UNL     1      26.076  46.837  50.635  1.00  0.00     0.063 C 
HETATM   10  H   UNL     1      24.035  44.894  52.512  1.00  0.00     0.178 HD
ENDROOT
BRANCH   1  11
HETATM   11  C   UNL     1      24.500  48.178  49.155  1.00  0.00     0.001 A 
HETATM   12  C   UNL     1      25.176  49.241  48.533  1.00  0.00     0.076 A 
HETATM   13  C   UNL     1      24.576  50.496  48.393  1.00  0.00     0.037 A 
HETATM   14  C   UNL     1      23.273  50.700  48.842  1.00  0.00     0.003 A 
HETATM   15  C   UNL     1      22.576  49.653  49.438  1.00  0.00     0.001 A 
HETATM   16  C   UNL     1      23.184  48.405  49.597  1.00  0.00     0.012 A 
BRANCH  12  17
HETATM   17  O   UNL     1      26.470  49.044  48.121  1.00  0.00    -0.355 OA
HETATM   18  C   UNL     1      27.382  49.857  48.865  1.00  0.00     0.210 C 
ENDBRANCH  12  17
ENDBRANCH   1  11
BRANCH   8  19
HETATM   19  C   UNL     1      26.103  46.433  53.125  1.00  0.00    -0.035 A 
HETATM   20  C   UNL     1      26.934  45.325  53.364  1.00  0.00     0.010 A 
HETATM   21  C   UNL     1      27.731  45.264  54.510  1.00  0.00     0.019 A 
HETATM   22  C   UNL     1      27.714  46.318  55.421  1.00  0.00     0.011 A 
HETATM   23 BR   UNL     1      28.791  46.236  56.972  1.00  0.00    -0.051 Br
HETATM   24  C   UNL     1      26.911  47.432  55.194  1.00  0.00     0.019 A 
HETATM   25  C   UNL     1      26.110  47.490  54.050  1.00  0.00     0.010 A 
ENDBRANCH   8  19
BRANCH   5  26
HETATM   26  N   UNL     1      22.103  43.472  48.149  1.00  0.00    -0.229 N 
HETATM   27  H   UNL     1      21.555  43.900  47.417  1.00  0.00     0.174 HD
HETATM   28  H   UNL     1      22.423  42.533  47.955  1.00  0.00     0.174 HD
ENDBRANCH   5  26
TORSDOF 4
ENDMDL
MODEL 5
REMARK VINA RESULT:      -7.7      3.124      4.449
REMARK  4 active torsions:
REMARK  status: ('A' for Active; 'I' for Inactive)
REMARK    1  A    between atoms: O_2  and  C_3 
REMARK    2  A    between atoms: C_4  and  C_5 
REMARK    3  A    between atoms: C_9  and  N_10 
REMARK    4  A    between atoms: C_13  and  C_14 
ROOT
HETATM    1  C   UNL     1      24.947  44.498  51.924  1.00  0.00     0.167 C 
HETATM    2  N   UNL     1      24.935  45.819  51.308  1.00  0.00    -0.074 N 
HETATM    3  C   UNL     1      25.850  46.804  51.565  1.00  0.00     0.736 A 
HETATM    4  N   UNL     1      25.575  47.841  50.819  1.00  0.00     0.131 NA
HETATM    5  C   UNL     1      24.447  47.453  50.156  1.00  0.00     0.753 A 
HETATM    6  N   UNL     1      24.021  46.218  50.407  1.00  0.00     0.037 NA
HETATM    7  N   UNL     1      26.837  46.627  52.466  1.00  0.00    -0.214 N 
HETATM    8  C   UNL     1      27.130  45.287  52.966  1.00  0.00     0.135 C 
HETATM    9  C   UNL     1      25.820  44.510  53.195  1.00  0.00     0.063 C 
HETATM   10  H   UNL     1      27.615  47.280  52.439  1.00  0.00     0.178 HD
ENDROOT
BRANCH   1  11
HETATM   11  C   UNL     1      25.372  43.405  50.948  1.00  0.00     0.001 A 
HETATM   12  C   UNL     1      24.396  42.636  50.293  1.00  0.00     0.076 A 
HETATM   13  C   UNL     1      24.754  41.582  49.446  1.00  0.00     0.037 A 
HETATM   14  C   UNL     1      26.099  41.304  49.210  1.00  0.00     0.003 A 
HETATM   15  C   UNL     1      27.082  42.070  49.828  1.00  0.00     0.001 A 
HETATM   16  C   UNL     1      26.724  43.109  50.692  1.00  0.00     0.012 A 
BRANCH  12  17
HETATM   17  O   UNL     1      23.074  42.894  50.553  1.00  0.00    -0.355 OA
HETATM   18  C   UNL     1      22.403  43.395  49.394  1.00  0.00     0.210 C 
ENDBRANCH  12  17
ENDBRANCH   1  11
BRANCH   8  19
HETATM   19  C   UNL     1      27.944  45.372  54.247  1.00  0.00    -0.035 A 
HETATM   20  C   UNL     1      29.032  44.515  54.491  1.00  0.00     0.010 A 
HETATM   21  C   UNL     1      29.768  44.614  55.674  1.00  0.00     0.019 A 
HETATM   22  C   UNL     1      29.431  45.580  56.619  1.00  0.00     0.011 A 
HETATM   23 BR   UNL     1      30.425  45.714  58.221  1.00  0.00    -0.051 Br
HETATM   24  C   UNL     1      28.368  46.449  56.390  1.00  0.00     0.019 A 
HETATM   25  C   UNL     1      27.628  46.346  55.208  1.00  0.00     0.010 A 
ENDBRANCH   8  19
BRANCH   5  26
HETATM   26  N   UNL     1      23.888  48.302  49.299  1.00  0.00    -0.229 N 
HETATM   27  H   UNL     1      22.906  48.497  49.427  1.00  0.00     0.174 HD
HETATM   28  H   UNL     1      24.449  49.091  49.008  1.00  0.00     0.174 HD
ENDBRANCH   5  26
TORSDOF 4
ENDMDL
MODEL 6
REMARK VINA RESULT:      -7.7      2.789      4.280
REMARK  4 active torsions:
REMARK  status: ('A' for Active; 'I' for Inactive)
REMARK    1  A    between atoms: O_2  and  C_3 
REMARK    2  A    between atoms: C_4  and  C_5 
REMARK    3  A    between atoms: C_9  and  N_10 
REMARK    4  A    between atoms: C_13  and  C_14 
ROOT
HETATM    1  C   UNL     1      25.353  42.812  50.806  1.00  0.00     0.167 C 
HETATM    2  N   UNL     1      25.011  44.207  50.555  1.00  0.00    -0.074 N 
HETATM    3  C   UNL     1      25.759  45.276  50.967  1.00  0.00     0.736 A 
HETATM    4  N   UNL     1      25.194  46.375  50.544  1.00  0.00     0.131 NA
HETATM    5  C   UNL     1      24.071  45.922  49.915  1.00  0.00     0.753 A 
HETATM    6  N   UNL     1      23.917  44.601  49.879  1.00  0.00     0.037 NA
HETATM    7  N   UNL     1      26.883  45.107  51.692  1.00  0.00    -0.214 N 
HETATM    8  C   UNL     1      27.485  43.782  51.800  1.00  0.00     0.135 C 
HETATM    9  C   UNL     1      26.386  42.713  51.946  1.00  0.00     0.063 C 
HETATM   10  H   UNL     1      27.517  45.899  51.760  1.00  0.00     0.178 HD
ENDROOT
BRANCH   1  11
HETATM   11  C   UNL     1      25.822  42.093  49.545  1.00  0.00     0.001 A 
HETATM   12  C   UNL     1      24.885  41.452  48.717  1.00  0.00     0.076 A 
HETATM   13  C   UNL     1      25.291  40.727  47.592  1.00  0.00     0.037 A 
HETATM   14  C   UNL     1      26.641  40.661  47.254  1.00  0.00     0.003 A 
HETATM   15  C   UNL     1      27.584  41.310  48.046  1.00  0.00     0.001 A 
HETATM   16  C   UNL     1      27.180  42.016  49.182  1.00  0.00     0.012 A 
BRANCH  12  17
HETATM   17  O   UNL     1      23.560  41.494  49.070  1.00  0.00    -0.355 OA
HETATM   18  C   UNL     1      22.717  41.121  47.977  1.00  0.00     0.210 C 
ENDBRANCH  12  17
ENDBRANCH   1  11
BRANCH   8  19
HETATM   19  C   UNL     1      28.449  43.737  52.974  1.00  0.00    -0.035 A 
HETATM   20  C   UNL     1      29.576  42.896  52.975  1.00  0.00     0.010 A 
HETATM   21  C   UNL     1      30.450  42.875  54.065  1.00  0.00     0.019 A 
HETATM   22  C   UNL     1      30.212  43.704  55.159  1.00  0.00     0.011 A 
HETATM   23 BR   UNL     1      31.394  43.674  56.634  1.00  0.00    -0.051 Br
HETATM   24  C   UNL     1      29.111  44.555  55.171  1.00  0.00     0.019 A 
HETATM   25  C   UNL     1      28.234  44.573  54.082  1.00  0.00     0.010 A 
ENDBRANCH   8  19
BRANCH   5  26
HETATM   26  N   UNL     1      23.248  46.809  49.365  1.00  0.00    -0.229 N 
HETATM   27  H   UNL     1      23.286  46.903  48.360  1.00  0.00     0.174 HD
HETATM   28  H   UNL     1      22.325  46.887  49.769  1.00  0.00     0.174 HD
ENDBRANCH   5  26
TORSDOF 4
ENDMDL
MODEL 7
REMARK VINA RESULT:      -7.6      2.721      4.850
REMARK  4 active torsions:
REMARK  status: ('A' for Active; 'I' for Inactive)
REMARK    1  A    between atoms: O_2  and  C_3 
REMARK    2  A    between atoms: C_4  and  C_5 
REMARK    3  A    between atoms: C_9  and  N_10 
REMARK    4  A    between atoms: C_13  and  C_14 
ROOT
HETATM    1  C   UNL     1      25.997  40.926  50.407  1.00  0.00     0.167 C 
HETATM    2  N   UNL     1      25.095  42.045  50.162  1.00  0.00    -0.074 N 
HETATM    3  C   UNL     1      25.310  43.325  50.598  1.00  0.00     0.736 A 
HETATM    4  N   UNL     1      24.335  44.085  50.174  1.00  0.00     0.131 NA
HETATM    5  C   UNL     1      23.521  43.205  49.521  1.00  0.00     0.753 A 
HETATM    6  N   UNL     1      23.946  41.946  49.471  1.00  0.00     0.037 NA
HETATM    7  N   UNL     1      26.389  43.640  51.341  1.00  0.00    -0.214 N 
HETATM    8  C   UNL     1      27.498  42.697  51.448  1.00  0.00     0.135 C 
HETATM    9  C   UNL     1      26.959  41.259  51.565  1.00  0.00     0.063 C 
HETATM   10  H   UNL     1      26.623  44.626  51.427  1.00  0.00     0.178 HD
ENDROOT
BRANCH   1  11
HETATM   11  C   UNL     1      26.743  40.496  49.148  1.00  0.00     0.001 A 
HETATM   12  C   UNL     1      27.027  39.137  48.934  1.00  0.00     0.076 A 
HETATM   13  C   UNL     1      27.770  38.718  47.825  1.00  0.00     0.037 A 
HETATM   14  C   UNL     1      28.210  39.651  46.889  1.00  0.00     0.003 A 
HETATM   15  C   UNL     1      27.917  41.000  47.067  1.00  0.00     0.001 A 
HETATM   16  C   UNL     1      27.194  41.420  48.187  1.00  0.00     0.012 A 
BRANCH  12  17
HETATM   17  O   UNL     1      26.619  38.225  49.875  1.00  0.00    -0.355 OA
HETATM   18  C   UNL     1      27.170  36.931  49.619  1.00  0.00     0.210 C 
ENDBRANCH  12  17
ENDBRANCH   1  11
BRANCH   8  19
HETATM   19  C   UNL     1      28.374  43.049  52.639  1.00  0.00    -0.035 A 
HETATM   20  C   UNL     1      27.957  43.967  53.619  1.00  0.00     0.010 A 
HETATM   21  C   UNL     1      28.778  44.271  54.708  1.00  0.00     0.019 A 
HETATM   22  C   UNL     1      30.019  43.650  54.833  1.00  0.00     0.011 A 
HETATM   23 BR   UNL     1      31.131  44.063  56.304  1.00  0.00    -0.051 Br
HETATM   24  C   UNL     1      30.444  42.727  53.882  1.00  0.00     0.019 A 
HETATM   25  C   UNL     1      29.624  42.426  52.790  1.00  0.00     0.010 A 
ENDBRANCH   8  19
BRANCH   5  26
HETATM   26  N   UNL     1      22.404  43.664  48.964  1.00  0.00    -0.229 N 
HETATM   27  H   UNL     1      22.476  44.529  48.447  1.00  0.00     0.174 HD
HETATM   28  H   UNL     1      21.776  42.978  48.570  1.00  0.00     0.174 HD
ENDBRANCH   5  26
TORSDOF 4
ENDMDL
MODEL 8
REMARK VINA RESULT:      -7.3      8.802     11.454
REMARK  4 active torsions:
REMARK  status: ('A' for Active; 'I' for Inactive)
REMARK    1  A    between atoms: O_2  and  C_3 
REMARK    2  A    between atoms: C_4  and  C_5 
REMARK    3  A    between atoms: C_9  and  N_10 
REMARK    4  A    between atoms: C_13  and  C_14 
ROOT
HETATM    1  C   UNL     1      18.636  49.337  47.922  1.00  0.00     0.167 C 
HETATM    2  N   UNL     1      18.320  50.517  48.718  1.00  0.00    -0.074 N 
HETATM    3  C   UNL     1      19.252  51.372  49.240  1.00  0.00     0.736 A 
HETATM    4  N   UNL     1      18.634  52.342  49.860  1.00  0.00     0.131 NA
HETATM    5  C   UNL     1      17.319  52.004  49.727  1.00  0.00     0.753 A 
HETATM    6  N   UNL     1      17.069  50.903  49.023  1.00  0.00     0.037 NA
HETATM    7  N   UNL     1      20.572  51.152  49.082  1.00  0.00    -0.214 N 
HETATM    8  C   UNL     1      21.033  50.169  48.106  1.00  0.00     0.135 C 
HETATM    9  C   UNL     1      20.110  48.935  48.124  1.00  0.00     0.063 C 
HETATM   10  H   UNL     1      21.200  51.929  49.273  1.00  0.00     0.178 HD
ENDROOT
BRANCH   1  11
HETATM   11  C   UNL     1      18.288  49.519  46.448  1.00  0.00     0.001 A 
HETATM   12  C   UNL     1      17.723  48.454  45.726  1.00  0.00     0.076 A 
HETATM   13  C   UNL     1      17.457  48.569  44.358  1.00  0.00     0.037 A 
HETATM   14  C   UNL     1      17.718  49.766  43.694  1.00  0.00     0.003 A 
HETATM   15  C   UNL     1      18.253  50.842  44.396  1.00  0.00     0.001 A 
HETATM   16  C   UNL     1      18.539  50.720  45.758  1.00  0.00     0.012 A 
BRANCH  12  17
HETATM   17  O   UNL     1      17.497  47.268  46.376  1.00  0.00    -0.355 OA
HETATM   18  C   UNL     1      18.309  46.219  45.842  1.00  0.00     0.210 C 
ENDBRANCH  12  17
ENDBRANCH   1  11
BRANCH   8  19
HETATM   19  C   UNL     1      22.473  49.777  48.394  1.00  0.00    -0.035 A 
HETATM   20  C   UNL     1      22.791  48.672  49.203  1.00  0.00     0.010 A 
HETATM   21  C   UNL     1      24.123  48.328  49.450  1.00  0.00     0.019 A 
HETATM   22  C   UNL     1      25.148  49.079  48.880  1.00  0.00     0.011 A 
HETATM   23 BR   UNL     1      26.949  48.615  49.215  1.00  0.00    -0.051 Br
HETATM   24  C   UNL     1      24.854  50.166  48.062  1.00  0.00     0.019 A 
HETATM   25  C   UNL     1      23.522  50.513  47.819  1.00  0.00     0.010 A 
ENDBRANCH   8  19
BRANCH   5  26
HETATM   26  N   UNL     1      16.400  52.799  50.266  1.00  0.00    -0.229 N 
HETATM   27  H   UNL     1      15.871  52.425  51.040  1.00  0.00     0.174 HD
HETATM   28  H   UNL     1      16.631  53.781  50.337  1.00  0.00     0.174 HD
ENDBRANCH   5  26
TORSDOF 4
ENDMDL
MODEL 9
REMARK VINA RESULT:      -7.3     12.336     14.142
REMARK  4 active torsions:
REMARK  status: ('A' for Active; 'I' for Inactive)
REMARK    1  A    between atoms: O_2  and  C_3 
REMARK    2  A    between atoms: C_4  and  C_5 
REMARK    3  A    between atoms: C_9  and  N_10 
REMARK    4  A    between atoms: C_13  and  C_14 
ROOT
HETATM    1  C   UNL     1      30.237  49.861  41.039  1.00  0.00     0.167 C 
HETATM    2  N   UNL     1      31.636  49.483  41.193  1.00  0.00    -0.074 N 
HETATM    3  C   UNL     1      32.155  48.267  40.841  1.00  0.00     0.736 A 
HETATM    4  N   UNL     1      33.441  48.274  41.071  1.00  0.00     0.131 NA
HETATM    5  C   UNL     1      33.650  49.509  41.613  1.00  0.00     0.753 A 
HETATM    6  N   UNL     1      32.581  50.296  41.697  1.00  0.00     0.037 NA
HETATM    7  N   UNL     1      31.372  47.288  40.345  1.00  0.00    -0.214 N 
HETATM    8  C   UNL     1      30.018  47.598  39.897  1.00  0.00     0.135 C 
HETATM    9  C   UNL     1      29.361  48.605  40.861  1.00  0.00     0.063 C 
HETATM   10  H   UNL     1      31.836  46.511  39.881  1.00  0.00     0.178 HD
ENDROOT
BRANCH   1  11
HETATM   11  C   UNL     1      30.028  50.870  39.914  1.00  0.00     0.001 A 
HETATM   12  C   UNL     1      29.286  52.039  40.153  1.00  0.00     0.076 A 
HETATM   13  C   UNL     1      29.019  52.948  39.124  1.00  0.00     0.037 A 
HETATM   14  C   UNL     1      29.522  52.722  37.845  1.00  0.00     0.003 A 
HETATM   15  C   UNL     1      30.282  51.583  37.593  1.00  0.00     0.001 A 
HETATM   16  C   UNL     1      30.529  50.663  38.615  1.00  0.00     0.012 A 
BRANCH  12  17
HETATM   17  O   UNL     1      28.766  52.242  41.406  1.00  0.00    -0.355 OA
HETATM   18  C   UNL     1      27.336  52.226  41.385  1.00  0.00     0.210 C 
ENDBRANCH  12  17
ENDBRANCH   1  11
BRANCH   8  19
HETATM   19  C   UNL     1      29.194  46.325  39.795  1.00  0.00    -0.035 A 
HETATM   20  C   UNL     1      29.588  45.251  38.977  1.00  0.00     0.010 A 
HETATM   21  C   UNL     1      28.817  44.089  38.902  1.00  0.00     0.019 A 
HETATM   22  C   UNL     1      27.650  43.985  39.656  1.00  0.00     0.011 A 
HETATM   23 BR   UNL     1      26.604  42.413  39.554  1.00  0.00    -0.051 Br
HETATM   24  C   UNL     1      27.251  45.029  40.485  1.00  0.00     0.019 A 
HETATM   25  C   UNL     1      28.021  46.194  40.556  1.00  0.00     0.010 A 
ENDBRANCH   8  19
BRANCH   5  26
HETATM   26  N   UNL     1      34.885  49.843  41.976  1.00  0.00    -0.229 N 
HETATM   27  H   UNL     1      35.247  49.407  42.812  1.00  0.00     0.174 HD
HETATM   28  H   UNL     1      35.558  49.978  41.234  1.00  0.00     0.174 HD
ENDBRANCH   5  26
TORSDOF 4
ENDMDL
MODEL 10
REMARK VINA RESULT:      -7.3     12.682     15.001
REMARK  4 active torsions:
REMARK  status: ('A' for Active; 'I' for Inactive)
REMARK    1  A    between atoms: O_2  and  C_3 
REMARK    2  A    between atoms: C_4  and  C_5 
REMARK    3  A    between atoms: C_9  and  N_10 
REMARK    4  A    between atoms: C_13  and  C_14 
ROOT
HETATM    1  C   UNL     1      31.318  49.764  39.194  1.00  0.00     0.167 C 
HETATM    2  N   UNL     1      30.212  50.602  38.748  1.00  0.00    -0.074 N 
HETATM    3  C   UNL     1      28.906  50.194  38.686  1.00  0.00     0.736 A 
HETATM    4  N   UNL     1      28.170  51.197  38.286  1.00  0.00     0.131 NA
HETATM    5  C   UNL     1      29.086  52.185  38.070  1.00  0.00     0.753 A 
HETATM    6  N   UNL     1      30.350  51.879  38.352  1.00  0.00     0.037 NA
HETATM    7  N   UNL     1      28.549  48.935  39.007  1.00  0.00    -0.214 N 
HETATM    8  C   UNL     1      29.492  48.069  39.709  1.00  0.00     0.135 C 
HETATM    9  C   UNL     1      30.913  48.277  39.152  1.00  0.00     0.063 C 
HETATM   10  H   UNL     1      27.562  48.761  39.177  1.00  0.00     0.178 HD
ENDROOT
BRANCH   1  11
HETATM   11  C   UNL     1      31.843  50.177  40.566  1.00  0.00     0.001 A 
HETATM   12  C   UNL     1      33.002  50.966  40.662  1.00  0.00     0.076 A 
HETATM   13  C   UNL     1      33.546  51.303  41.906  1.00  0.00     0.037 A 
HETATM   14  C   UNL     1      32.919  50.885  43.078  1.00  0.00     0.003 A 
HETATM   15  C   UNL     1      31.755  50.125  43.005  1.00  0.00     0.001 A 
HETATM   16  C   UNL     1      31.224  49.770  41.763  1.00  0.00     0.012 A 
BRANCH  12  17
HETATM   17  O   UNL     1      33.633  51.348  39.506  1.00  0.00    -0.355 OA
HETATM   18  C   UNL     1      33.698  52.773  39.394  1.00  0.00     0.210 C 
ENDBRANCH  12  17
ENDBRANCH   1  11
BRANCH   8  19
HETATM   19  C   UNL     1      29.065  46.616  39.582  1.00  0.00    -0.035 A 
HETATM   20  C   UNL     1      29.705  45.731  38.697  1.00  0.00     0.010 A 
HETATM   21  C   UNL     1      29.297  44.398  38.601  1.00  0.00     0.019 A 
HETATM   22  C   UNL     1      28.254  43.935  39.400  1.00  0.00     0.011 A 
HETATM   23 BR   UNL     1      27.701  42.132  39.270  1.00  0.00    -0.051 Br
HETATM   24  C   UNL     1      27.619  44.791  40.295  1.00  0.00     0.019 A 
HETATM   25  C   UNL     1      28.023  46.126  40.387  1.00  0.00     0.010 A 
ENDBRANCH   8  19
BRANCH   5  26
HETATM   26  N   UNL     1      28.657  53.367  37.639  1.00  0.00    -0.229 N 
HETATM   27  H   UNL     1      28.849  53.597  36.674  1.00  0.00     0.174 HD
HETATM   28  H   UNL     1      27.762  53.682  37.986  1.00  0.00     0.174 HD
ENDBRANCH   5  26
TORSDOF 4
ENDMDL
