MODEL 1
REMARK VINA RESULT:      -9.0      0.000      0.000
REMARK  2 active torsions:
REMARK  status: ('A' for Active; 'I' for Inactive)
REMARK       I    between atoms: N_4  and  C_5 
REMARK       I    between atoms: C_5  and  N_6 
REMARK    1  A    between atoms: N_6  and  C_7 
REMARK    2  A    between atoms: C_20  and  C_21 
ROOT
HETATM    1  C   UNL     1      23.996  42.708  48.293  1.00  0.00     0.011 C 
HETATM    2  C   UNL     1      24.269  44.198  48.413  1.00  0.00     0.002 C 
HETATM    3  C   UNL     1      23.175  44.948  49.164  1.00  0.00     0.132 C 
HETATM    4  N   UNL     1      23.860  46.113  49.691  1.00  0.00    -0.325 N 
HETATM    5  C   UNL     1      23.419  47.423  49.638  1.00  0.00     0.323 C 
HETATM    6  N   UNL     1      22.057  47.543  49.476  1.00  0.00    -0.309 N 
HETATM    7  O   UNL     1      24.195  48.371  49.733  1.00  0.00    -0.247 OA
HETATM    8  C   UNL     1      25.260  45.810  49.965  1.00  0.00     0.125 C 
HETATM    9  C   UNL     1      25.557  44.514  49.187  1.00  0.00     0.036 C 
HETATM   10  H   UNL     1      21.521  46.782  49.866  1.00  0.00     0.170 HD
ENDROOT
BRANCH   6  11
HETATM   11  C   UNL     1      21.354  48.712  49.124  1.00  0.00     0.038 A 
HETATM   12  C   UNL     1      20.127  49.062  49.695  1.00  0.00     0.062 A 
HETATM   13  C   UNL     1      19.502  50.259  49.335  1.00  0.00     0.070 A 
HETATM   14  C   UNL     1      20.091  51.112  48.403  1.00  0.00     0.096 A 
HETATM   15  N   UNL     1      18.305  50.617  49.954  1.00  0.00    -0.323 N 
HETATM   16  O   UNL     1      19.557  52.310  48.023  1.00  0.00    -0.335 OA
HETATM   17  C   UNL     1      21.322  50.775  47.843  1.00  0.00     0.041 A 
HETATM   18  C   UNL     1      18.201  52.522  48.411  1.00  0.00     0.217 C 
HETATM   19  C   UNL     1      17.643  51.765  49.625  1.00  0.00     0.251 C 
HETATM   20  C   UNL     1      17.311  52.239  47.204  1.00  0.00     0.050 C 
HETATM   21  O   UNL     1      16.628  52.112  50.225  1.00  0.00    -0.270 OA
HETATM   22  C   UNL     1      21.954  49.582  48.206  1.00  0.00     0.032 A 
HETATM   23  H   UNL     1      17.916  50.055  50.699  1.00  0.00     0.169 HD
ENDBRANCH   6  11
BRANCH   8  24
HETATM   24  C   UNL     1      25.507  45.733  51.462  1.00  0.00     0.003 A 
HETATM   25  C   UNL     1      26.148  46.749  52.182  1.00  0.00     0.124 A 
HETATM   26  F   UNL     1      26.581  47.857  51.561  1.00  0.00    -0.205 F 
HETATM   27  C   UNL     1      26.373  46.645  53.552  1.00  0.00     0.043 A 
HETATM   28  C   UNL     1      25.978  45.498  54.235  1.00  0.00     0.003 A 
HETATM   29  C   UNL     1      25.368  44.458  53.537  1.00  0.00     0.001 A 
HETATM   30  C   UNL     1      25.136  44.573  52.163  1.00  0.00     0.012 A 
ENDBRANCH   8  24
TORSDOF 2
ENDMDL
MODEL 2
REMARK VINA RESULT:      -8.8     14.423     16.000
REMARK  2 active torsions:
REMARK  status: ('A' for Active; 'I' for Inactive)
REMARK       I    between atoms: N_4  and  C_5 
REMARK       I    between atoms: C_5  and  N_6 
REMARK    1  A    between atoms: N_6  and  C_7 
REMARK    2  A    between atoms: C_20  and  C_21 
ROOT
HETATM    1  C   UNL     1      40.678  49.505  42.869  1.00  0.00     0.011 C 
HETATM    2  C   UNL     1      39.652  50.582  42.557  1.00  0.00     0.002 C 
HETATM    3  C   UNL     1      38.331  50.379  43.290  1.00  0.00     0.132 C 
HETATM    4  N   UNL     1      37.775  51.717  43.368  1.00  0.00    -0.325 N 
HETATM    5  C   UNL     1      36.476  52.089  43.072  1.00  0.00     0.323 C 
HETATM    6  N   UNL     1      35.572  51.053  43.147  1.00  0.00    -0.309 N 
HETATM    7  O   UNL     1      36.186  53.245  42.778  1.00  0.00    -0.247 OA
HETATM    8  C   UNL     1      38.837  52.715  43.439  1.00  0.00     0.125 C 
HETATM    9  C   UNL     1      40.112  51.988  42.969  1.00  0.00     0.036 C 
HETATM   10  H   UNL     1      35.817  50.332  43.810  1.00  0.00     0.170 HD
ENDROOT
BRANCH   6  11
HETATM   11  C   UNL     1      34.254  51.053  42.653  1.00  0.00     0.038 A 
HETATM   12  C   UNL     1      33.901  50.483  41.427  1.00  0.00     0.062 A 
HETATM   13  C   UNL     1      32.566  50.477  41.014  1.00  0.00     0.070 A 
HETATM   14  C   UNL     1      31.575  51.041  41.817  1.00  0.00     0.096 A 
HETATM   15  N   UNL     1      32.225  49.857  39.813  1.00  0.00    -0.323 N 
HETATM   16  O   UNL     1      30.247  51.048  41.496  1.00  0.00    -0.335 OA
HETATM   17  C   UNL     1      31.919  51.597  43.048  1.00  0.00     0.041 A 
HETATM   18  C   UNL     1      29.945  50.704  40.145  1.00  0.00     0.217 C 
HETATM   19  C   UNL     1      30.939  49.840  39.354  1.00  0.00     0.251 C 
HETATM   20  C   UNL     1      29.691  51.994  39.371  1.00  0.00     0.050 C 
HETATM   21  O   UNL     1      30.633  49.229  38.332  1.00  0.00    -0.270 OA
HETATM   22  C   UNL     1      33.253  51.598  43.467  1.00  0.00     0.032 A 
HETATM   23  H   UNL     1      32.918  49.362  39.268  1.00  0.00     0.169 HD
ENDBRANCH   6  11
BRANCH   8  24
HETATM   24  C   UNL     1      38.914  53.315  44.831  1.00  0.00     0.003 A 
HETATM   25  C   UNL     1      38.502  54.621  45.122  1.00  0.00     0.124 A 
HETATM   26  F   UNL     1      38.012  55.414  44.157  1.00  0.00    -0.205 F 
HETATM   27  C   UNL     1      38.598  55.150  46.408  1.00  0.00     0.043 A 
HETATM   28  C   UNL     1      39.136  54.381  47.436  1.00  0.00     0.003 A 
HETATM   29  C   UNL     1      39.584  53.089  47.166  1.00  0.00     0.001 A 
HETATM   30  C   UNL     1      39.476  52.562  45.876  1.00  0.00     0.012 A 
ENDBRANCH   8  24
TORSDOF 2
ENDMDL
MODEL 3
REMARK VINA RESULT:      -8.6      5.165     11.555
REMARK  2 active torsions:
REMARK  status: ('A' for Active; 'I' for Inactive)
REMARK       I    between atoms: N_4  and  C_5 
REMARK       I    between atoms: C_5  and  N_6 
REMARK    1  A    between atoms: N_6  and  C_7 
REMARK    2  A    between atoms: C_20  and  C_21 
ROOT
HETATM    1  C   UNL     1      11.787  55.436  46.988  1.00  0.00     0.011 C 
HETATM    2  C   UNL     1      12.474  54.669  48.105  1.00  0.00     0.002 C 
HETATM    3  C   UNL     1      13.992  54.652  47.972  1.00  0.00     0.132 C 
HETATM    4  N   UNL     1      14.452  54.457  49.335  1.00  0.00    -0.325 N 
HETATM    5  C   UNL     1      15.417  53.562  49.760  1.00  0.00     0.323 C 
HETATM    6  N   UNL     1      16.287  53.172  48.766  1.00  0.00    -0.309 N 
HETATM    7  O   UNL     1      15.471  53.174  50.924  1.00  0.00    -0.247 OA
HETATM    8  C   UNL     1      13.519  55.053  50.285  1.00  0.00     0.125 C 
HETATM    9  C   UNL     1      12.213  55.267  49.495  1.00  0.00     0.036 C 
HETATM   10  H   UNL     1      16.434  53.862  48.045  1.00  0.00     0.170 HD
ENDROOT
BRANCH   6  11
HETATM   11  C   UNL     1      17.188  52.091  48.819  1.00  0.00     0.038 A 
HETATM   12  C   UNL     1      18.551  52.251  49.089  1.00  0.00     0.062 A 
HETATM   13  C   UNL     1      19.385  51.133  49.171  1.00  0.00     0.070 A 
HETATM   14  C   UNL     1      18.870  49.850  48.980  1.00  0.00     0.096 A 
HETATM   15  N   UNL     1      20.730  51.306  49.493  1.00  0.00    -0.323 N 
HETATM   16  O   UNL     1      19.615  48.709  49.073  1.00  0.00    -0.335 OA
HETATM   17  C   UNL     1      17.510  49.685  48.726  1.00  0.00     0.041 A 
HETATM   18  C   UNL     1      21.028  48.904  49.088  1.00  0.00     0.217 C 
HETATM   19  C   UNL     1      21.592  50.250  49.568  1.00  0.00     0.251 C 
HETATM   20  C   UNL     1      21.562  48.617  47.687  1.00  0.00     0.050 C 
HETATM   21  O   UNL     1      22.759  50.401  49.924  1.00  0.00    -0.270 OA
HETATM   22  C   UNL     1      16.671  50.801  48.651  1.00  0.00     0.032 A 
HETATM   23  H   UNL     1      21.095  52.220  49.727  1.00  0.00     0.169 HD
ENDBRANCH   6  11
BRANCH   8  24
HETATM   24  C   UNL     1      14.112  56.307  50.901  1.00  0.00     0.003 A 
HETATM   25  C   UNL     1      14.586  56.359  52.218  1.00  0.00     0.124 A 
HETATM   26  F   UNL     1      14.533  55.274  53.006  1.00  0.00    -0.205 F 
HETATM   27  C   UNL     1      15.112  57.529  52.761  1.00  0.00     0.043 A 
HETATM   28  C   UNL     1      15.153  58.692  51.997  1.00  0.00     0.003 A 
HETATM   29  C   UNL     1      14.657  58.676  50.694  1.00  0.00     0.001 A 
HETATM   30  C   UNL     1      14.139  57.496  50.152  1.00  0.00     0.012 A 
ENDBRANCH   8  24
TORSDOF 2
ENDMDL
MODEL 4
REMARK VINA RESULT:      -8.6      3.442      5.811
REMARK  2 active torsions:
REMARK  status: ('A' for Active; 'I' for Inactive)
REMARK       I    between atoms: N_4  and  C_5 
REMARK       I    between atoms: C_5  and  N_6 
REMARK    1  A    between atoms: N_6  and  C_7 
REMARK    2  A    between atoms: C_20  and  C_21 
ROOT
HETATM    1  C   UNL     1      29.623  42.706  53.805  1.00  0.00     0.011 C 
HETATM    2  C   UNL     1      28.268  42.985  53.178  1.00  0.00     0.002 C 
HETATM    3  C   UNL     1      28.358  43.818  51.905  1.00  0.00     0.132 C 
HETATM    4  N   UNL     1      27.156  43.460  51.176  1.00  0.00    -0.325 N 
HETATM    5  C   UNL     1      26.272  44.329  50.564  1.00  0.00     0.323 C 
HETATM    6  N   UNL     1      26.822  45.554  50.259  1.00  0.00    -0.309 N 
HETATM    7  O   UNL     1      25.111  44.009  50.324  1.00  0.00    -0.247 OA
HETATM    8  C   UNL     1      26.765  42.085  51.468  1.00  0.00     0.125 C 
HETATM    9  C   UNL     1      27.527  41.709  52.754  1.00  0.00     0.036 C 
HETATM   10  H   UNL     1      27.814  45.532  50.073  1.00  0.00     0.170 HD
ENDROOT
BRANCH   6  11
HETATM   11  C   UNL     1      26.122  46.718  49.886  1.00  0.00     0.038 A 
HETATM   12  C   UNL     1      24.732  46.832  49.981  1.00  0.00     0.062 A 
HETATM   13  C   UNL     1      24.101  48.031  49.637  1.00  0.00     0.070 A 
HETATM   14  C   UNL     1      24.849  49.121  49.193  1.00  0.00     0.096 A 
HETATM   15  N   UNL     1      22.720  48.144  49.788  1.00  0.00    -0.323 N 
HETATM   16  O   UNL     1      24.309  50.333  48.867  1.00  0.00    -0.335 OA
HETATM   17  C   UNL     1      26.236  49.018  49.112  1.00  0.00     0.041 A 
HETATM   18  C   UNL     1      22.890  50.347  48.720  1.00  0.00     0.217 C 
HETATM   19  C   UNL     1      22.052  49.286  49.448  1.00  0.00     0.251 C 
HETATM   20  C   UNL     1      22.565  50.292  47.229  1.00  0.00     0.050 C 
HETATM   21  O   UNL     1      20.846  49.405  49.652  1.00  0.00    -0.270 OA
HETATM   22  C   UNL     1      26.871  47.822  49.463  1.00  0.00     0.032 A 
HETATM   23  H   UNL     1      22.178  47.395  50.197  1.00  0.00     0.169 HD
ENDBRANCH   6  11
BRANCH   8  24
HETATM   24  C   UNL     1      27.035  41.187  50.274  1.00  0.00     0.003 A 
HETATM   25  C   UNL     1      26.029  40.759  49.399  1.00  0.00     0.124 A 
HETATM   26  F   UNL     1      24.754  41.134  49.589  1.00  0.00    -0.205 F 
HETATM   27  C   UNL     1      26.304  39.923  48.320  1.00  0.00     0.043 A 
HETATM   28  C   UNL     1      27.604  39.474  48.104  1.00  0.00     0.003 A 
HETATM   29  C   UNL     1      28.618  39.859  48.978  1.00  0.00     0.001 A 
HETATM   30  C   UNL     1      28.337  40.705  50.055  1.00  0.00     0.012 A 
ENDBRANCH   8  24
TORSDOF 2
ENDMDL
MODEL 5
REMARK VINA RESULT:      -8.5      3.442      8.997
REMARK  2 active torsions:
REMARK  status: ('A' for Active; 'I' for Inactive)
REMARK       I    between atoms: N_4  and  C_5 
REMARK       I    between atoms: C_5  and  N_6 
REMARK    1  A    between atoms: N_6  and  C_7 
REMARK    2  A    between atoms: C_20  and  C_21 
ROOT
HETATM    1  C   UNL     1      18.764  52.035  49.934  1.00  0.00     0.011 C 
HETATM    2  C   UNL     1      19.731  51.302  49.020  1.00  0.00     0.002 C 
HETATM    3  C   UNL     1      20.078  49.903  49.515  1.00  0.00     0.132 C 
HETATM    4  N   UNL     1      20.452  49.195  48.305  1.00  0.00    -0.325 N 
HETATM    5  C   UNL     1      21.563  48.391  48.128  1.00  0.00     0.323 C 
HETATM    6  N   UNL     1      22.076  47.891  49.305  1.00  0.00    -0.309 N 
HETATM    7  O   UNL     1      22.023  48.158  47.014  1.00  0.00    -0.247 OA
HETATM    8  C   UNL     1      19.722  49.718  47.154  1.00  0.00     0.125 C 
HETATM    9  C   UNL     1      19.176  51.087  47.605  1.00  0.00     0.036 C 
HETATM   10  H   UNL     1      21.394  47.761  50.037  1.00  0.00     0.170 HD
ENDROOT
BRANCH   6  11
HETATM   11  C   UNL     1      23.331  47.276  49.477  1.00  0.00     0.038 A 
HETATM   12  C   UNL     1      23.522  45.895  49.371  1.00  0.00     0.062 A 
HETATM   13  C   UNL     1      24.802  45.352  49.509  1.00  0.00     0.070 A 
HETATM   14  C   UNL     1      25.899  46.177  49.757  1.00  0.00     0.096 A 
HETATM   15  N   UNL     1      24.982  43.979  49.348  1.00  0.00    -0.323 N 
HETATM   16  O   UNL     1      27.182  45.724  49.875  1.00  0.00    -0.335 OA
HETATM   17  C   UNL     1      25.716  47.556  49.848  1.00  0.00     0.041 A 
HETATM   18  C   UNL     1      27.318  44.312  50.024  1.00  0.00     0.217 C 
HETATM   19  C   UNL     1      26.208  43.394  49.491  1.00  0.00     0.251 C 
HETATM   20  C   UNL     1      27.539  44.009  51.504  1.00  0.00     0.050 C 
HETATM   21  O   UNL     1      26.373  42.195  49.276  1.00  0.00    -0.270 OA
HETATM   22  C   UNL     1      24.438  48.104  49.703  1.00  0.00     0.032 A 
HETATM   23  H   UNL     1      24.213  43.382  49.074  1.00  0.00     0.169 HD
ENDBRANCH   6  11
BRANCH   8  24
HETATM   24  C   UNL     1      18.671  48.725  46.692  1.00  0.00     0.003 A 
HETATM   25  C   UNL     1      17.514  48.442  47.429  1.00  0.00     0.124 A 
HETATM   26  F   UNL     1      17.286  49.052  48.602  1.00  0.00    -0.205 F 
HETATM   27  C   UNL     1      16.573  47.515  46.986  1.00  0.00     0.043 A 
HETATM   28  C   UNL     1      16.783  46.827  45.795  1.00  0.00     0.003 A 
HETATM   29  C   UNL     1      17.942  47.066  45.059  1.00  0.00     0.001 A 
HETATM   30  C   UNL     1      18.878  48.004  45.503  1.00  0.00     0.012 A 
ENDBRANCH   8  24
TORSDOF 2
ENDMDL
MODEL 6
REMARK VINA RESULT:      -8.4     13.725     16.706
REMARK  2 active torsions:
REMARK  status: ('A' for Active; 'I' for Inactive)
REMARK       I    between atoms: N_4  and  C_5 
REMARK       I    between atoms: C_5  and  N_6 
REMARK    1  A    between atoms: N_6  and  C_7 
REMARK    2  A    between atoms: C_20  and  C_21 
ROOT
HETATM    1  C   UNL     1      29.801  47.089  40.212  1.00  0.00     0.011 C 
HETATM    2  C   UNL     1      30.510  48.207  40.957  1.00  0.00     0.002 C 
HETATM    3  C   UNL     1      31.639  48.840  40.152  1.00  0.00     0.132 C 
HETATM    4  N   UNL     1      31.749  50.175  40.709  1.00  0.00    -0.325 N 
HETATM    5  C   UNL     1      32.914  50.821  41.082  1.00  0.00     0.323 C 
HETATM    6  N   UNL     1      34.042  50.328  40.464  1.00  0.00    -0.309 N 
HETATM    7  O   UNL     1      32.911  51.746  41.889  1.00  0.00    -0.247 OA
HETATM    8  C   UNL     1      30.453  50.643  41.190  1.00  0.00     0.125 C 
HETATM    9  C   UNL     1      29.581  49.378  41.309  1.00  0.00     0.036 C 
HETATM   10  H   UNL     1      33.879  49.938  39.547  1.00  0.00     0.170 HD
ENDROOT
BRANCH   6  11
HETATM   11  C   UNL     1      35.377  50.588  40.826  1.00  0.00     0.038 A 
HETATM   12  C   UNL     1      35.893  50.293  42.092  1.00  0.00     0.062 A 
HETATM   13  C   UNL     1      37.240  50.534  42.374  1.00  0.00     0.070 A 
HETATM   14  C   UNL     1      38.081  51.074  41.402  1.00  0.00     0.096 A 
HETATM   15  N   UNL     1      37.749  50.185  43.624  1.00  0.00    -0.323 N 
HETATM   16  O   UNL     1      39.413  51.311  41.593  1.00  0.00    -0.335 OA
HETATM   17  C   UNL     1      37.576  51.356  40.134  1.00  0.00     0.041 A 
HETATM   18  C   UNL     1      39.853  51.251  42.948  1.00  0.00     0.217 C 
HETATM   19  C   UNL     1      39.053  50.416  43.959  1.00  0.00     0.251 C 
HETATM   20  C   UNL     1      39.971  52.680  43.474  1.00  0.00     0.050 C 
HETATM   21  O   UNL     1      39.513  50.040  45.034  1.00  0.00    -0.270 OA
HETATM   22  C   UNL     1      36.230  51.108  39.845  1.00  0.00     0.032 A 
HETATM   23  H   UNL     1      37.174  49.706  44.305  1.00  0.00     0.169 HD
ENDBRANCH   6  11
BRANCH   8  24
HETATM   24  C   UNL     1      29.901  51.721  40.274  1.00  0.00     0.003 A 
HETATM   25  C   UNL     1      29.924  53.083  40.599  1.00  0.00     0.124 A 
HETATM   26  F   UNL     1      30.447  53.498  41.763  1.00  0.00    -0.205 F 
HETATM   27  C   UNL     1      29.397  54.049  39.745  1.00  0.00     0.043 A 
HETATM   28  C   UNL     1      28.808  53.665  38.543  1.00  0.00     0.003 A 
HETATM   29  C   UNL     1      28.743  52.314  38.210  1.00  0.00     0.001 A 
HETATM   30  C   UNL     1      29.282  51.351  39.068  1.00  0.00     0.012 A 
ENDBRANCH   8  24
TORSDOF 2
ENDMDL
MODEL 7
REMARK VINA RESULT:      -8.4      7.163     10.437
REMARK  2 active torsions:
REMARK  status: ('A' for Active; 'I' for Inactive)
REMARK       I    between atoms: N_4  and  C_5 
REMARK       I    between atoms: C_5  and  N_6 
REMARK    1  A    between atoms: N_6  and  C_7 
REMARK    2  A    between atoms: C_20  and  C_21 
ROOT
HETATM    1  C   UNL     1      25.720  46.990  52.333  1.00  0.00     0.011 C 
HETATM    2  C   UNL     1      25.832  45.501  52.617  1.00  0.00     0.002 C 
HETATM    3  C   UNL     1      26.912  44.815  51.788  1.00  0.00     0.132 C 
HETATM    4  N   UNL     1      27.274  43.660  52.588  1.00  0.00    -0.325 N 
HETATM    5  C   UNL     1      27.423  42.360  52.140  1.00  0.00     0.323 C 
HETATM    6  N   UNL     1      27.678  42.265  50.790  1.00  0.00    -0.309 N 
HETATM    7  O   UNL     1      27.335  41.400  52.901  1.00  0.00    -0.247 OA
HETATM    8  C   UNL     1      27.106  43.942  54.009  1.00  0.00     0.125 C 
HETATM    9  C   UNL     1      26.207  45.192  54.073  1.00  0.00     0.036 C 
HETATM   10  H   UNL     1      28.168  43.057  50.401  1.00  0.00     0.170 HD
ENDROOT
BRANCH   6  11
HETATM   11  C   UNL     1      27.612  41.098  50.005  1.00  0.00     0.038 A 
HETATM   12  C   UNL     1      26.475  40.734  49.278  1.00  0.00     0.062 A 
HETATM   13  C   UNL     1      26.490  39.586  48.481  1.00  0.00     0.070 A 
HETATM   14  C   UNL     1      27.633  38.791  48.407  1.00  0.00     0.096 A 
HETATM   15  N   UNL     1      25.365  39.267  47.722  1.00  0.00    -0.323 N 
HETATM   16  O   UNL     1      27.734  37.672  47.630  1.00  0.00    -0.335 OA
HETATM   17  C   UNL     1      28.774  39.158  49.118  1.00  0.00     0.041 A 
HETATM   18  C   UNL     1      26.500  37.179  47.110  1.00  0.00     0.217 C 
HETATM   19  C   UNL     1      25.319  38.147  46.942  1.00  0.00     0.251 C 
HETATM   20  C   UNL     1      26.054  36.005  47.977  1.00  0.00     0.050 C 
HETATM   21  O   UNL     1      24.354  37.910  46.219  1.00  0.00    -0.270 OA
HETATM   22  C   UNL     1      28.766  40.310  49.909  1.00  0.00     0.032 A 
HETATM   23  H   UNL     1      24.565  39.885  47.693  1.00  0.00     0.169 HD
ENDBRANCH   6  11
BRANCH   8  24
HETATM   24  C   UNL     1      28.456  44.085  54.689  1.00  0.00     0.003 A 
HETATM   25  C   UNL     1      28.855  45.250  55.355  1.00  0.00     0.124 A 
HETATM   26  F   UNL     1      28.039  46.314  55.417  1.00  0.00    -0.205 F 
HETATM   27  C   UNL     1      30.106  45.357  55.958  1.00  0.00     0.043 A 
HETATM   28  C   UNL     1      31.004  44.296  55.887  1.00  0.00     0.003 A 
HETATM   29  C   UNL     1      30.644  43.136  55.202  1.00  0.00     0.001 A 
HETATM   30  C   UNL     1      29.383  43.032  54.608  1.00  0.00     0.012 A 
ENDBRANCH   8  24
TORSDOF 2
ENDMDL
MODEL 8
REMARK VINA RESULT:      -8.3      3.586      9.242
REMARK  2 active torsions:
REMARK  status: ('A' for Active; 'I' for Inactive)
REMARK       I    between atoms: N_4  and  C_5 
REMARK       I    between atoms: C_5  and  N_6 
REMARK    1  A    between atoms: N_6  and  C_7 
REMARK    2  A    between atoms: C_20  and  C_21 
ROOT
HETATM    1  C   UNL     1      23.227  51.296  48.594  1.00  0.00     0.011 C 
HETATM    2  C   UNL     1      23.141  49.841  48.165  1.00  0.00     0.002 C 
HETATM    3  C   UNL     1      23.131  48.871  49.341  1.00  0.00     0.132 C 
HETATM    4  N   UNL     1      22.455  47.701  48.813  1.00  0.00    -0.325 N 
HETATM    5  C   UNL     1      22.860  46.385  48.941  1.00  0.00     0.323 C 
HETATM    6  N   UNL     1      23.702  46.167  50.008  1.00  0.00    -0.309 N 
HETATM    7  O   UNL     1      22.484  45.514  48.162  1.00  0.00    -0.247 OA
HETATM    8  C   UNL     1      21.477  48.083  47.799  1.00  0.00     0.125 C 
HETATM    9  C   UNL     1      21.858  49.518  47.386  1.00  0.00     0.036 C 
HETATM   10  H   UNL     1      23.562  46.794  50.786  1.00  0.00     0.170 HD
ENDROOT
BRANCH   6  11
HETATM   11  C   UNL     1      24.481  45.017  50.240  1.00  0.00     0.038 A 
HETATM   12  C   UNL     1      25.180  44.355  49.225  1.00  0.00     0.062 A 
HETATM   13  C   UNL     1      25.972  43.244  49.529  1.00  0.00     0.070 A 
HETATM   14  C   UNL     1      26.070  42.783  50.841  1.00  0.00     0.096 A 
HETATM   15  N   UNL     1      26.703  42.629  48.514  1.00  0.00    -0.323 N 
HETATM   16  O   UNL     1      26.845  41.723  51.220  1.00  0.00    -0.335 OA
HETATM   17  C   UNL     1      25.388  43.448  51.858  1.00  0.00     0.041 A 
HETATM   18  C   UNL     1      27.333  40.914  50.152  1.00  0.00     0.217 C 
HETATM   19  C   UNL     1      27.477  41.529  48.752  1.00  0.00     0.251 C 
HETATM   20  C   UNL     1      26.451  39.672  50.054  1.00  0.00     0.050 C 
HETATM   21  O   UNL     1      28.176  41.037  47.869  1.00  0.00    -0.270 OA
HETATM   22  C   UNL     1      24.601  44.565  51.559  1.00  0.00     0.032 A 
HETATM   23  H   UNL     1      26.716  43.011  47.577  1.00  0.00     0.169 HD
ENDBRANCH   6  11
BRANCH   8  24
HETATM   24  C   UNL     1      20.065  47.919  48.330  1.00  0.00     0.003 A 
HETATM   25  C   UNL     1      19.182  46.938  47.859  1.00  0.00     0.124 A 
HETATM   26  F   UNL     1      19.561  46.085  46.895  1.00  0.00    -0.205 F 
HETATM   27  C   UNL     1      17.886  46.821  48.356  1.00  0.00     0.043 A 
HETATM   28  C   UNL     1      17.433  47.707  49.329  1.00  0.00     0.003 A 
HETATM   29  C   UNL     1      18.279  48.713  49.791  1.00  0.00     0.001 A 
HETATM   30  C   UNL     1      19.582  48.820  49.295  1.00  0.00     0.012 A 
ENDBRANCH   8  24
TORSDOF 2
ENDMDL
MODEL 9
REMARK VINA RESULT:      -8.1      3.514      9.188
REMARK  2 active torsions:
REMARK  status: ('A' for Active; 'I' for Inactive)
REMARK       I    between atoms: N_4  and  C_5 
REMARK       I    between atoms: C_5  and  N_6 
REMARK    1  A    between atoms: N_6  and  C_7 
REMARK    2  A    between atoms: C_20  and  C_21 
ROOT
HETATM    1  C   UNL     1      15.543  48.031  44.676  1.00  0.00     0.011 C 
HETATM    2  C   UNL     1      16.146  48.093  46.069  1.00  0.00     0.002 C 
HETATM    3  C   UNL     1      17.393  48.967  46.143  1.00  0.00     0.132 C 
HETATM    4  N   UNL     1      17.436  49.385  47.531  1.00  0.00    -0.325 N 
HETATM    5  C   UNL     1      18.540  49.368  48.364  1.00  0.00     0.323 C 
HETATM    6  N   UNL     1      19.741  49.381  47.691  1.00  0.00    -0.309 N 
HETATM    7  O   UNL     1      18.428  49.349  49.587  1.00  0.00    -0.247 OA
HETATM    8  C   UNL     1      16.089  49.481  48.084  1.00  0.00     0.125 C 
HETATM    9  C   UNL     1      15.191  48.691  47.112  1.00  0.00     0.036 C 
HETATM   10  H   UNL     1      19.714  49.848  46.797  1.00  0.00     0.170 HD
ENDROOT
BRANCH   6  11
HETATM   11  C   UNL     1      21.010  49.105  48.236  1.00  0.00     0.038 A 
HETATM   12  C   UNL     1      21.476  47.806  48.458  1.00  0.00     0.062 A 
HETATM   13  C   UNL     1      22.763  47.599  48.960  1.00  0.00     0.070 A 
HETATM   14  C   UNL     1      23.593  48.682  49.248  1.00  0.00     0.096 A 
HETATM   15  N   UNL     1      23.230  46.296  49.126  1.00  0.00    -0.323 N 
HETATM   16  O   UNL     1      24.872  48.559  49.713  1.00  0.00    -0.335 OA
HETATM   17  C   UNL     1      23.139  49.978  49.014  1.00  0.00     0.041 A 
HETATM   18  C   UNL     1      25.229  47.258  50.175  1.00  0.00     0.217 C 
HETATM   19  C   UNL     1      24.473  46.037  49.631  1.00  0.00     0.251 C 
HETATM   20  C   UNL     1      25.140  47.253  51.699  1.00  0.00     0.050 C 
HETATM   21  O   UNL     1      24.906  44.889  49.705  1.00  0.00    -0.270 OA
HETATM   22  C   UNL     1      21.854  50.190  48.504  1.00  0.00     0.032 A 
HETATM   23  H   UNL     1      22.675  45.503  48.832  1.00  0.00     0.169 HD
ENDBRANCH   6  11
BRANCH   8  24
HETATM   24  C   UNL     1      15.697  50.935  48.284  1.00  0.00     0.003 A 
HETATM   25  C   UNL     1      15.389  51.794  47.223  1.00  0.00     0.124 A 
HETATM   26  F   UNL     1      15.431  51.356  45.955  1.00  0.00    -0.205 F 
HETATM   27  C   UNL     1      15.046  53.128  47.437  1.00  0.00     0.043 A 
HETATM   28  C   UNL     1      15.027  53.640  48.730  1.00  0.00     0.003 A 
HETATM   29  C   UNL     1      15.361  52.815  49.802  1.00  0.00     0.001 A 
HETATM   30  C   UNL     1      15.695  51.475  49.582  1.00  0.00     0.012 A 
ENDBRANCH   8  24
TORSDOF 2
ENDMDL
MODEL 10
REMARK VINA RESULT:      -7.7      4.938      7.921
REMARK  2 active torsions:
REMARK  status: ('A' for Active; 'I' for Inactive)
REMARK       I    between atoms: N_4  and  C_5 
REMARK       I    between atoms: C_5  and  N_6 
REMARK    1  A    between atoms: N_6  and  C_7 
REMARK    2  A    between atoms: C_20  and  C_21 
ROOT
HETATM    1  C   UNL     1      16.156  47.425  45.404  1.00  0.00     0.011 C 
HETATM    2  C   UNL     1      16.572  48.861  45.676  1.00  0.00     0.002 C 
HETATM    3  C   UNL     1      16.307  49.299  47.112  1.00  0.00     0.132 C 
HETATM    4  N   UNL     1      17.270  50.363  47.328  1.00  0.00    -0.325 N 
HETATM    5  C   UNL     1      17.020  51.598  47.897  1.00  0.00     0.323 C 
HETATM    6  N   UNL     1      15.902  51.623  48.699  1.00  0.00    -0.309 N 
HETATM    7  O   UNL     1      17.750  52.564  47.690  1.00  0.00    -0.247 OA
HETATM    8  C   UNL     1      18.475  50.138  46.537  1.00  0.00     0.125 C 
HETATM    9  C   UNL     1      18.074  49.102  45.468  1.00  0.00     0.036 C 
HETATM   10  H   UNL     1      15.686  50.742  49.142  1.00  0.00     0.170 HD
ENDROOT
BRANCH   6  11
HETATM   11  C   UNL     1      15.248  52.769  49.191  1.00  0.00     0.038 A 
HETATM   12  C   UNL     1      15.322  53.172  50.527  1.00  0.00     0.062 A 
HETATM   13  C   UNL     1      14.686  54.345  50.943  1.00  0.00     0.070 A 
HETATM   14  C   UNL     1      13.969  55.121  50.032  1.00  0.00     0.096 A 
HETATM   15  N   UNL     1      14.816  54.760  52.267  1.00  0.00    -0.323 N 
HETATM   16  O   UNL     1      13.346  56.293  50.356  1.00  0.00    -0.335 OA
HETATM   17  C   UNL     1      13.904  54.731  48.696  1.00  0.00     0.041 A 
HETATM   18  C   UNL     1      13.213  56.546  51.753  1.00  0.00     0.217 C 
HETATM   19  C   UNL     1      14.199  55.887  52.730  1.00  0.00     0.251 C 
HETATM   20  C   UNL     1      11.791  56.183  52.170  1.00  0.00     0.050 C 
HETATM   21  O   UNL     1      14.376  56.287  53.878  1.00  0.00    -0.270 OA
HETATM   22  C   UNL     1      14.546  53.562  48.275  1.00  0.00     0.032 A 
HETATM   23  H   UNL     1      15.410  54.259  52.914  1.00  0.00     0.169 HD
ENDBRANCH   6  11
BRANCH   8  24
HETATM   24  C   UNL     1      19.631  49.726  47.430  1.00  0.00     0.003 A 
HETATM   25  C   UNL     1      19.735  48.453  48.004  1.00  0.00     0.124 A 
HETATM   26  F   UNL     1      18.792  47.525  47.782  1.00  0.00    -0.205 F 
HETATM   27  C   UNL     1      20.802  48.108  48.831  1.00  0.00     0.043 A 
HETATM   28  C   UNL     1      21.785  49.048  49.124  1.00  0.00     0.003 A 
HETATM   29  C   UNL     1      21.689  50.332  48.592  1.00  0.00     0.001 A 
HETATM   30  C   UNL     1      20.621  50.669  47.755  1.00  0.00     0.012 A 
ENDBRANCH   8  24
TORSDOF 2
ENDMDL
