MODEL 1
REMARK VINA RESULT:     -10.4      0.000      0.000
REMARK  4 active torsions:
REMARK  status: ('A' for Active; 'I' for Inactive)
REMARK    1  A    between atoms: N_5  and  C_6 
REMARK    2  A    between atoms: C_6  and  C_7 
REMARK    3  A    between atoms: C_7  and  C_8 
REMARK    4  A    between atoms: C_8  and  N_9 
ROOT
HETATM    1  C   UNL     1      23.757  44.759  49.540  1.00  0.00     0.236 C 
ENDROOT
BRANCH   1   2
HETATM    2  C   UNL     1      25.107  44.810  50.254  1.00  0.00     0.048 C 
BRANCH   2   3
HETATM    3  C   UNL     1      25.158  43.699  51.319  1.00  0.00     0.131 C 
BRANCH   3   4
HETATM    4  N   UNL     1      26.538  43.450  51.774  1.00  0.00    -0.346 N 
HETATM    5  C   UNL     1      27.044  44.262  52.823  1.00  0.00     0.041 A 
HETATM    6  C   UNL     1      27.939  43.810  53.818  1.00  0.00    -0.031 A 
HETATM    7  C   UNL     1      26.712  45.638  52.854  1.00  0.00     0.030 A 
HETATM    8  C   UNL     1      28.417  44.717  54.797  1.00  0.00     0.009 A 
HETATM    9  C   UNL     1      28.502  42.410  53.937  1.00  0.00     0.045 C 
HETATM   10  C   UNL     1      28.029  46.051  54.819  1.00  0.00     0.001 A 
HETATM   11  C   UNL     1      27.177  46.517  53.837  1.00  0.00     0.002 A 
HETATM   12  C   UNL     1      27.654  41.285  53.367  1.00  0.00     0.045 C 
HETATM   13  C   UNL     1      27.713  41.285  51.864  1.00  0.00    -0.031 A 
HETATM   14  C   UNL     1      27.178  42.360  51.139  1.00  0.00     0.042 A 
HETATM   15  C   UNL     1      28.322  40.207  51.195  1.00  0.00     0.011 A 
HETATM   16  C   UNL     1      27.277  42.321  49.736  1.00  0.00     0.054 A 
HETATM   17  C   UNL     1      27.857  41.236  49.079  1.00  0.00     0.036 A 
HETATM   18 CL   UNL     1      27.865  41.189  47.360  1.00  0.00    -0.084 Cl
HETATM   19  C   UNL     1      28.387  40.178  49.804  1.00  0.00     0.024 A 
ENDBRANCH   3   4
ENDBRANCH   2   3
ENDBRANCH   1   2
BRANCH   1  20
HETATM   20  N   UNL     1      23.004  46.107  49.494  1.00  0.00    -0.071 N 
HETATM   21  H   UNL     1      22.479  46.082  50.383  1.00  0.00     0.279 HD
HETATM   22  C   UNL     1      21.984  46.275  48.396  1.00  0.00     0.238 C 
HETATM   23  C   UNL     1      21.925  47.672  47.784  1.00  0.00     0.077 C 
HETATM   24  C   UNL     1      22.312  48.855  48.681  1.00  0.00     0.212 C 
HETATM   25  N   UNL     1      21.118  49.673  49.177  1.00  0.00    -0.032 N 
HETATM   26  C   UNL     1      23.011  49.900  47.787  1.00  0.00     0.256 C 
HETATM   27  C   UNL     1      23.222  48.515  49.860  1.00  0.00     0.077 C 
HETATM   28  H   UNL     1      21.498  50.286  49.915  1.00  0.00     0.283 HD
HETATM   29  C   UNL     1      20.828  50.658  48.084  1.00  0.00     0.290 C 
HETATM   30  C   UNL     1      19.888  49.044  49.738  1.00  0.00     0.239 C 
HETATM   31  C   UNL     1      20.022  51.807  48.665  1.00  0.00     0.055 C 
HETATM   32  N   UNL     1      22.138  50.964  47.643  1.00  0.00    -0.331 N 
HETATM   33  C   UNL     1      18.746  51.278  49.334  1.00  0.00     0.005 C 
HETATM   34  C   UNL     1      19.030  50.155  50.338  1.00  0.00     0.028 C 
HETATM   35  H   UNL     1      22.347  51.677  46.944  1.00  0.00     0.164 HD
HETATM   36  O   UNL     1      24.120  49.794  47.304  1.00  0.00    -0.271 OA
HETATM   37  C   UNL     1      24.001  47.242  49.591  1.00  0.00     0.238 C 
ENDBRANCH   1  20
TORSDOF 4
ENDMDL
MODEL 2
REMARK VINA RESULT:     -10.2      5.478      9.278
REMARK  4 active torsions:
REMARK  status: ('A' for Active; 'I' for Inactive)
REMARK    1  A    between atoms: N_5  and  C_6 
REMARK    2  A    between atoms: C_6  and  C_7 
REMARK    3  A    between atoms: C_7  and  C_8 
REMARK    4  A    between atoms: C_8  and  N_9 
ROOT
HETATM    1  C   UNL     1      28.739  40.432  52.470  1.00  0.00     0.236 C 
ENDROOT
BRANCH   1   2
HETATM    2  C   UNL     1      29.013  41.891  52.829  1.00  0.00     0.048 C 
BRANCH   2   3
HETATM    3  C   UNL     1      27.713  42.539  53.340  1.00  0.00     0.131 C 
BRANCH   3   4
HETATM    4  N   UNL     1      27.785  44.011  53.285  1.00  0.00    -0.346 N 
HETATM    5  C   UNL     1      27.218  44.660  52.157  1.00  0.00     0.041 A 
HETATM    6  C   UNL     1      26.576  45.916  52.201  1.00  0.00    -0.031 A 
HETATM    7  C   UNL     1      27.362  44.070  50.878  1.00  0.00     0.030 A 
HETATM    8  C   UNL     1      26.081  46.495  51.005  1.00  0.00     0.009 A 
HETATM    9  C   UNL     1      26.383  46.772  53.435  1.00  0.00     0.045 C 
HETATM   10  C   UNL     1      26.202  45.861  49.775  1.00  0.00     0.001 A 
HETATM   11  C   UNL     1      26.853  44.645  49.708  1.00  0.00     0.002 A 
HETATM   12  C   UNL     1      26.320  46.042  54.766  1.00  0.00     0.045 C 
HETATM   13  C   UNL     1      27.689  45.581  55.183  1.00  0.00    -0.031 A 
HETATM   14  C   UNL     1      28.365  44.612  54.427  1.00  0.00     0.042 A 
HETATM   15  C   UNL     1      28.289  46.140  56.327  1.00  0.00     0.011 A 
HETATM   16  C   UNL     1      29.652  44.229  54.849  1.00  0.00     0.054 A 
HETATM   17  C   UNL     1      30.229  44.767  55.999  1.00  0.00     0.036 A 
HETATM   18 CL   UNL     1      31.761  44.194  56.528  1.00  0.00    -0.084 Cl
HETATM   19  C   UNL     1      29.554  45.728  56.739  1.00  0.00     0.024 A 
ENDBRANCH   3   4
ENDBRANCH   2   3
ENDBRANCH   1   2
BRANCH   1  20
HETATM   20  N   UNL     1      28.534  40.170  50.962  1.00  0.00    -0.071 N 
HETATM   21  H   UNL     1      29.192  40.847  50.542  1.00  0.00     0.279 HD
HETATM   22  C   UNL     1      27.171  40.489  50.399  1.00  0.00     0.238 C 
HETATM   23  C   UNL     1      26.671  39.510  49.340  1.00  0.00     0.077 C 
HETATM   24  C   UNL     1      27.723  38.792  48.485  1.00  0.00     0.212 C 
HETATM   25  N   UNL     1      27.843  39.340  47.062  1.00  0.00    -0.032 N 
HETATM   26  C   UNL     1      27.185  37.375  48.192  1.00  0.00     0.256 C 
HETATM   27  C   UNL     1      29.113  38.682  49.110  1.00  0.00     0.077 C 
HETATM   28  H   UNL     1      28.705  38.919  46.683  1.00  0.00     0.283 HD
HETATM   29  C   UNL     1      26.784  38.631  46.270  1.00  0.00     0.290 C 
HETATM   30  C   UNL     1      27.916  40.798  46.764  1.00  0.00     0.239 C 
HETATM   31  C   UNL     1      27.138  38.720  44.796  1.00  0.00     0.055 C 
HETATM   32  N   UNL     1      26.829  37.342  46.855  1.00  0.00    -0.331 N 
HETATM   33  C   UNL     1      27.304  40.186  44.375  1.00  0.00     0.005 C 
HETATM   34  C   UNL     1      28.267  40.955  45.287  1.00  0.00     0.028 C 
HETATM   35  H   UNL     1      26.291  36.547  46.511  1.00  0.00     0.164 HD
HETATM   36  O   UNL     1      27.096  36.469  48.995  1.00  0.00    -0.271 OA
HETATM   37  C   UNL     1      29.035  38.783  50.621  1.00  0.00     0.238 C 
ENDBRANCH   1  20
TORSDOF 4
ENDMDL
MODEL 3
REMARK VINA RESULT:     -10.1      5.018      9.374
REMARK  4 active torsions:
REMARK  status: ('A' for Active; 'I' for Inactive)
REMARK    1  A    between atoms: N_5  and  C_6 
REMARK    2  A    between atoms: C_6  and  C_7 
REMARK    3  A    between atoms: C_7  and  C_8 
REMARK    4  A    between atoms: C_8  and  N_9 
ROOT
HETATM    1  C   UNL     1      28.514  40.692  52.514  1.00  0.00     0.236 C 
ENDROOT
BRANCH   1   2
HETATM    2  C   UNL     1      28.614  42.209  52.369  1.00  0.00     0.048 C 
BRANCH   2   3
HETATM    3  C   UNL     1      27.465  42.869  53.153  1.00  0.00     0.131 C 
BRANCH   3   4
HETATM    4  N   UNL     1      27.599  44.337  53.176  1.00  0.00    -0.346 N 
HETATM    5  C   UNL     1      27.049  45.068  52.090  1.00  0.00     0.041 A 
HETATM    6  C   UNL     1      26.461  46.346  52.208  1.00  0.00    -0.031 A 
HETATM    7  C   UNL     1      27.155  44.542  50.780  1.00  0.00     0.030 A 
HETATM    8  C   UNL     1      25.980  47.008  51.050  1.00  0.00     0.009 A 
HETATM    9  C   UNL     1      26.316  47.143  53.487  1.00  0.00     0.045 C 
HETATM   10  C   UNL     1      26.062  46.436  49.786  1.00  0.00     0.001 A 
HETATM   11  C   UNL     1      26.660  45.199  49.648  1.00  0.00     0.002 A 
HETATM   12  C   UNL     1      26.235  46.346  54.779  1.00  0.00     0.045 C 
HETATM   13  C   UNL     1      27.587  45.807  55.155  1.00  0.00    -0.031 A 
HETATM   14  C   UNL     1      28.215  44.851  54.341  1.00  0.00     0.042 A 
HETATM   15  C   UNL     1      28.222  46.278  56.320  1.00  0.00     0.011 A 
HETATM   16  C   UNL     1      29.489  44.394  54.726  1.00  0.00     0.054 A 
HETATM   17  C   UNL     1      30.098  44.845  55.897  1.00  0.00     0.036 A 
HETATM   18 CL   UNL     1      31.610  44.181  56.376  1.00  0.00    -0.084 Cl
HETATM   19  C   UNL     1      29.472  45.792  56.694  1.00  0.00     0.024 A 
ENDBRANCH   3   4
ENDBRANCH   2   3
ENDBRANCH   1   2
BRANCH   1  20
HETATM   20  N   UNL     1      28.069  39.953  51.233  1.00  0.00    -0.071 N 
HETATM   21  H   UNL     1      27.324  39.337  51.596  1.00  0.00     0.279 HD
HETATM   22  C   UNL     1      29.090  39.054  50.581  1.00  0.00     0.238 C 
HETATM   23  C   UNL     1      29.072  39.065  49.055  1.00  0.00     0.077 C 
HETATM   24  C   UNL     1      27.734  39.361  48.364  1.00  0.00     0.212 C 
HETATM   25  N   UNL     1      27.059  38.124  47.767  1.00  0.00    -0.032 N 
HETATM   26  C   UNL     1      28.046  40.153  47.078  1.00  0.00     0.256 C 
HETATM   27  C   UNL     1      26.721  40.141  49.201  1.00  0.00     0.077 C 
HETATM   28  H   UNL     1      26.101  38.426  47.531  1.00  0.00     0.283 HD
HETATM   29  C   UNL     1      27.669  37.953  46.408  1.00  0.00     0.290 C 
HETATM   30  C   UNL     1      26.927  36.840  48.513  1.00  0.00     0.239 C 
HETATM   31  C   UNL     1      26.743  37.095  45.563  1.00  0.00     0.055 C 
HETATM   32  N   UNL     1      27.819  39.304  46.009  1.00  0.00    -0.331 N 
HETATM   33  C   UNL     1      26.476  35.754  46.260  1.00  0.00     0.005 C 
HETATM   34  C   UNL     1      26.005  35.927  47.708  1.00  0.00     0.028 C 
HETATM   35  H   UNL     1      28.136  39.587  45.082  1.00  0.00     0.164 HD
HETATM   36  O   UNL     1      28.423  41.307  47.028  1.00  0.00    -0.271 OA
HETATM   37  C   UNL     1      27.418  40.939  50.286  1.00  0.00     0.238 C 
ENDBRANCH   1  20
TORSDOF 4
ENDMDL
MODEL 4
REMARK VINA RESULT:     -10.0      3.267      9.104
REMARK  4 active torsions:
REMARK  status: ('A' for Active; 'I' for Inactive)
REMARK    1  A    between atoms: N_5  and  C_6 
REMARK    2  A    between atoms: C_6  and  C_7 
REMARK    3  A    between atoms: C_7  and  C_8 
REMARK    4  A    between atoms: C_8  and  N_9 
ROOT
HETATM    1  C   UNL     1      22.914  44.603  47.830  1.00  0.00     0.236 C 
ENDROOT
BRANCH   1   2
HETATM    2  C   UNL     1      22.799  46.114  47.638  1.00  0.00     0.048 C 
BRANCH   2   3
HETATM    3  C   UNL     1      22.284  46.751  48.942  1.00  0.00     0.131 C 
BRANCH   3   4
HETATM    4  N   UNL     1      22.793  48.124  49.111  1.00  0.00    -0.346 N 
HETATM    5  C   UNL     1      24.192  48.294  49.282  1.00  0.00     0.041 A 
HETATM    6  C   UNL     1      24.927  49.392  48.787  1.00  0.00    -0.031 A 
HETATM    7  C   UNL     1      24.910  47.358  50.065  1.00  0.00     0.030 A 
HETATM    8  C   UNL     1      26.317  49.485  49.052  1.00  0.00     0.009 A 
HETATM    9  C   UNL     1      24.364  50.557  48.001  1.00  0.00     0.045 C 
HETATM   10  C   UNL     1      26.994  48.520  49.787  1.00  0.00     0.001 A 
HETATM   11  C   UNL     1      26.285  47.453  50.304  1.00  0.00     0.002 A 
HETATM   12  C   UNL     1      23.110  50.284  47.187  1.00  0.00     0.045 C 
HETATM   13  C   UNL     1      21.907  50.182  48.083  1.00  0.00    -0.031 A 
HETATM   14  C   UNL     1      21.806  49.132  49.009  1.00  0.00     0.042 A 
HETATM   15  C   UNL     1      20.893  51.155  47.995  1.00  0.00     0.011 A 
HETATM   16  C   UNL     1      20.670  49.094  49.839  1.00  0.00     0.054 A 
HETATM   17  C   UNL     1      19.657  50.045  49.726  1.00  0.00     0.036 A 
HETATM   18 CL   UNL     1      18.243  49.897  50.693  1.00  0.00    -0.084 Cl
HETATM   19  C   UNL     1      19.765  51.082  48.810  1.00  0.00     0.024 A 
ENDBRANCH   3   4
ENDBRANCH   2   3
ENDBRANCH   1   2
BRANCH   1  20
HETATM   20  N   UNL     1      23.783  44.172  49.031  1.00  0.00    -0.071 N 
HETATM   21  H   UNL     1      23.465  44.827  49.763  1.00  0.00     0.279 HD
HETATM   22  C   UNL     1      25.273  44.371  48.895  1.00  0.00     0.238 C 
HETATM   23  C   UNL     1      26.125  43.264  49.508  1.00  0.00     0.077 C 
HETATM   24  C   UNL     1      25.543  42.503  50.706  1.00  0.00     0.212 C 
HETATM   25  N   UNL     1      26.159  42.899  52.050  1.00  0.00    -0.032 N 
HETATM   26  C   UNL     1      26.028  41.042  50.601  1.00  0.00     0.256 C 
HETATM   27  C   UNL     1      24.020  42.520  50.818  1.00  0.00     0.077 C 
HETATM   28  H   UNL     1      25.545  42.477  52.763  1.00  0.00     0.283 HD
HETATM   29  C   UNL     1      27.399  42.066  52.183  1.00  0.00     0.290 C 
HETATM   30  C   UNL     1      26.364  44.320  52.453  1.00  0.00     0.239 C 
HETATM   31  C   UNL     1      27.793  42.011  53.649  1.00  0.00     0.055 C 
HETATM   32  N   UNL     1      26.970  40.850  51.597  1.00  0.00    -0.331 N 
HETATM   33  C   UNL     1      27.976  43.429  54.205  1.00  0.00     0.005 C 
HETATM   34  C   UNL     1      26.769  44.331  53.926  1.00  0.00     0.028 C 
HETATM   35  H   UNL     1      27.534  40.001  51.581  1.00  0.00     0.164 HD
HETATM   36  O   UNL     1      25.647  40.224  49.788  1.00  0.00    -0.271 OA
HETATM   37  C   UNL     1      23.383  42.778  49.467  1.00  0.00     0.238 C 
ENDBRANCH   1  20
TORSDOF 4
ENDMDL
MODEL 5
REMARK VINA RESULT:      -9.9     11.487     13.417
REMARK  4 active torsions:
REMARK  status: ('A' for Active; 'I' for Inactive)
REMARK    1  A    between atoms: N_5  and  C_6 
REMARK    2  A    between atoms: C_6  and  C_7 
REMARK    3  A    between atoms: C_7  and  C_8 
REMARK    4  A    between atoms: C_8  and  N_9 
ROOT
HETATM    1  C   UNL     1      31.469  47.263  40.402  1.00  0.00     0.236 C 
ENDROOT
BRANCH   1   2
HETATM    2  C   UNL     1      32.033  48.449  41.184  1.00  0.00     0.048 C 
BRANCH   2   3
HETATM    3  C   UNL     1      32.489  49.536  40.194  1.00  0.00     0.131 C 
BRANCH   3   4
HETATM    4  N   UNL     1      32.221  50.889  40.715  1.00  0.00    -0.346 N 
HETATM    5  C   UNL     1      31.151  51.620  40.138  1.00  0.00     0.041 A 
HETATM    6  C   UNL     1      30.319  52.511  40.851  1.00  0.00    -0.031 A 
HETATM    7  C   UNL     1      30.929  51.533  38.742  1.00  0.00     0.030 A 
HETATM    8  C   UNL     1      29.304  53.225  40.165  1.00  0.00     0.009 A 
HETATM    9  C   UNL     1      30.422  52.834  42.326  1.00  0.00     0.045 C 
HETATM   10  C   UNL     1      29.089  53.075  38.801  1.00  0.00     0.001 A 
HETATM   11  C   UNL     1      29.912  52.230  38.082  1.00  0.00     0.002 A 
HETATM   12  C   UNL     1      31.016  51.756  43.218  1.00  0.00     0.045 C 
HETATM   13  C   UNL     1      32.506  51.678  43.033  1.00  0.00    -0.031 A 
HETATM   14  C   UNL     1      33.042  51.271  41.802  1.00  0.00     0.042 A 
HETATM   15  C   UNL     1      33.356  52.029  44.099  1.00  0.00     0.011 A 
HETATM   16  C   UNL     1      34.443  51.234  41.674  1.00  0.00     0.054 A 
HETATM   17  C   UNL     1      35.278  51.556  42.744  1.00  0.00     0.036 A 
HETATM   18 CL   UNL     1      36.981  51.399  42.569  1.00  0.00    -0.084 Cl
HETATM   19  C   UNL     1      34.740  51.960  43.958  1.00  0.00     0.024 A 
ENDBRANCH   3   4
ENDBRANCH   2   3
ENDBRANCH   1   2
BRANCH   1  20
HETATM   20  N   UNL     1      29.975  47.390  40.033  1.00  0.00    -0.071 N 
HETATM   21  H   UNL     1      29.687  46.399  39.990  1.00  0.00     0.279 HD
HETATM   22  C   UNL     1      29.659  47.989  38.685  1.00  0.00     0.238 C 
HETATM   23  C   UNL     1      28.435  48.899  38.660  1.00  0.00     0.077 C 
HETATM   24  C   UNL     1      27.316  48.611  39.670  1.00  0.00     0.212 C 
HETATM   25  N   UNL     1      26.086  47.938  39.057  1.00  0.00    -0.032 N 
HETATM   26  C   UNL     1      26.711  49.968  40.085  1.00  0.00     0.256 C 
HETATM   27  C   UNL     1      27.744  47.848  40.923  1.00  0.00     0.077 C 
HETATM   28  H   UNL     1      25.522  47.622  39.861  1.00  0.00     0.283 HD
HETATM   29  C   UNL     1      25.246  49.058  38.518  1.00  0.00     0.290 C 
HETATM   30  C   UNL     1      26.183  46.780  38.124  1.00  0.00     0.239 C 
HETATM   31  C   UNL     1      23.821  48.559  38.351  1.00  0.00     0.055 C 
HETATM   32  N   UNL     1      25.457  50.051  39.504  1.00  0.00    -0.331 N 
HETATM   33  C   UNL     1      23.792  47.317  37.451  1.00  0.00     0.005 C 
HETATM   34  C   UNL     1      24.773  46.233  37.912  1.00  0.00     0.028 C 
HETATM   35  H   UNL     1      24.971  50.947  39.517  1.00  0.00     0.164 HD
HETATM   36  O   UNL     1      27.248  50.800  40.788  1.00  0.00    -0.271 OA
HETATM   37  C   UNL     1      29.226  48.028  41.185  1.00  0.00     0.238 C 
ENDBRANCH   1  20
TORSDOF 4
ENDMDL
MODEL 6
REMARK VINA RESULT:      -9.8      3.176      9.756
REMARK  4 active torsions:
REMARK  status: ('A' for Active; 'I' for Inactive)
REMARK    1  A    between atoms: N_5  and  C_6 
REMARK    2  A    between atoms: C_6  and  C_7 
REMARK    3  A    between atoms: C_7  and  C_8 
REMARK    4  A    between atoms: C_8  and  N_9 
ROOT
HETATM    1  C   UNL     1      23.440  44.655  48.389  1.00  0.00     0.236 C 
ENDROOT
BRANCH   1   2
HETATM    2  C   UNL     1      22.380  45.734  48.600  1.00  0.00     0.048 C 
BRANCH   2   3
HETATM    3  C   UNL     1      22.078  46.417  47.254  1.00  0.00     0.131 C 
BRANCH   3   4
HETATM    4  N   UNL     1      20.854  47.235  47.325  1.00  0.00    -0.346 N 
HETATM    5  C   UNL     1      19.686  46.735  46.692  1.00  0.00     0.041 A 
HETATM    6  C   UNL     1      18.374  46.928  47.175  1.00  0.00    -0.031 A 
HETATM    7  C   UNL     1      19.807  46.064  45.451  1.00  0.00     0.030 A 
HETATM    8  C   UNL     1      17.272  46.421  46.440  1.00  0.00     0.009 A 
HETATM    9  C   UNL     1      17.991  47.687  48.428  1.00  0.00     0.045 C 
HETATM   10  C   UNL     1      17.438  45.727  45.249  1.00  0.00     0.001 A 
HETATM   11  C   UNL     1      18.712  45.553  44.746  1.00  0.00     0.002 A 
HETATM   12  C   UNL     1      19.030  47.737  49.536  1.00  0.00     0.045 C 
HETATM   13  C   UNL     1      20.137  48.690  49.182  1.00  0.00    -0.031 A 
HETATM   14  C   UNL     1      20.982  48.415  48.095  1.00  0.00     0.042 A 
HETATM   15  C   UNL     1      20.310  49.864  49.940  1.00  0.00     0.011 A 
HETATM   16  C   UNL     1      21.990  49.349  47.793  1.00  0.00     0.054 A 
HETATM   17  C   UNL     1      22.172  50.496  48.566  1.00  0.00     0.036 A 
HETATM   18 CL   UNL     1      23.481  51.555  48.217  1.00  0.00    -0.084 Cl
HETATM   19  C   UNL     1      21.331  50.762  49.637  1.00  0.00     0.024 A 
ENDBRANCH   3   4
ENDBRANCH   2   3
ENDBRANCH   1   2
BRANCH   1  20
HETATM   20  N   UNL     1      24.547  44.622  49.465  1.00  0.00    -0.071 N 
HETATM   21  H   UNL     1      25.275  44.058  48.999  1.00  0.00     0.279 HD
HETATM   22  C   UNL     1      24.215  43.915  50.756  1.00  0.00     0.238 C 
HETATM   23  C   UNL     1      24.779  44.575  52.011  1.00  0.00     0.077 C 
HETATM   24  C   UNL     1      26.082  45.373  51.868  1.00  0.00     0.212 C 
HETATM   25  N   UNL     1      27.314  44.650  52.418  1.00  0.00    -0.032 N 
HETATM   26  C   UNL     1      26.000  46.564  52.845  1.00  0.00     0.256 C 
HETATM   27  C   UNL     1      26.381  45.894  50.463  1.00  0.00     0.077 C 
HETATM   28  H   UNL     1      28.121  45.193  52.074  1.00  0.00     0.283 HD
HETATM   29  C   UNL     1      27.338  44.964  53.885  1.00  0.00     0.290 C 
HETATM   30  C   UNL     1      27.607  43.219  52.122  1.00  0.00     0.239 C 
HETATM   31  C   UNL     1      28.745  44.729  54.409  1.00  0.00     0.055 C 
HETATM   32  N   UNL     1      26.881  46.304  53.881  1.00  0.00    -0.331 N 
HETATM   33  C   UNL     1      29.192  43.292  54.108  1.00  0.00     0.005 C 
HETATM   34  C   UNL     1      29.015  42.918  52.632  1.00  0.00     0.028 C 
HETATM   35  H   UNL     1      26.843  46.891  54.714  1.00  0.00     0.164 HD
HETATM   36  O   UNL     1      25.290  47.540  52.717  1.00  0.00    -0.271 OA
HETATM   37  C   UNL     1      25.108  46.017  49.650  1.00  0.00     0.238 C 
ENDBRANCH   1  20
TORSDOF 4
ENDMDL
MODEL 7
REMARK VINA RESULT:      -9.7      4.659      8.034
REMARK  4 active torsions:
REMARK  status: ('A' for Active; 'I' for Inactive)
REMARK    1  A    between atoms: N_5  and  C_6 
REMARK    2  A    between atoms: C_6  and  C_7 
REMARK    3  A    between atoms: C_7  and  C_8 
REMARK    4  A    between atoms: C_8  and  N_9 
ROOT
HETATM    1  C   UNL     1      21.150  45.270  46.446  1.00  0.00     0.236 C 
ENDROOT
BRANCH   1   2
HETATM    2  C   UNL     1      22.098  46.340  46.986  1.00  0.00     0.048 C 
BRANCH   2   3
HETATM    3  C   UNL     1      21.753  46.625  48.459  1.00  0.00     0.131 C 
BRANCH   3   4
HETATM    4  N   UNL     1      22.476  47.807  48.964  1.00  0.00    -0.346 N 
HETATM    5  C   UNL     1      23.835  47.641  49.337  1.00  0.00     0.041 A 
HETATM    6  C   UNL     1      24.832  48.627  49.169  1.00  0.00    -0.031 A 
HETATM    7  C   UNL     1      24.231  46.452  49.996  1.00  0.00     0.030 A 
HETATM    8  C   UNL     1      26.154  48.373  49.617  1.00  0.00     0.009 A 
HETATM    9  C   UNL     1      24.629  50.003  48.574  1.00  0.00     0.045 C 
HETATM   10  C   UNL     1      26.511  47.173  50.218  1.00  0.00     0.001 A 
HETATM   11  C   UNL     1      25.542  46.209  50.417  1.00  0.00     0.002 A 
HETATM   12  C   UNL     1      23.494  50.151  47.573  1.00  0.00     0.045 C 
HETATM   13  C   UNL     1      22.165  50.153  48.275  1.00  0.00    -0.031 A 
HETATM   14  C   UNL     1      21.723  49.004  48.949  1.00  0.00     0.042 A 
HETATM   15  C   UNL     1      21.377  51.320  48.263  1.00  0.00     0.011 A 
HETATM   16  C   UNL     1      20.481  49.065  49.608  1.00  0.00     0.054 A 
HETATM   17  C   UNL     1      19.693  50.216  49.567  1.00  0.00     0.036 A 
HETATM   18 CL   UNL     1      18.139  50.207  50.303  1.00  0.00    -0.084 Cl
HETATM   19  C   UNL     1      20.139  51.348  48.901  1.00  0.00     0.024 A 
ENDBRANCH   3   4
ENDBRANCH   2   3
ENDBRANCH   1   2
BRANCH   1  20
HETATM   20  N   UNL     1      19.702  45.753  46.217  1.00  0.00    -0.071 N 
HETATM   21  H   UNL     1      19.441  45.232  45.365  1.00  0.00     0.279 HD
HETATM   22  C   UNL     1      19.518  47.216  45.900  1.00  0.00     0.238 C 
HETATM   23  C   UNL     1      18.284  47.858  46.527  1.00  0.00     0.077 C 
HETATM   24  C   UNL     1      17.071  46.956  46.788  1.00  0.00     0.212 C 
HETATM   25  N   UNL     1      15.928  47.151  45.789  1.00  0.00    -0.032 N 
HETATM   26  C   UNL     1      16.396  47.457  48.082  1.00  0.00     0.256 C 
HETATM   27  C   UNL     1      17.379  45.466  46.927  1.00  0.00     0.077 C 
HETATM   28  H   UNL     1      15.289  46.357  45.953  1.00  0.00     0.283 HD
HETATM   29  C   UNL     1      15.126  48.302  46.320  1.00  0.00     0.290 C 
HETATM   30  C   UNL     1      16.148  47.223  44.317  1.00  0.00     0.239 C 
HETATM   31  C   UNL     1      13.737  48.251  45.706  1.00  0.00     0.055 C 
HETATM   32  N   UNL     1      15.210  48.067  47.714  1.00  0.00    -0.331 N 
HETATM   33  C   UNL     1      13.831  48.257  44.175  1.00  0.00     0.005 C 
HETATM   34  C   UNL     1      14.781  47.180  43.639  1.00  0.00     0.028 C 
HETATM   35  H   UNL     1      14.705  48.616  48.411  1.00  0.00     0.164 HD
HETATM   36  O   UNL     1      16.837  47.333  49.207  1.00  0.00    -0.271 OA
HETATM   37  C   UNL     1      18.821  45.249  47.342  1.00  0.00     0.238 C 
ENDBRANCH   1  20
TORSDOF 4
ENDMDL
MODEL 8
REMARK VINA RESULT:      -9.6      2.844      5.127
REMARK  4 active torsions:
REMARK  status: ('A' for Active; 'I' for Inactive)
REMARK    1  A    between atoms: N_5  and  C_6 
REMARK    2  A    between atoms: C_6  and  C_7 
REMARK    3  A    between atoms: C_7  and  C_8 
REMARK    4  A    between atoms: C_8  and  N_9 
ROOT
HETATM    1  C   UNL     1      23.915  48.861  48.696  1.00  0.00     0.236 C 
ENDROOT
BRANCH   1   2
HETATM    2  C   UNL     1      24.059  48.006  49.954  1.00  0.00     0.048 C 
BRANCH   2   3
HETATM    3  C   UNL     1      25.303  47.109  49.816  1.00  0.00     0.131 C 
BRANCH   3   4
HETATM    4  N   UNL     1      25.168  45.872  50.608  1.00  0.00    -0.346 N 
HETATM    5  C   UNL     1      24.439  44.797  50.036  1.00  0.00     0.041 A 
HETATM    6  C   UNL     1      24.747  43.433  50.232  1.00  0.00    -0.031 A 
HETATM    7  C   UNL     1      23.274  45.077  49.281  1.00  0.00     0.030 A 
HETATM    8  C   UNL     1      23.925  42.436  49.648  1.00  0.00     0.009 A 
HETATM    9  C   UNL     1      25.886  42.891  51.069  1.00  0.00     0.045 C 
HETATM   10  C   UNL     1      22.817  42.755  48.874  1.00  0.00     0.001 A 
HETATM   11  C   UNL     1      22.483  44.083  48.695  1.00  0.00     0.002 A 
HETATM   12  C   UNL     1      27.103  43.788  51.223  1.00  0.00     0.045 C 
HETATM   13  C   UNL     1      26.814  44.916  52.174  1.00  0.00    -0.031 A 
HETATM   14  C   UNL     1      25.859  45.889  51.843  1.00  0.00     0.042 A 
HETATM   15  C   UNL     1      27.498  44.978  53.403  1.00  0.00     0.011 A 
HETATM   16  C   UNL     1      25.610  46.912  52.776  1.00  0.00     0.054 A 
HETATM   17  C   UNL     1      26.312  46.983  53.979  1.00  0.00     0.036 A 
HETATM   18 CL   UNL     1      26.044  48.308  55.041  1.00  0.00    -0.084 Cl
HETATM   19  C   UNL     1      27.253  46.015  54.301  1.00  0.00     0.024 A 
ENDBRANCH   3   4
ENDBRANCH   2   3
ENDBRANCH   1   2
BRANCH   1  20
HETATM   20  N   UNL     1      22.461  49.242  48.342  1.00  0.00    -0.071 N 
HETATM   21  H   UNL     1      22.395  48.923  47.363  1.00  0.00     0.279 HD
HETATM   22  C   UNL     1      22.129  50.713  48.340  1.00  0.00     0.238 C 
HETATM   23  C   UNL     1      20.744  51.058  48.879  1.00  0.00     0.077 C 
HETATM   24  C   UNL     1      19.639  50.005  48.720  1.00  0.00     0.212 C 
HETATM   25  N   UNL     1      18.631  50.328  47.614  1.00  0.00    -0.032 N 
HETATM   26  C   UNL     1      18.728  50.105  49.961  1.00  0.00     0.256 C 
HETATM   27  C   UNL     1      20.122  48.564  48.566  1.00  0.00     0.077 C 
HETATM   28  H   UNL     1      18.089  49.460  47.483  1.00  0.00     0.283 HD
HETATM   29  C   UNL     1      17.615  51.229  48.250  1.00  0.00     0.290 C 
HETATM   30  C   UNL     1      19.045  50.780  46.256  1.00  0.00     0.239 C 
HETATM   31  C   UNL     1      16.347  51.196  47.416  1.00  0.00     0.055 C 
HETATM   32  N   UNL     1      17.534  50.669  49.548  1.00  0.00    -0.331 N 
HETATM   33  C   UNL     1      16.653  51.588  45.964  1.00  0.00     0.005 C 
HETATM   34  C   UNL     1      17.804  50.773  45.365  1.00  0.00     0.028 C 
HETATM   35  H   UNL     1      16.867  50.977  50.256  1.00  0.00     0.164 HD
HETATM   36  O   UNL     1      19.019  49.752  51.086  1.00  0.00    -0.271 OA
HETATM   37  C   UNL     1      21.508  48.394  49.158  1.00  0.00     0.238 C 
ENDBRANCH   1  20
TORSDOF 4
ENDMDL
MODEL 9
REMARK VINA RESULT:      -9.5      3.325     10.135
REMARK  4 active torsions:
REMARK  status: ('A' for Active; 'I' for Inactive)
REMARK    1  A    between atoms: N_5  and  C_6 
REMARK    2  A    between atoms: C_6  and  C_7 
REMARK    3  A    between atoms: C_7  and  C_8 
REMARK    4  A    between atoms: C_8  and  N_9 
ROOT
HETATM    1  C   UNL     1      23.765  46.311  49.245  1.00  0.00     0.236 C 
ENDROOT
BRANCH   1   2
HETATM    2  C   UNL     1      22.465  45.694  48.732  1.00  0.00     0.048 C 
BRANCH   2   3
HETATM    3  C   UNL     1      22.147  46.270  47.339  1.00  0.00     0.131 C 
BRANCH   3   4
HETATM    4  N   UNL     1      20.909  47.070  47.355  1.00  0.00    -0.346 N 
HETATM    5  C   UNL     1      19.761  46.525  46.724  1.00  0.00     0.041 A 
HETATM    6  C   UNL     1      18.438  46.718  47.176  1.00  0.00    -0.031 A 
HETATM    7  C   UNL     1      19.915  45.805  45.514  1.00  0.00     0.030 A 
HETATM    8  C   UNL     1      17.357  46.163  46.444  1.00  0.00     0.009 A 
HETATM    9  C   UNL     1      18.021  47.522  48.388  1.00  0.00     0.045 C 
HETATM   10  C   UNL     1      17.555  45.422  45.285  1.00  0.00     0.001 A 
HETATM   11  C   UNL     1      18.841  45.248  44.812  1.00  0.00     0.002 A 
HETATM   12  C   UNL     1      19.039  47.635  49.511  1.00  0.00     0.045 C 
HETATM   13  C   UNL     1      20.138  48.590  49.137  1.00  0.00    -0.031 A 
HETATM   14  C   UNL     1      21.005  48.283  48.077  1.00  0.00     0.042 A 
HETATM   15  C   UNL     1      20.279  49.797  49.847  1.00  0.00     0.011 A 
HETATM   16  C   UNL     1      22.005  49.220  47.753  1.00  0.00     0.054 A 
HETATM   17  C   UNL     1      22.155  50.401  48.480  1.00  0.00     0.036 A 
HETATM   18 CL   UNL     1      23.454  51.465  48.109  1.00  0.00    -0.084 Cl
HETATM   19  C   UNL     1      21.291  50.698  49.524  1.00  0.00     0.024 A 
ENDBRANCH   3   4
ENDBRANCH   2   3
ENDBRANCH   1   2
BRANCH   1  20
HETATM   20  N   UNL     1      24.608  45.377  50.140  1.00  0.00    -0.071 N 
HETATM   21  H   UNL     1      24.639  45.909  51.025  1.00  0.00     0.279 HD
HETATM   22  C   UNL     1      26.041  45.151  49.723  1.00  0.00     0.238 C 
HETATM   23  C   UNL     1      26.555  43.731  49.941  1.00  0.00     0.077 C 
HETATM   24  C   UNL     1      25.936  42.921  51.088  1.00  0.00     0.212 C 
HETATM   25  N   UNL     1      26.841  42.796  52.316  1.00  0.00    -0.032 N 
HETATM   26  C   UNL     1      25.883  41.448  50.633  1.00  0.00     0.256 C 
HETATM   27  C   UNL     1      24.541  43.362  51.525  1.00  0.00     0.077 C 
HETATM   28  H   UNL     1      26.234  42.421  53.061  1.00  0.00     0.283 HD
HETATM   29  C   UNL     1      27.736  41.626  52.035  1.00  0.00     0.290 C 
HETATM   30  C   UNL     1      27.567  43.958  52.903  1.00  0.00     0.239 C 
HETATM   31  C   UNL     1      28.302  41.119  53.350  1.00  0.00     0.055 C 
HETATM   32  N   UNL     1      26.843  40.762  51.356  1.00  0.00    -0.331 N 
HETATM   33  C   UNL     1      29.029  42.251  54.089  1.00  0.00     0.005 C 
HETATM   34  C   UNL     1      28.165  43.509  54.234  1.00  0.00     0.028 C 
HETATM   35  H   UNL     1      27.082  39.811  51.074  1.00  0.00     0.164 HD
HETATM   36  O   UNL     1      25.134  40.990  49.793  1.00  0.00    -0.271 OA
HETATM   37  C   UNL     1      23.834  44.103  50.407  1.00  0.00     0.238 C 
ENDBRANCH   1  20
TORSDOF 4
ENDMDL
MODEL 10
REMARK VINA RESULT:      -9.4     12.584     15.283
REMARK  4 active torsions:
REMARK  status: ('A' for Active; 'I' for Inactive)
REMARK    1  A    between atoms: N_5  and  C_6 
REMARK    2  A    between atoms: C_6  and  C_7 
REMARK    3  A    between atoms: C_7  and  C_8 
REMARK    4  A    between atoms: C_8  and  N_9 
ROOT
HETATM    1  C   UNL     1      31.971  50.057  43.113  1.00  0.00     0.236 C 
ENDROOT
BRANCH   1   2
HETATM    2  C   UNL     1      31.299  48.748  42.704  1.00  0.00     0.048 C 
BRANCH   2   3
HETATM    3  C   UNL     1      29.787  48.986  42.536  1.00  0.00     0.131 C 
BRANCH   3   4
HETATM    4  N   UNL     1      29.435  49.249  41.129  1.00  0.00    -0.346 N 
HETATM    5  C   UNL     1      29.303  50.603  40.723  1.00  0.00     0.041 A 
HETATM    6  C   UNL     1      29.658  51.089  39.446  1.00  0.00    -0.031 A 
HETATM    7  C   UNL     1      28.704  51.533  41.606  1.00  0.00     0.030 A 
HETATM    8  C   UNL     1      29.444  52.454  39.129  1.00  0.00     0.009 A 
HETATM    9  C   UNL     1      30.231  50.268  38.311  1.00  0.00     0.045 C 
HETATM   10  C   UNL     1      28.896  53.346  40.042  1.00  0.00     0.001 A 
HETATM   11  C   UNL     1      28.515  52.882  41.286  1.00  0.00     0.002 A 
HETATM   12  C   UNL     1      31.021  49.028  38.699  1.00  0.00     0.045 C 
HETATM   13  C   UNL     1      30.097  47.932  39.153  1.00  0.00    -0.031 A 
HETATM   14  C   UNL     1      29.338  48.091  40.323  1.00  0.00     0.042 A 
HETATM   15  C   UNL     1      29.990  46.755  38.389  1.00  0.00     0.011 A 
HETATM   16  C   UNL     1      28.473  47.044  40.693  1.00  0.00     0.054 A 
HETATM   17  C   UNL     1      28.394  45.869  39.945  1.00  0.00     0.036 A 
HETATM   18 CL   UNL     1      27.399  44.580  40.494  1.00  0.00    -0.084 Cl
HETATM   19  C   UNL     1      29.146  45.722  38.789  1.00  0.00     0.024 A 
ENDBRANCH   3   4
ENDBRANCH   2   3
ENDBRANCH   1   2
BRANCH   1  20
HETATM   20  N   UNL     1      33.458  50.168  42.713  1.00  0.00    -0.071 N 
HETATM   21  H   UNL     1      33.893  49.463  43.328  1.00  0.00     0.279 HD
HETATM   22  C   UNL     1      34.143  51.479  43.010  1.00  0.00     0.238 C 
HETATM   23  C   UNL     1      35.137  51.938  41.946  1.00  0.00     0.077 C 
HETATM   24  C   UNL     1      35.844  50.854  41.121  1.00  0.00     0.212 C 
HETATM   25  N   UNL     1      37.301  50.620  41.526  1.00  0.00    -0.032 N 
HETATM   26  C   UNL     1      36.038  51.415  39.698  1.00  0.00     0.256 C 
HETATM   27  C   UNL     1      35.115  49.514  41.038  1.00  0.00     0.077 C 
HETATM   28  H   UNL     1      37.577  49.748  41.048  1.00  0.00     0.283 HD
HETATM   29  C   UNL     1      38.094  51.645  40.771  1.00  0.00     0.290 C 
HETATM   30  C   UNL     1      37.729  50.480  42.947  1.00  0.00     0.239 C 
HETATM   31  C   UNL     1      39.542  51.190  40.708  1.00  0.00     0.055 C 
HETATM   32  N   UNL     1      37.388  51.682  39.544  1.00  0.00    -0.331 N 
HETATM   33  C   UNL     1      40.087  50.949  42.122  1.00  0.00     0.005 C 
HETATM   34  C   UNL     1      39.187  50.025  42.950  1.00  0.00     0.028 C 
HETATM   35  H   UNL     1      37.691  52.221  38.734  1.00  0.00     0.164 HD
HETATM   36  O   UNL     1      35.161  51.588  38.876  1.00  0.00    -0.271 OA
HETATM   37  C   UNL     1      33.630  49.690  41.286  1.00  0.00     0.238 C 
ENDBRANCH   1  20
TORSDOF 4
ENDMDL
