MODEL 1
REMARK VINA RESULT:      -8.8      0.000      0.000
REMARK  4 active torsions:
REMARK  status: ('A' for Active; 'I' for Inactive)
REMARK    1  A    between atoms: O_2  and  C_3 
REMARK    2  A    between atoms: N_9  and  N_10 
REMARK       I    between atoms: N_10  and  C_11 
REMARK    3  A    between atoms: C_11  and  C_12 
REMARK    4  A    between atoms: C_13  and  O_14 
ROOT
HETATM    1  C   UNL     1      25.747  47.766  49.970  1.00  0.00     0.069 A 
HETATM    2  C   UNL     1      25.755  46.495  50.551  1.00  0.00     0.053 A 
HETATM    3  C   UNL     1      24.626  45.704  50.398  1.00  0.00     0.029 A 
HETATM    4  C   UNL     1      24.285  44.349  50.861  1.00  0.00     0.157 A 
HETATM    5  C   UNL     1      22.938  44.008  50.186  1.00  0.00     0.277 A 
HETATM    6  O   UNL     1      22.332  42.962  50.261  1.00  0.00    -0.266 OA
HETATM    7  N   UNL     1      24.858  43.515  51.668  1.00  0.00    -0.166 NA
HETATM    8  C   UNL     1      23.545  46.132  49.624  1.00  0.00     0.048 A 
HETATM    9  N   UNL     1      22.570  45.149  49.512  1.00  0.00    -0.321 N 
HETATM   10  C   UNL     1      23.518  47.377  49.032  1.00  0.00     0.033 A 
HETATM   11  C   UNL     1      24.630  48.200  49.224  1.00  0.00     0.039 A 
HETATM   12  H   UNL     1      21.717  45.210  48.975  1.00  0.00     0.169 HD
ENDROOT
BRANCH   7  13
HETATM   13  N   UNL     1      25.936  43.918  52.393  1.00  0.00    -0.242 N 
HETATM   14  C   UNL     1      25.760  44.398  53.682  1.00  0.00     0.274 C 
HETATM   15  O   UNL     1      24.706  44.363  54.315  1.00  0.00    -0.266 OA
HETATM   16  H   UNL     1      26.820  44.003  51.918  1.00  0.00     0.192 HD
BRANCH  14  17
HETATM   17  C   UNL     1      26.974  44.923  54.372  1.00  0.00     0.068 A 
HETATM   18  C   UNL     1      26.963  46.238  54.868  1.00  0.00     0.081 A 
HETATM   19  C   UNL     1      28.058  46.751  55.561  1.00  0.00     0.039 A 
HETATM   20  C   UNL     1      29.189  45.961  55.760  1.00  0.00     0.022 A 
HETATM   21  C   UNL     1      29.219  44.666  55.247  1.00  0.00     0.012 A 
HETATM   22 BR   UNL     1      30.756  43.594  55.505  1.00  0.00    -0.051 Br
HETATM   23  C   UNL     1      28.127  44.144  54.548  1.00  0.00     0.039 A 
BRANCH  18  24
HETATM   24  O   UNL     1      25.901  47.090  54.715  1.00  0.00    -0.360 OA
HETATM   25  H   UNL     1      26.197  47.853  54.166  1.00  0.00     0.217 HD
ENDBRANCH  18  24
ENDBRANCH  14  17
ENDBRANCH   7  13
BRANCH   1  26
HETATM   26  O   UNL     1      26.764  48.680  50.038  1.00  0.00    -0.356 OA
HETATM   27  C   UNL     1      27.123  49.350  48.835  1.00  0.00     0.210 C 
ENDBRANCH   1  26
TORSDOF 4
ENDMDL
MODEL 2
REMARK VINA RESULT:      -8.8      2.855      6.398
REMARK  4 active torsions:
REMARK  status: ('A' for Active; 'I' for Inactive)
REMARK    1  A    between atoms: O_2  and  C_3 
REMARK    2  A    between atoms: N_9  and  N_10 
REMARK       I    between atoms: N_10  and  C_11 
REMARK    3  A    between atoms: C_11  and  C_12 
REMARK    4  A    between atoms: C_13  and  O_14 
ROOT
HETATM    1  C   UNL     1      28.092  46.701  54.919  1.00  0.00     0.069 A 
HETATM    2  C   UNL     1      27.408  45.842  54.053  1.00  0.00     0.053 A 
HETATM    3  C   UNL     1      27.865  44.538  53.939  1.00  0.00     0.029 A 
HETATM    4  C   UNL     1      27.408  43.385  53.145  1.00  0.00     0.157 A 
HETATM    5  C   UNL     1      28.256  42.188  53.629  1.00  0.00     0.277 A 
HETATM    6  O   UNL     1      28.159  41.036  53.268  1.00  0.00    -0.266 OA
HETATM    7  N   UNL     1      26.532  43.246  52.203  1.00  0.00    -0.166 NA
HETATM    8  C   UNL     1      28.926  44.074  54.719  1.00  0.00     0.048 A 
HETATM    9  N   UNL     1      29.151  42.716  54.530  1.00  0.00    -0.321 N 
HETATM   10  C   UNL     1      29.609  44.898  55.587  1.00  0.00     0.033 A 
HETATM   11  C   UNL     1      29.188  46.228  55.670  1.00  0.00     0.039 A 
HETATM   12  H   UNL     1      29.836  42.150  55.009  1.00  0.00     0.169 HD
ENDROOT
BRANCH   7  13
HETATM   13  N   UNL     1      25.944  44.349  51.667  1.00  0.00    -0.242 N 
HETATM   14  C   UNL     1      26.433  44.888  50.487  1.00  0.00     0.274 C 
HETATM   15  O   UNL     1      27.287  44.368  49.770  1.00  0.00    -0.266 OA
HETATM   16  H   UNL     1      25.264  44.840  52.224  1.00  0.00     0.192 HD
BRANCH  14  17
HETATM   17  C   UNL     1      25.808  46.159  50.021  1.00  0.00     0.068 A 
HETATM   18  C   UNL     1      24.406  46.267  50.009  1.00  0.00     0.081 A 
HETATM   19  C   UNL     1      23.783  47.454  49.627  1.00  0.00     0.039 A 
HETATM   20  C   UNL     1      24.551  48.550  49.238  1.00  0.00     0.022 A 
HETATM   21  C   UNL     1      25.940  48.443  49.219  1.00  0.00     0.012 A 
HETATM   22 BR   UNL     1      26.985  49.924  48.681  1.00  0.00    -0.051 Br
HETATM   23  C   UNL     1      26.574  47.256  49.598  1.00  0.00     0.039 A 
BRANCH  18  24
HETATM   24  O   UNL     1      23.572  45.243  50.368  1.00  0.00    -0.360 OA
HETATM   25  H   UNL     1      22.892  45.603  50.985  1.00  0.00     0.217 HD
ENDBRANCH  18  24
ENDBRANCH  14  17
ENDBRANCH   7  13
BRANCH   1  26
HETATM   26  O   UNL     1      27.790  48.018  55.137  1.00  0.00    -0.356 OA
HETATM   27  C   UNL     1      26.462  48.326  55.545  1.00  0.00     0.210 C 
ENDBRANCH   1  26
TORSDOF 4
ENDMDL
MODEL 3
REMARK VINA RESULT:      -8.5      2.637      4.002
REMARK  4 active torsions:
REMARK  status: ('A' for Active; 'I' for Inactive)
REMARK    1  A    between atoms: O_2  and  C_3 
REMARK    2  A    between atoms: N_9  and  N_10 
REMARK       I    between atoms: N_10  and  C_11 
REMARK    3  A    between atoms: C_11  and  C_12 
REMARK    4  A    between atoms: C_13  and  O_14 
ROOT
HETATM    1  C   UNL     1      27.145  41.069  50.598  1.00  0.00     0.069 A 
HETATM    2  C   UNL     1      26.442  42.154  51.130  1.00  0.00     0.053 A 
HETATM    3  C   UNL     1      25.227  42.488  50.551  1.00  0.00     0.029 A 
HETATM    4  C   UNL     1      24.239  43.540  50.838  1.00  0.00     0.157 A 
HETATM    5  C   UNL     1      23.030  43.232  49.928  1.00  0.00     0.277 A 
HETATM    6  O   UNL     1      21.977  43.828  49.893  1.00  0.00    -0.266 OA
HETATM    7  N   UNL     1      24.242  44.572  51.620  1.00  0.00    -0.166 NA
HETATM    8  C   UNL     1      24.685  41.719  49.518  1.00  0.00     0.048 A 
HETATM    9  N   UNL     1      23.417  42.159  49.159  1.00  0.00    -0.321 N 
HETATM   10  C   UNL     1      25.353  40.639  48.984  1.00  0.00     0.033 A 
HETATM   11  C   UNL     1      26.602  40.327  49.528  1.00  0.00     0.039 A 
HETATM   12  H   UNL     1      22.813  41.742  48.467  1.00  0.00     0.169 HD
ENDROOT
BRANCH   7  13
HETATM   13  N   UNL     1      25.389  44.926  52.259  1.00  0.00    -0.242 N 
HETATM   14  C   UNL     1      25.511  44.714  53.625  1.00  0.00     0.274 C 
HETATM   15  O   UNL     1      24.714  44.084  54.319  1.00  0.00    -0.266 OA
HETATM   16  H   UNL     1      26.062  45.476  51.753  1.00  0.00     0.192 HD
BRANCH  14  17
HETATM   17  C   UNL     1      26.752  45.227  54.273  1.00  0.00     0.068 A 
HETATM   18  C   UNL     1      26.803  46.570  54.684  1.00  0.00     0.081 A 
HETATM   19  C   UNL     1      27.925  47.077  55.337  1.00  0.00     0.039 A 
HETATM   20  C   UNL     1      29.022  46.252  55.580  1.00  0.00     0.022 A 
HETATM   21  C   UNL     1      28.991  44.927  55.151  1.00  0.00     0.012 A 
HETATM   22 BR   UNL     1      30.481  43.807  55.468  1.00  0.00    -0.051 Br
HETATM   23  C   UNL     1      27.872  44.410  54.493  1.00  0.00     0.039 A 
BRANCH  18  24
HETATM   24  O   UNL     1      25.778  47.456  54.483  1.00  0.00    -0.360 OA
HETATM   25  H   UNL     1      24.954  47.060  54.852  1.00  0.00     0.217 HD
ENDBRANCH  18  24
ENDBRANCH  14  17
ENDBRANCH   7  13
BRANCH   1  26
HETATM   26  O   UNL     1      28.361  40.616  51.032  1.00  0.00    -0.356 OA
HETATM   27  C   UNL     1      28.730  40.915  52.374  1.00  0.00     0.210 C 
ENDBRANCH   1  26
TORSDOF 4
ENDMDL
MODEL 4
REMARK VINA RESULT:      -8.3      2.239      2.732
REMARK  4 active torsions:
REMARK  status: ('A' for Active; 'I' for Inactive)
REMARK    1  A    between atoms: O_2  and  C_3 
REMARK    2  A    between atoms: N_9  and  N_10 
REMARK       I    between atoms: N_10  and  C_11 
REMARK    3  A    between atoms: C_11  and  C_12 
REMARK    4  A    between atoms: C_13  and  O_14 
ROOT
HETATM    1  C   UNL     1      25.025  47.127  50.090  1.00  0.00     0.069 A 
HETATM    2  C   UNL     1      25.202  45.786  50.443  1.00  0.00     0.053 A 
HETATM    3  C   UNL     1      24.251  44.871  50.017  1.00  0.00     0.029 A 
HETATM    4  C   UNL     1      24.113  43.417  50.195  1.00  0.00     0.157 A 
HETATM    5  C   UNL     1      22.918  43.003  49.308  1.00  0.00     0.277 A 
HETATM    6  O   UNL     1      22.503  41.880  49.127  1.00  0.00    -0.266 OA
HETATM    7  N   UNL     1      24.746  42.546  50.914  1.00  0.00    -0.166 NA
HETATM    8  C   UNL     1      23.190  45.263  49.197  1.00  0.00     0.048 A 
HETATM    9  N   UNL     1      22.420  44.179  48.797  1.00  0.00    -0.321 N 
HETATM   10  C   UNL     1      23.000  46.577  48.827  1.00  0.00     0.033 A 
HETATM   11  C   UNL     1      23.925  47.513  49.295  1.00  0.00     0.039 A 
HETATM   12  H   UNL     1      21.625  44.206  48.175  1.00  0.00     0.169 HD
ENDROOT
BRANCH   7  13
HETATM   13  N   UNL     1      25.661  42.968  51.826  1.00  0.00    -0.242 N 
HETATM   14  C   UNL     1      27.013  42.766  51.592  1.00  0.00     0.274 C 
HETATM   15  O   UNL     1      27.497  42.357  50.537  1.00  0.00    -0.266 OA
HETATM   16  H   UNL     1      25.326  43.278  52.724  1.00  0.00     0.192 HD
BRANCH  14  17
HETATM   17  C   UNL     1      27.948  43.155  52.687  1.00  0.00     0.068 A 
HETATM   18  C   UNL     1      29.101  42.383  52.908  1.00  0.00     0.081 A 
HETATM   19  C   UNL     1      30.025  42.741  53.889  1.00  0.00     0.039 A 
HETATM   20  C   UNL     1      29.804  43.871  54.675  1.00  0.00     0.022 A 
HETATM   21  C   UNL     1      28.650  44.626  54.481  1.00  0.00     0.012 A 
HETATM   22 BR   UNL     1      28.341  46.154  55.552  1.00  0.00    -0.051 Br
HETATM   23  C   UNL     1      27.717  44.274  53.502  1.00  0.00     0.039 A 
BRANCH  18  24
HETATM   24  O   UNL     1      29.398  41.254  52.192  1.00  0.00    -0.360 OA
HETATM   25  H   UNL     1      30.092  40.755  52.681  1.00  0.00     0.217 HD
ENDBRANCH  18  24
ENDBRANCH  14  17
ENDBRANCH   7  13
BRANCH   1  26
HETATM   26  O   UNL     1      25.853  48.159  50.440  1.00  0.00    -0.356 OA
HETATM   27  C   UNL     1      26.950  48.440  49.579  1.00  0.00     0.210 C 
ENDBRANCH   1  26
TORSDOF 4
ENDMDL
MODEL 5
REMARK VINA RESULT:      -8.1      3.182      6.616
REMARK  4 active torsions:
REMARK  status: ('A' for Active; 'I' for Inactive)
REMARK    1  A    between atoms: O_2  and  C_3 
REMARK    2  A    between atoms: N_9  and  N_10 
REMARK       I    between atoms: N_10  and  C_11 
REMARK    3  A    between atoms: C_11  and  C_12 
REMARK    4  A    between atoms: C_13  and  O_14 
ROOT
HETATM    1  C   UNL     1      26.713  46.901  54.775  1.00  0.00     0.069 A 
HETATM    2  C   UNL     1      26.513  45.996  53.729  1.00  0.00     0.053 A 
HETATM    3  C   UNL     1      27.479  45.023  53.519  1.00  0.00     0.029 A 
HETATM    4  C   UNL     1      27.601  43.932  52.538  1.00  0.00     0.157 A 
HETATM    5  C   UNL     1      28.834  43.114  52.981  1.00  0.00     0.277 A 
HETATM    6  O   UNL     1      29.252  42.097  52.474  1.00  0.00    -0.266 OA
HETATM    7  N   UNL     1      26.932  43.611  51.478  1.00  0.00    -0.166 NA
HETATM    8  C   UNL     1      28.578  44.902  54.372  1.00  0.00     0.048 A 
HETATM    9  N   UNL     1      29.361  43.801  54.051  1.00  0.00    -0.321 N 
HETATM   10  C   UNL     1      28.792  45.776  55.416  1.00  0.00     0.033 A 
HETATM   11  C   UNL     1      27.850  46.791  55.603  1.00  0.00     0.039 A 
HETATM   12  H   UNL     1      30.184  43.487  54.544  1.00  0.00     0.169 HD
ENDROOT
BRANCH   7  13
HETATM   13  N   UNL     1      25.977  44.457  51.007  1.00  0.00    -0.242 N 
HETATM   14  C   UNL     1      26.298  45.381  50.024  1.00  0.00     0.274 C 
HETATM   15  O   UNL     1      27.362  45.421  49.407  1.00  0.00    -0.266 OA
HETATM   16  H   UNL     1      25.097  44.496  51.495  1.00  0.00     0.192 HD
BRANCH  14  17
HETATM   17  C   UNL     1      25.229  46.347  49.637  1.00  0.00     0.068 A 
HETATM   18  C   UNL     1      25.511  47.723  49.655  1.00  0.00     0.081 A 
HETATM   19  C   UNL     1      24.556  48.656  49.255  1.00  0.00     0.039 A 
HETATM   20  C   UNL     1      23.295  48.228  48.842  1.00  0.00     0.022 A 
HETATM   21  C   UNL     1      22.996  46.867  48.849  1.00  0.00     0.012 A 
HETATM   22 BR   UNL     1      21.284  46.283  48.301  1.00  0.00    -0.051 Br
HETATM   23  C   UNL     1      23.947  45.925  49.251  1.00  0.00     0.039 A 
BRANCH  18  24
HETATM   24  O   UNL     1      26.718  48.237  50.050  1.00  0.00    -0.360 OA
HETATM   25  H   UNL     1      27.418  47.856  49.469  1.00  0.00     0.217 HD
ENDBRANCH  18  24
ENDBRANCH  14  17
ENDBRANCH   7  13
BRANCH   1  26
HETATM   26  O   UNL     1      25.875  47.931  55.110  1.00  0.00    -0.356 OA
HETATM   27  C   UNL     1      26.277  48.783  56.175  1.00  0.00     0.210 C 
ENDBRANCH   1  26
TORSDOF 4
ENDMDL
MODEL 6
REMARK VINA RESULT:      -8.0      3.161      7.019
REMARK  4 active torsions:
REMARK  status: ('A' for Active; 'I' for Inactive)
REMARK    1  A    between atoms: O_2  and  C_3 
REMARK    2  A    between atoms: N_9  and  N_10 
REMARK       I    between atoms: N_10  and  C_11 
REMARK    3  A    between atoms: C_11  and  C_12 
REMARK    4  A    between atoms: C_13  and  O_14 
ROOT
HETATM    1  C   UNL     1      28.129  42.888  52.245  1.00  0.00     0.069 A 
HETATM    2  C   UNL     1      27.415  44.085  52.361  1.00  0.00     0.053 A 
HETATM    3  C   UNL     1      27.580  44.830  53.518  1.00  0.00     0.029 A 
HETATM    4  C   UNL     1      27.005  46.106  53.975  1.00  0.00     0.157 A 
HETATM    5  C   UNL     1      27.754  46.453  55.281  1.00  0.00     0.277 A 
HETATM    6  O   UNL     1      27.620  47.452  55.951  1.00  0.00    -0.266 OA
HETATM    7  N   UNL     1      26.066  46.872  53.520  1.00  0.00    -0.166 NA
HETATM    8  C   UNL     1      28.487  44.438  54.506  1.00  0.00     0.048 A 
HETATM    9  N   UNL     1      28.577  45.377  55.524  1.00  0.00    -0.321 N 
HETATM   10  C   UNL     1      29.209  43.268  54.410  1.00  0.00     0.033 A 
HETATM   11  C   UNL     1      29.010  42.486  53.271  1.00  0.00     0.039 A 
HETATM   12  H   UNL     1      29.190  45.335  56.326  1.00  0.00     0.169 HD
ENDROOT
BRANCH   7  13
HETATM   13  N   UNL     1      25.298  46.444  52.482  1.00  0.00    -0.242 N 
HETATM   14  C   UNL     1      25.403  47.063  51.245  1.00  0.00     0.274 C 
HETATM   15  O   UNL     1      26.254  47.896  50.938  1.00  0.00    -0.266 OA
HETATM   16  H   UNL     1      24.558  45.791  52.679  1.00  0.00     0.192 HD
BRANCH  14  17
HETATM   17  C   UNL     1      24.451  46.614  50.189  1.00  0.00     0.068 A 
HETATM   18  C   UNL     1      23.580  47.552  49.609  1.00  0.00     0.081 A 
HETATM   19  C   UNL     1      22.709  47.184  48.585  1.00  0.00     0.039 A 
HETATM   20  C   UNL     1      22.684  45.866  48.132  1.00  0.00     0.022 A 
HETATM   21  C   UNL     1      23.523  44.922  48.721  1.00  0.00     0.012 A 
HETATM   22 BR   UNL     1      23.485  43.131  48.117  1.00  0.00    -0.051 Br
HETATM   23  C   UNL     1      24.398  45.282  49.750  1.00  0.00     0.039 A 
BRANCH  18  24
HETATM   24  O   UNL     1      23.529  48.866  49.993  1.00  0.00    -0.360 OA
HETATM   25  H   UNL     1      24.388  49.094  50.419  1.00  0.00     0.217 HD
ENDBRANCH  18  24
ENDBRANCH  14  17
ENDBRANCH   7  13
BRANCH   1  26
HETATM   26  O   UNL     1      28.071  42.024  51.185  1.00  0.00    -0.356 OA
HETATM   27  C   UNL     1      28.397  40.661  51.433  1.00  0.00     0.210 C 
ENDBRANCH   1  26
TORSDOF 4
ENDMDL
MODEL 7
REMARK VINA RESULT:      -8.0      2.930      6.801
REMARK  4 active torsions:
REMARK  status: ('A' for Active; 'I' for Inactive)
REMARK    1  A    between atoms: O_2  and  C_3 
REMARK    2  A    between atoms: N_9  and  N_10 
REMARK       I    between atoms: N_10  and  C_11 
REMARK    3  A    between atoms: C_11  and  C_12 
REMARK    4  A    between atoms: C_13  and  O_14 
ROOT
HETATM    1  C   UNL     1      29.475  43.812  54.315  1.00  0.00     0.069 A 
HETATM    2  C   UNL     1      28.320  44.391  53.779  1.00  0.00     0.053 A 
HETATM    3  C   UNL     1      27.776  45.483  54.437  1.00  0.00     0.029 A 
HETATM    4  C   UNL     1      26.598  46.325  54.172  1.00  0.00     0.157 A 
HETATM    5  C   UNL     1      26.673  47.478  55.196  1.00  0.00     0.277 A 
HETATM    6  O   UNL     1      25.920  48.422  55.284  1.00  0.00    -0.266 OA
HETATM    7  N   UNL     1      25.617  46.240  53.331  1.00  0.00    -0.166 NA
HETATM    8  C   UNL     1      28.402  46.037  55.556  1.00  0.00     0.048 A 
HETATM    9  N   UNL     1      27.755  47.186  55.993  1.00  0.00    -0.321 N 
HETATM   10  C   UNL     1      29.547  45.491  56.097  1.00  0.00     0.033 A 
HETATM   11  C   UNL     1      30.073  44.359  55.470  1.00  0.00     0.039 A 
HETATM   12  H   UNL     1      28.041  47.779  56.759  1.00  0.00     0.169 HD
ENDROOT
BRANCH   7  13
HETATM   13  N   UNL     1      25.475  45.117  52.577  1.00  0.00    -0.242 N 
HETATM   14  C   UNL     1      25.764  45.156  51.221  1.00  0.00     0.274 C 
HETATM   15  O   UNL     1      26.292  46.099  50.634  1.00  0.00    -0.266 OA
HETATM   16  H   UNL     1      25.014  44.324  52.992  1.00  0.00     0.192 HD
BRANCH  14  17
HETATM   17  C   UNL     1      25.479  43.917  50.441  1.00  0.00     0.068 A 
HETATM   18  C   UNL     1      24.150  43.481  50.312  1.00  0.00     0.081 A 
HETATM   19  C   UNL     1      23.836  42.356  49.550  1.00  0.00     0.039 A 
HETATM   20  C   UNL     1      24.849  41.639  48.916  1.00  0.00     0.022 A 
HETATM   21  C   UNL     1      26.173  42.048  49.062  1.00  0.00     0.012 A 
HETATM   22 BR   UNL     1      27.552  41.073  48.211  1.00  0.00    -0.051 Br
HETATM   23  C   UNL     1      26.497  43.173  49.825  1.00  0.00     0.039 A 
BRANCH  18  24
HETATM   24  O   UNL     1      23.090  44.116  50.904  1.00  0.00    -0.360 OA
HETATM   25  H   UNL     1      22.295  43.976  50.339  1.00  0.00     0.217 HD
ENDBRANCH  18  24
ENDBRANCH  14  17
ENDBRANCH   7  13
BRANCH   1  26
HETATM   26  O   UNL     1      30.130  42.723  53.807  1.00  0.00    -0.356 OA
HETATM   27  C   UNL     1      29.441  41.935  52.844  1.00  0.00     0.210 C 
ENDBRANCH   1  26
TORSDOF 4
ENDMDL
MODEL 8
REMARK VINA RESULT:      -7.9      2.199      2.538
REMARK  4 active torsions:
REMARK  status: ('A' for Active; 'I' for Inactive)
REMARK    1  A    between atoms: O_2  and  C_3 
REMARK    2  A    between atoms: N_9  and  N_10 
REMARK       I    between atoms: N_10  and  C_11 
REMARK    3  A    between atoms: C_11  and  C_12 
REMARK    4  A    between atoms: C_13  and  O_14 
ROOT
HETATM    1  C   UNL     1      25.688  46.397  50.310  1.00  0.00     0.069 A 
HETATM    2  C   UNL     1      26.449  45.267  50.626  1.00  0.00     0.053 A 
HETATM    3  C   UNL     1      25.989  44.033  50.192  1.00  0.00     0.029 A 
HETATM    4  C   UNL     1      26.513  42.665  50.336  1.00  0.00     0.157 A 
HETATM    5  C   UNL     1      25.603  41.779  49.458  1.00  0.00     0.277 A 
HETATM    6  O   UNL     1      25.722  40.591  49.255  1.00  0.00    -0.266 OA
HETATM    7  N   UNL     1      27.484  42.153  51.022  1.00  0.00    -0.166 NA
HETATM    8  C   UNL     1      24.844  43.928  49.400  1.00  0.00     0.048 A 
HETATM    9  N   UNL     1      24.623  42.621  48.985  1.00  0.00    -0.321 N 
HETATM   10  C   UNL     1      24.083  45.027  49.067  1.00  0.00     0.033 A 
HETATM   11  C   UNL     1      24.511  46.269  49.543  1.00  0.00     0.039 A 
HETATM   12  H   UNL     1      23.882  42.303  48.377  1.00  0.00     0.169 HD
ENDROOT
BRANCH   7  13
HETATM   13  N   UNL     1      28.142  42.923  51.930  1.00  0.00    -0.242 N 
HETATM   14  C   UNL     1      28.241  42.502  53.248  1.00  0.00     0.274 C 
HETATM   15  O   UNL     1      27.906  41.395  53.666  1.00  0.00    -0.266 OA
HETATM   16  H   UNL     1      28.407  43.855  51.656  1.00  0.00     0.192 HD
BRANCH  14  17
HETATM   17  C   UNL     1      28.879  43.450  54.207  1.00  0.00     0.068 A 
HETATM   18  C   UNL     1      28.370  44.755  54.319  1.00  0.00     0.081 A 
HETATM   19  C   UNL     1      28.906  45.656  55.237  1.00  0.00     0.039 A 
HETATM   20  C   UNL     1      29.971  45.271  56.051  1.00  0.00     0.022 A 
HETATM   21  C   UNL     1      30.500  43.988  55.926  1.00  0.00     0.012 A 
HETATM   22 BR   UNL     1      31.951  43.465  57.020  1.00  0.00    -0.051 Br
HETATM   23  C   UNL     1      29.971  43.079  55.006  1.00  0.00     0.039 A 
BRANCH  18  24
HETATM   24  O   UNL     1      27.332  45.224  53.558  1.00  0.00    -0.360 OA
HETATM   25  H   UNL     1      27.448  46.197  53.449  1.00  0.00     0.217 HD
ENDBRANCH  18  24
ENDBRANCH  14  17
ENDBRANCH   7  13
BRANCH   1  26
HETATM   26  O   UNL     1      25.983  47.684  50.673  1.00  0.00    -0.356 OA
HETATM   27  C   UNL     1      26.811  48.438  49.796  1.00  0.00     0.210 C 
ENDBRANCH   1  26
TORSDOF 4
ENDMDL
MODEL 9
REMARK VINA RESULT:      -7.7      5.238      8.509
REMARK  4 active torsions:
REMARK  status: ('A' for Active; 'I' for Inactive)
REMARK    1  A    between atoms: O_2  and  C_3 
REMARK    2  A    between atoms: N_9  and  N_10 
REMARK       I    between atoms: N_10  and  C_11 
REMARK    3  A    between atoms: C_11  and  C_12 
REMARK    4  A    between atoms: C_13  and  O_14 
ROOT
HETATM    1  C   UNL     1      21.777  44.756  48.610  1.00  0.00     0.069 A 
HETATM    2  C   UNL     1      22.309  46.038  48.778  1.00  0.00     0.053 A 
HETATM    3  C   UNL     1      23.617  46.145  49.226  1.00  0.00     0.029 A 
HETATM    4  C   UNL     1      24.485  47.299  49.511  1.00  0.00     0.157 A 
HETATM    5  C   UNL     1      25.881  46.706  49.803  1.00  0.00     0.277 A 
HETATM    6  O   UNL     1      26.898  47.321  50.033  1.00  0.00    -0.266 OA
HETATM    7  N   UNL     1      24.274  48.575  49.572  1.00  0.00    -0.166 NA
HETATM    8  C   UNL     1      24.405  45.009  49.430  1.00  0.00     0.048 A 
HETATM    9  N   UNL     1      25.709  45.341  49.770  1.00  0.00    -0.321 N 
HETATM   10  C   UNL     1      23.906  43.736  49.262  1.00  0.00     0.033 A 
HETATM   11  C   UNL     1      22.573  43.619  48.860  1.00  0.00     0.039 A 
HETATM   12  H   UNL     1      26.469  44.696  49.931  1.00  0.00     0.169 HD
ENDROOT
BRANCH   7  13
HETATM   13  N   UNL     1      23.001  49.049  49.502  1.00  0.00    -0.242 N 
HETATM   14  C   UNL     1      22.624  49.858  48.441  1.00  0.00     0.274 C 
HETATM   15  O   UNL     1      23.307  50.085  47.443  1.00  0.00    -0.266 OA
HETATM   16  H   UNL     1      22.407  48.927  50.305  1.00  0.00     0.192 HD
BRANCH  14  17
HETATM   17  C   UNL     1      21.246  50.428  48.491  1.00  0.00     0.068 A 
HETATM   18  C   UNL     1      20.782  50.989  49.693  1.00  0.00     0.081 A 
HETATM   19  C   UNL     1      19.519  51.575  49.769  1.00  0.00     0.039 A 
HETATM   20  C   UNL     1      18.694  51.598  48.645  1.00  0.00     0.022 A 
HETATM   21  C   UNL     1      19.135  51.020  47.457  1.00  0.00     0.012 A 
HETATM   22 BR   UNL     1      18.015  51.040  45.935  1.00  0.00    -0.051 Br
HETATM   23  C   UNL     1      20.398  50.427  47.373  1.00  0.00     0.039 A 
BRANCH  18  24
HETATM   24  O   UNL     1      21.518  51.006  50.848  1.00  0.00    -0.360 OA
HETATM   25  H   UNL     1      20.899  50.896  51.607  1.00  0.00     0.217 HD
ENDBRANCH  18  24
ENDBRANCH  14  17
ENDBRANCH   7  13
BRANCH   1  26
HETATM   26  O   UNL     1      20.505  44.469  48.196  1.00  0.00    -0.356 OA
HETATM   27  C   UNL     1      19.523  45.488  48.344  1.00  0.00     0.210 C 
ENDBRANCH   1  26
TORSDOF 4
ENDMDL
MODEL 10
REMARK VINA RESULT:      -7.6      5.046      8.350
REMARK  4 active torsions:
REMARK  status: ('A' for Active; 'I' for Inactive)
REMARK    1  A    between atoms: O_2  and  C_3 
REMARK    2  A    between atoms: N_9  and  N_10 
REMARK       I    between atoms: N_10  and  C_11 
REMARK    3  A    between atoms: C_11  and  C_12 
REMARK    4  A    between atoms: C_13  and  O_14 
ROOT
HETATM    1  C   UNL     1      24.184  45.095  49.998  1.00  0.00     0.069 A 
HETATM    2  C   UNL     1      24.085  46.448  49.655  1.00  0.00     0.053 A 
HETATM    3  C   UNL     1      25.258  47.181  49.562  1.00  0.00     0.029 A 
HETATM    4  C   UNL     1      25.532  48.589  49.234  1.00  0.00     0.157 A 
HETATM    5  C   UNL     1      27.069  48.699  49.132  1.00  0.00     0.277 A 
HETATM    6  O   UNL     1      27.709  49.681  48.827  1.00  0.00    -0.266 OA
HETATM    7  N   UNL     1      24.775  49.626  49.066  1.00  0.00    -0.166 NA
HETATM    8  C   UNL     1      26.504  46.573  49.728  1.00  0.00     0.048 A 
HETATM    9  N   UNL     1      27.546  47.458  49.485  1.00  0.00    -0.321 N 
HETATM   10  C   UNL     1      26.628  45.240  50.056  1.00  0.00     0.033 A 
HETATM   11  C   UNL     1      25.449  44.506  50.203  1.00  0.00     0.039 A 
HETATM   12  H   UNL     1      28.533  47.243  49.507  1.00  0.00     0.169 HD
ENDROOT
BRANCH   7  13
HETATM   13  N   UNL     1      23.448  49.540  49.351  1.00  0.00    -0.242 N 
HETATM   14  C   UNL     1      22.511  49.848  48.376  1.00  0.00     0.274 C 
HETATM   15  O   UNL     1      22.764  50.061  47.191  1.00  0.00    -0.266 OA
HETATM   16  H   UNL     1      23.179  49.406  50.312  1.00  0.00     0.192 HD
BRANCH  14  17
HETATM   17  C   UNL     1      21.080  49.838  48.796  1.00  0.00     0.068 A 
HETATM   18  C   UNL     1      20.486  48.621  49.170  1.00  0.00     0.081 A 
HETATM   19  C   UNL     1      19.166  48.575  49.615  1.00  0.00     0.039 A 
HETATM   20  C   UNL     1      18.412  49.745  49.681  1.00  0.00     0.022 A 
HETATM   21  C   UNL     1      18.984  50.953  49.286  1.00  0.00     0.012 A 
HETATM   22 BR   UNL     1      17.962  52.542  49.364  1.00  0.00    -0.051 Br
HETATM   23  C   UNL     1      20.306  51.008  48.836  1.00  0.00     0.039 A 
BRANCH  18  24
HETATM   24  O   UNL     1      21.145  47.421  49.131  1.00  0.00    -0.360 OA
HETATM   25  H   UNL     1      20.489  46.705  49.305  1.00  0.00     0.217 HD
ENDBRANCH  18  24
ENDBRANCH  14  17
ENDBRANCH   7  13
BRANCH   1  26
HETATM   26  O   UNL     1      23.132  44.233  50.152  1.00  0.00    -0.356 OA
HETATM   27  C   UNL     1      23.419  42.840  50.128  1.00  0.00     0.210 C 
ENDBRANCH   1  26
TORSDOF 4
ENDMDL
