MODEL 1
REMARK VINA RESULT:      -8.5      0.000      0.000
REMARK  7 active torsions:
REMARK  status: ('A' for Active; 'I' for Inactive)
REMARK    1  A    between atoms: C_2  and  N_3 
REMARK    2  A    between atoms: C_2  and  C_17 
REMARK       I    between atoms: N_3  and  C_4 
REMARK    3  A    between atoms: C_4  and  C_5 
REMARK    4  A    between atoms: C_7  and  N_8 
REMARK    5  A    between atoms: C_17  and  O_18 
REMARK    6  A    between atoms: C_17  and  C_19 
REMARK    7  A    between atoms: C_22  and  O_23 
ROOT
HETATM    1  N   UNL     1      25.547  45.867  50.648  1.00  0.00    -0.349 N 
HETATM    2  C   UNL     1      25.878  47.146  51.029  1.00  0.00     0.270 C 
HETATM    3  O   UNL     1      26.297  47.431  52.146  1.00  0.00    -0.266 OA
HETATM    4  H   UNL     1      25.206  45.770  49.695  1.00  0.00     0.163 HD
ENDROOT
BRANCH   1   5
HETATM    5  C   UNL     1      25.760  44.654  51.445  1.00  0.00     0.114 C 
HETATM    6  C   UNL     1      24.537  43.736  51.358  1.00  0.00     0.035 C 
BRANCH   5   7
HETATM    7  C   UNL     1      27.078  43.873  51.146  1.00  0.00     0.173 C 
BRANCH   7   8
HETATM    8  O   UNL     1      27.789  44.349  50.003  1.00  0.00    -0.389 OA
HETATM    9  H   UNL     1      27.678  43.682  49.293  1.00  0.00     0.210 HD
ENDBRANCH   7   8
BRANCH   7  10
HETATM   10  C   UNL     1      28.002  43.766  52.346  1.00  0.00    -0.028 A 
HETATM   11  C   UNL     1      29.116  42.916  52.295  1.00  0.00     0.012 A 
HETATM   12  C   UNL     1      29.978  42.807  53.389  1.00  0.00     0.037 A 
HETATM   13  C   UNL     1      29.748  43.542  54.553  1.00  0.00     0.068 A 
HETATM   14  C   UNL     1      28.634  44.377  54.620  1.00  0.00     0.037 A 
HETATM   15  C   UNL     1      27.768  44.487  53.524  1.00  0.00     0.012 A 
BRANCH  13  16
HETATM   16  O   UNL     1      30.673  43.350  55.542  1.00  0.00    -0.356 OA
HETATM   17  C   UNL     1      30.945  44.463  56.385  1.00  0.00     0.210 C 
ENDBRANCH  13  16
ENDBRANCH   7  10
ENDBRANCH   5   7
ENDBRANCH   1   5
BRANCH   2  18
HETATM   18  C   UNL     1      25.693  48.186  49.966  1.00  0.00     0.126 A 
HETATM   19  N   UNL     1      24.407  48.547  49.695  1.00  0.00    -0.224 NA
HETATM   20  C   UNL     1      24.232  49.471  48.708  1.00  0.00     0.151 A 
HETATM   21  C   UNL     1      25.295  50.035  48.000  1.00  0.00     0.052 A 
HETATM   22  C   UNL     1      26.595  49.641  48.308  1.00  0.00     0.006 A 
HETATM   23  C   UNL     1      26.804  48.698  49.308  1.00  0.00     0.037 A 
BRANCH  20  24
HETATM   24  N   UNL     1      22.899  49.872  48.385  1.00  0.00    -0.227 N 
HETATM   25  N   UNL     1      22.079  49.121  47.600  1.00  0.00    -0.179 NA
HETATM   26  C   UNL     1      20.943  49.819  47.544  1.00  0.00     0.141 A 
HETATM   27  C   UNL     1      21.004  51.014  48.277  1.00  0.00     0.040 A 
HETATM   28  C   UNL     1      22.271  51.027  48.808  1.00  0.00     0.122 A 
ENDBRANCH  20  24
ENDBRANCH   2  18
TORSDOF 7
ENDMDL
MODEL 2
REMARK VINA RESULT:      -8.3      3.696      9.974
REMARK  7 active torsions:
REMARK  status: ('A' for Active; 'I' for Inactive)
REMARK    1  A    between atoms: C_2  and  N_3 
REMARK    2  A    between atoms: C_2  and  C_17 
REMARK       I    between atoms: N_3  and  C_4 
REMARK    3  A    between atoms: C_4  and  C_5 
REMARK    4  A    between atoms: C_7  and  N_8 
REMARK    5  A    between atoms: C_17  and  O_18 
REMARK    6  A    between atoms: C_17  and  C_19 
REMARK    7  A    between atoms: C_22  and  O_23 
ROOT
HETATM    1  N   UNL     1      22.746  48.070  49.653  1.00  0.00    -0.349 N 
HETATM    2  C   UNL     1      24.107  48.251  49.734  1.00  0.00     0.270 C 
HETATM    3  O   UNL     1      24.696  49.192  49.210  1.00  0.00    -0.266 OA
HETATM    4  H   UNL     1      22.387  47.246  50.128  1.00  0.00     0.163 HD
ENDROOT
BRANCH   1   5
HETATM    5  C   UNL     1      21.791  49.011  49.059  1.00  0.00     0.114 C 
HETATM    6  C   UNL     1      20.520  48.277  48.619  1.00  0.00     0.035 C 
BRANCH   5   7
HETATM    7  C   UNL     1      21.451  50.265  49.925  1.00  0.00     0.173 C 
BRANCH   7   8
HETATM    8  O   UNL     1      22.504  51.226  49.993  1.00  0.00    -0.389 OA
HETATM    9  H   UNL     1      22.189  51.964  50.557  1.00  0.00     0.210 HD
ENDBRANCH   7   8
BRANCH   7  10
HETATM   10  C   UNL     1      20.142  50.929  49.539  1.00  0.00    -0.028 A 
HETATM   11  C   UNL     1      18.967  50.612  50.236  1.00  0.00     0.012 A 
HETATM   12  C   UNL     1      17.754  51.216  49.896  1.00  0.00     0.037 A 
HETATM   13  C   UNL     1      17.688  52.145  48.857  1.00  0.00     0.068 A 
HETATM   14  C   UNL     1      18.847  52.455  48.147  1.00  0.00     0.037 A 
HETATM   15  C   UNL     1      20.064  51.850  48.486  1.00  0.00     0.012 A 
BRANCH  13  16
HETATM   16  O   UNL     1      16.443  52.668  48.635  1.00  0.00    -0.356 OA
HETATM   17  C   UNL     1      15.394  52.191  49.467  1.00  0.00     0.210 C 
ENDBRANCH  13  16
ENDBRANCH   7  10
ENDBRANCH   5   7
ENDBRANCH   1   5
BRANCH   2  18
HETATM   18  C   UNL     1      24.834  47.207  50.525  1.00  0.00     0.126 A 
HETATM   19  N   UNL     1      25.276  47.585  51.757  1.00  0.00    -0.224 NA
HETATM   20  C   UNL     1      25.964  46.649  52.470  1.00  0.00     0.151 A 
HETATM   21  C   UNL     1      26.213  45.362  51.988  1.00  0.00     0.052 A 
HETATM   22  C   UNL     1      25.744  45.013  50.723  1.00  0.00     0.006 A 
HETATM   23  C   UNL     1      25.041  45.949  49.974  1.00  0.00     0.037 A 
BRANCH  20  24
HETATM   24  N   UNL     1      26.453  47.007  53.763  1.00  0.00    -0.227 N 
HETATM   25  N   UNL     1      25.896  48.002  54.507  1.00  0.00    -0.179 NA
HETATM   26  C   UNL     1      26.618  48.021  55.629  1.00  0.00     0.141 A 
HETATM   27  C   UNL     1      27.638  47.057  55.634  1.00  0.00     0.040 A 
HETATM   28  C   UNL     1      27.512  46.418  54.425  1.00  0.00     0.122 A 
ENDBRANCH  20  24
ENDBRANCH   2  18
TORSDOF 7
ENDMDL
MODEL 3
REMARK VINA RESULT:      -8.1      3.665      7.220
REMARK  7 active torsions:
REMARK  status: ('A' for Active; 'I' for Inactive)
REMARK    1  A    between atoms: C_2  and  N_3 
REMARK    2  A    between atoms: C_2  and  C_17 
REMARK       I    between atoms: N_3  and  C_4 
REMARK    3  A    between atoms: C_4  and  C_5 
REMARK    4  A    between atoms: C_7  and  N_8 
REMARK    5  A    between atoms: C_17  and  O_18 
REMARK    6  A    between atoms: C_17  and  C_19 
REMARK    7  A    between atoms: C_22  and  O_23 
ROOT
HETATM    1  N   UNL     1      27.678  42.537  51.642  1.00  0.00    -0.349 N 
HETATM    2  C   UNL     1      28.618  42.130  52.559  1.00  0.00     0.270 C 
HETATM    3  O   UNL     1      29.171  41.036  52.520  1.00  0.00    -0.266 OA
HETATM    4  H   UNL     1      27.293  43.466  51.794  1.00  0.00     0.163 HD
ENDROOT
BRANCH   1   5
HETATM    5  C   UNL     1      27.291  41.807  50.431  1.00  0.00     0.114 C 
HETATM    6  C   UNL     1      26.202  40.777  50.751  1.00  0.00     0.035 C 
BRANCH   5   7
HETATM    7  C   UNL     1      26.893  42.691  49.208  1.00  0.00     0.173 C 
BRANCH   7   8
HETATM    8  O   UNL     1      26.128  42.003  48.219  1.00  0.00    -0.389 OA
HETATM    9  H   UNL     1      25.499  42.651  47.835  1.00  0.00     0.210 HD
ENDBRANCH   7   8
BRANCH   7  10
HETATM   10  C   UNL     1      26.219  43.994  49.598  1.00  0.00    -0.028 A 
HETATM   11  C   UNL     1      26.981  45.165  49.716  1.00  0.00     0.012 A 
HETATM   12  C   UNL     1      26.377  46.374  50.072  1.00  0.00     0.037 A 
HETATM   13  C   UNL     1      25.005  46.439  50.315  1.00  0.00     0.068 A 
HETATM   14  C   UNL     1      24.241  45.277  50.217  1.00  0.00     0.037 A 
HETATM   15  C   UNL     1      24.845  44.064  49.861  1.00  0.00     0.012 A 
BRANCH  13  16
HETATM   16  O   UNL     1      24.540  47.683  50.644  1.00  0.00    -0.356 OA
HETATM   17  C   UNL     1      23.748  48.346  49.667  1.00  0.00     0.210 C 
ENDBRANCH  13  16
ENDBRANCH   7  10
ENDBRANCH   5   7
ENDBRANCH   1   5
BRANCH   2  18
HETATM   18  C   UNL     1      28.931  43.136  53.626  1.00  0.00     0.126 A 
HETATM   19  N   UNL     1      28.095  44.210  53.705  1.00  0.00    -0.224 NA
HETATM   20  C   UNL     1      28.393  45.142  54.654  1.00  0.00     0.151 A 
HETATM   21  C   UNL     1      29.487  45.026  55.513  1.00  0.00     0.052 A 
HETATM   22  C   UNL     1      30.317  43.913  55.402  1.00  0.00     0.006 A 
HETATM   23  C   UNL     1      30.039  42.947  54.442  1.00  0.00     0.037 A 
BRANCH  20  24
HETATM   24  N   UNL     1      27.547  46.288  54.765  1.00  0.00    -0.227 N 
HETATM   25  N   UNL     1      27.652  47.177  55.791  1.00  0.00    -0.179 NA
HETATM   26  C   UNL     1      26.712  48.090  55.535  1.00  0.00     0.141 A 
HETATM   27  C   UNL     1      25.993  47.814  54.362  1.00  0.00     0.040 A 
HETATM   28  C   UNL     1      26.547  46.651  53.885  1.00  0.00     0.122 A 
ENDBRANCH  20  24
ENDBRANCH   2  18
TORSDOF 7
ENDMDL
MODEL 4
REMARK VINA RESULT:      -8.0      2.009      2.487
REMARK  7 active torsions:
REMARK  status: ('A' for Active; 'I' for Inactive)
REMARK    1  A    between atoms: C_2  and  N_3 
REMARK    2  A    between atoms: C_2  and  C_17 
REMARK       I    between atoms: N_3  and  C_4 
REMARK    3  A    between atoms: C_4  and  C_5 
REMARK    4  A    between atoms: C_7  and  N_8 
REMARK    5  A    between atoms: C_17  and  O_18 
REMARK    6  A    between atoms: C_17  and  C_19 
REMARK    7  A    between atoms: C_22  and  O_23 
ROOT
HETATM    1  N   UNL     1      25.251  46.463  52.222  1.00  0.00    -0.349 N 
HETATM    2  C   UNL     1      25.407  47.223  51.087  1.00  0.00     0.270 C 
HETATM    3  O   UNL     1      26.367  47.962  50.895  1.00  0.00    -0.266 OA
HETATM    4  H   UNL     1      24.406  45.898  52.256  1.00  0.00     0.163 HD
ENDROOT
BRANCH   1   5
HETATM    5  C   UNL     1      26.238  46.316  53.296  1.00  0.00     0.114 C 
HETATM    6  C   UNL     1      26.103  47.459  54.307  1.00  0.00     0.035 C 
BRANCH   5   7
HETATM    7  C   UNL     1      26.258  44.927  54.009  1.00  0.00     0.173 C 
BRANCH   7   8
HETATM    8  O   UNL     1      25.663  43.876  53.248  1.00  0.00    -0.389 OA
HETATM    9  H   UNL     1      26.244  43.710  52.476  1.00  0.00     0.210 HD
ENDBRANCH   7   8
BRANCH   7  10
HETATM   10  C   UNL     1      27.635  44.520  54.501  1.00  0.00    -0.028 A 
HETATM   11  C   UNL     1      28.172  43.281  54.124  1.00  0.00     0.012 A 
HETATM   12  C   UNL     1      29.439  42.891  54.566  1.00  0.00     0.037 A 
HETATM   13  C   UNL     1      30.194  43.727  55.389  1.00  0.00     0.068 A 
HETATM   14  C   UNL     1      29.663  44.955  55.782  1.00  0.00     0.037 A 
HETATM   15  C   UNL     1      28.392  45.346  55.341  1.00  0.00     0.012 A 
BRANCH  13  16
HETATM   16  O   UNL     1      31.420  43.230  55.740  1.00  0.00    -0.356 OA
HETATM   17  C   UNL     1      31.806  43.385  57.099  1.00  0.00     0.210 C 
ENDBRANCH  13  16
ENDBRANCH   7  10
ENDBRANCH   5   7
ENDBRANCH   1   5
BRANCH   2  18
HETATM   18  C   UNL     1      24.308  47.079  50.078  1.00  0.00     0.126 A 
HETATM   19  N   UNL     1      23.615  48.213  49.777  1.00  0.00    -0.224 NA
HETATM   20  C   UNL     1      22.595  48.082  48.882  1.00  0.00     0.151 A 
HETATM   21  C   UNL     1      22.259  46.864  48.288  1.00  0.00     0.052 A 
HETATM   22  C   UNL     1      22.993  45.727  48.621  1.00  0.00     0.006 A 
HETATM   23  C   UNL     1      24.037  45.830  49.532  1.00  0.00     0.037 A 
BRANCH  20  24
HETATM   24  N   UNL     1      21.837  49.245  48.545  1.00  0.00    -0.227 N 
HETATM   25  N   UNL     1      20.846  49.227  47.612  1.00  0.00    -0.179 NA
HETATM   26  C   UNL     1      20.385  50.479  47.594  1.00  0.00     0.141 A 
HETATM   27  C   UNL     1      21.057  51.317  48.497  1.00  0.00     0.040 A 
HETATM   28  C   UNL     1      21.986  50.502  49.096  1.00  0.00     0.122 A 
ENDBRANCH  20  24
ENDBRANCH   2  18
TORSDOF 7
ENDMDL
MODEL 5
REMARK VINA RESULT:      -7.9      3.164      8.668
REMARK  7 active torsions:
REMARK  status: ('A' for Active; 'I' for Inactive)
REMARK    1  A    between atoms: C_2  and  N_3 
REMARK    2  A    between atoms: C_2  and  C_17 
REMARK       I    between atoms: N_3  and  C_4 
REMARK    3  A    between atoms: C_4  and  C_5 
REMARK    4  A    between atoms: C_7  and  N_8 
REMARK    5  A    between atoms: C_17  and  O_18 
REMARK    6  A    between atoms: C_17  and  C_19 
REMARK    7  A    between atoms: C_22  and  O_23 
ROOT
HETATM    1  N   UNL     1      26.143  44.326  52.015  1.00  0.00    -0.349 N 
HETATM    2  C   UNL     1      27.459  44.239  52.403  1.00  0.00     0.270 C 
HETATM    3  O   UNL     1      28.305  43.600  51.786  1.00  0.00    -0.266 OA
HETATM    4  H   UNL     1      25.546  44.883  52.620  1.00  0.00     0.163 HD
ENDROOT
BRANCH   1   5
HETATM    5  C   UNL     1      25.581  43.794  50.769  1.00  0.00     0.114 C 
HETATM    6  C   UNL     1      25.335  42.287  50.893  1.00  0.00     0.035 C 
BRANCH   5   7
HETATM    7  C   UNL     1      24.316  44.534  50.231  1.00  0.00     0.173 C 
BRANCH   7   8
HETATM    8  O   UNL     1      23.180  44.442  51.091  1.00  0.00    -0.389 OA
HETATM    9  H   UNL     1      22.638  45.246  50.944  1.00  0.00     0.210 HD
ENDBRANCH   7   8
BRANCH   7  10
HETATM   10  C   UNL     1      24.579  45.977  49.842  1.00  0.00    -0.028 A 
HETATM   11  C   UNL     1      25.890  46.475  49.856  1.00  0.00     0.012 A 
HETATM   12  C   UNL     1      26.151  47.801  49.498  1.00  0.00     0.037 A 
HETATM   13  C   UNL     1      25.113  48.653  49.120  1.00  0.00     0.068 A 
HETATM   14  C   UNL     1      23.804  48.173  49.119  1.00  0.00     0.037 A 
HETATM   15  C   UNL     1      23.541  46.845  49.478  1.00  0.00     0.012 A 
BRANCH  13  16
HETATM   16  O   UNL     1      25.507  49.920  48.785  1.00  0.00    -0.356 OA
HETATM   17  C   UNL     1      26.878  50.094  48.452  1.00  0.00     0.210 C 
ENDBRANCH  13  16
ENDBRANCH   7  10
ENDBRANCH   5   7
ENDBRANCH   1   5
BRANCH   2  18
HETATM   18  C   UNL     1      27.798  44.998  53.650  1.00  0.00     0.126 A 
HETATM   19  N   UNL     1      28.816  44.494  54.403  1.00  0.00    -0.224 NA
HETATM   20  C   UNL     1      29.110  45.163  55.554  1.00  0.00     0.151 A 
HETATM   21  C   UNL     1      28.422  46.308  55.961  1.00  0.00     0.052 A 
HETATM   22  C   UNL     1      27.389  46.793  55.163  1.00  0.00     0.006 A 
HETATM   23  C   UNL     1      27.066  46.130  53.985  1.00  0.00     0.037 A 
BRANCH  20  24
HETATM   24  N   UNL     1      30.164  44.663  56.378  1.00  0.00    -0.227 N 
HETATM   25  N   UNL     1      30.452  45.192  57.599  1.00  0.00    -0.179 NA
HETATM   26  C   UNL     1      31.474  44.459  58.045  1.00  0.00     0.141 A 
HETATM   27  C   UNL     1      31.862  43.461  57.138  1.00  0.00     0.040 A 
HETATM   28  C   UNL     1      31.006  43.612  56.074  1.00  0.00     0.122 A 
ENDBRANCH  20  24
ENDBRANCH   2  18
TORSDOF 7
ENDMDL
MODEL 6
REMARK VINA RESULT:      -7.9      2.501      4.163
REMARK  7 active torsions:
REMARK  status: ('A' for Active; 'I' for Inactive)
REMARK    1  A    between atoms: C_2  and  N_3 
REMARK    2  A    between atoms: C_2  and  C_17 
REMARK       I    between atoms: N_3  and  C_4 
REMARK    3  A    between atoms: C_4  and  C_5 
REMARK    4  A    between atoms: C_7  and  N_8 
REMARK    5  A    between atoms: C_17  and  O_18 
REMARK    6  A    between atoms: C_17  and  C_19 
REMARK    7  A    between atoms: C_22  and  O_23 
ROOT
HETATM    1  N   UNL     1      27.035  42.897  52.264  1.00  0.00    -0.349 N 
HETATM    2  C   UNL     1      26.039  43.776  52.618  1.00  0.00     0.270 C 
HETATM    3  O   UNL     1      25.704  43.985  53.780  1.00  0.00    -0.266 OA
HETATM    4  H   UNL     1      27.209  42.814  51.265  1.00  0.00     0.163 HD
ENDROOT
BRANCH   1   5
HETATM    5  C   UNL     1      27.920  42.187  53.192  1.00  0.00     0.114 C 
HETATM    6  C   UNL     1      27.841  40.675  52.958  1.00  0.00     0.035 C 
BRANCH   5   7
HETATM    7  C   UNL     1      29.402  42.679  53.221  1.00  0.00     0.173 C 
BRANCH   7   8
HETATM    8  O   UNL     1      29.836  43.287  52.005  1.00  0.00    -0.389 OA
HETATM    9  H   UNL     1      29.544  44.222  52.026  1.00  0.00     0.210 HD
ENDBRANCH   7   8
BRANCH   7  10
HETATM   10  C   UNL     1      29.719  43.569  54.409  1.00  0.00    -0.028 A 
HETATM   11  C   UNL     1      28.974  44.737  54.624  1.00  0.00     0.012 A 
HETATM   12  C   UNL     1      29.251  45.567  55.714  1.00  0.00     0.037 A 
HETATM   13  C   UNL     1      30.273  45.250  56.609  1.00  0.00     0.068 A 
HETATM   14  C   UNL     1      31.031  44.099  56.395  1.00  0.00     0.037 A 
HETATM   15  C   UNL     1      30.755  43.267  55.303  1.00  0.00     0.012 A 
BRANCH  13  16
HETATM   16  O   UNL     1      30.431  46.139  57.636  1.00  0.00    -0.356 OA
HETATM   17  C   UNL     1      31.000  45.633  58.836  1.00  0.00     0.210 C 
ENDBRANCH  13  16
ENDBRANCH   7  10
ENDBRANCH   5   7
ENDBRANCH   1   5
BRANCH   2  18
HETATM   18  C   UNL     1      25.383  44.479  51.469  1.00  0.00     0.126 A 
HETATM   19  N   UNL     1      25.999  45.612  51.026  1.00  0.00    -0.224 NA
HETATM   20  C   UNL     1      25.391  46.272  50.000  1.00  0.00     0.151 A 
HETATM   21  C   UNL     1      24.203  45.832  49.414  1.00  0.00     0.052 A 
HETATM   22  C   UNL     1      23.605  44.668  49.893  1.00  0.00     0.006 A 
HETATM   23  C   UNL     1      24.201  43.976  50.941  1.00  0.00     0.037 A 
BRANCH  20  24
HETATM   24  N   UNL     1      25.998  47.469  49.511  1.00  0.00    -0.227 N 
HETATM   25  N   UNL     1      27.336  47.567  49.274  1.00  0.00    -0.179 NA
HETATM   26  C   UNL     1      27.502  48.814  48.828  1.00  0.00     0.141 A 
HETATM   27  C   UNL     1      26.300  49.534  48.769  1.00  0.00     0.040 A 
HETATM   28  C   UNL     1      25.348  48.649  49.214  1.00  0.00     0.122 A 
ENDBRANCH  20  24
ENDBRANCH   2  18
TORSDOF 7
ENDMDL
MODEL 7
REMARK VINA RESULT:      -7.8      2.200      3.490
REMARK  7 active torsions:
REMARK  status: ('A' for Active; 'I' for Inactive)
REMARK    1  A    between atoms: C_2  and  N_3 
REMARK    2  A    between atoms: C_2  and  C_17 
REMARK       I    between atoms: N_3  and  C_4 
REMARK    3  A    between atoms: C_4  and  C_5 
REMARK    4  A    between atoms: C_7  and  N_8 
REMARK    5  A    between atoms: C_17  and  O_18 
REMARK    6  A    between atoms: C_17  and  C_19 
REMARK    7  A    between atoms: C_22  and  O_23 
ROOT
HETATM    1  N   UNL     1      26.837  42.723  50.946  1.00  0.00    -0.349 N 
HETATM    2  C   UNL     1      25.564  43.240  51.002  1.00  0.00     0.270 C 
HETATM    3  O   UNL     1      24.552  42.559  50.870  1.00  0.00    -0.266 OA
HETATM    4  H   UNL     1      27.588  43.399  51.065  1.00  0.00     0.163 HD
ENDROOT
BRANCH   1   5
HETATM    5  C   UNL     1      27.180  41.301  50.855  1.00  0.00     0.114 C 
HETATM    6  C   UNL     1      27.842  40.995  49.508  1.00  0.00     0.035 C 
BRANCH   5   7
HETATM    7  C   UNL     1      28.019  40.732  52.042  1.00  0.00     0.173 C 
BRANCH   7   8
HETATM    8  O   UNL     1      29.063  39.843  51.642  1.00  0.00    -0.389 OA
HETATM    9  H   UNL     1      28.810  38.944  51.940  1.00  0.00     0.210 HD
ENDBRANCH   7   8
BRANCH   7  10
HETATM   10  C   UNL     1      28.556  41.805  52.972  1.00  0.00    -0.028 A 
HETATM   11  C   UNL     1      27.705  42.401  53.914  1.00  0.00     0.012 A 
HETATM   12  C   UNL     1      28.182  43.389  54.779  1.00  0.00     0.037 A 
HETATM   13  C   UNL     1      29.514  43.801  54.724  1.00  0.00     0.068 A 
HETATM   14  C   UNL     1      30.364  43.227  53.780  1.00  0.00     0.037 A 
HETATM   15  C   UNL     1      29.887  42.237  52.911  1.00  0.00     0.012 A 
BRANCH  13  16
HETATM   16  O   UNL     1      29.853  44.765  55.633  1.00  0.00    -0.356 OA
HETATM   17  C   UNL     1      29.136  45.991  55.559  1.00  0.00     0.210 C 
ENDBRANCH  13  16
ENDBRANCH   7  10
ENDBRANCH   5   7
ENDBRANCH   1   5
BRANCH   2  18
HETATM   18  C   UNL     1      25.495  44.717  51.245  1.00  0.00     0.126 A 
HETATM   19  N   UNL     1      24.754  45.439  50.358  1.00  0.00    -0.224 NA
HETATM   20  C   UNL     1      24.712  46.787  50.558  1.00  0.00     0.151 A 
HETATM   21  C   UNL     1      25.381  47.419  51.608  1.00  0.00     0.052 A 
HETATM   22  C   UNL     1      26.127  46.646  52.495  1.00  0.00     0.006 A 
HETATM   23  C   UNL     1      26.190  45.269  52.314  1.00  0.00     0.037 A 
BRANCH  20  24
HETATM   24  N   UNL     1      23.954  47.583  49.646  1.00  0.00    -0.227 N 
HETATM   25  N   UNL     1      24.216  48.902  49.433  1.00  0.00    -0.179 NA
HETATM   26  C   UNL     1      23.312  49.277  48.525  1.00  0.00     0.141 A 
HETATM   27  C   UNL     1      22.463  48.229  48.140  1.00  0.00     0.040 A 
HETATM   28  C   UNL     1      22.894  47.151  48.874  1.00  0.00     0.122 A 
ENDBRANCH  20  24
ENDBRANCH   2  18
TORSDOF 7
ENDMDL
MODEL 8
REMARK VINA RESULT:      -7.7      4.135      7.650
REMARK  7 active torsions:
REMARK  status: ('A' for Active; 'I' for Inactive)
REMARK    1  A    between atoms: C_2  and  N_3 
REMARK    2  A    between atoms: C_2  and  C_17 
REMARK       I    between atoms: N_3  and  C_4 
REMARK    3  A    between atoms: C_4  and  C_5 
REMARK    4  A    between atoms: C_7  and  N_8 
REMARK    5  A    between atoms: C_17  and  O_18 
REMARK    6  A    between atoms: C_17  and  C_19 
REMARK    7  A    between atoms: C_22  and  O_23 
ROOT
HETATM    1  N   UNL     1      26.131  43.839  51.423  1.00  0.00    -0.349 N 
HETATM    2  C   UNL     1      26.676  43.718  50.167  1.00  0.00     0.270 C 
HETATM    3  O   UNL     1      27.214  44.646  49.572  1.00  0.00    -0.266 OA
HETATM    4  H   UNL     1      25.710  42.993  51.800  1.00  0.00     0.163 HD
ENDROOT
BRANCH   1   5
HETATM    5  C   UNL     1      26.218  45.023  52.284  1.00  0.00     0.114 C 
HETATM    6  C   UNL     1      25.130  46.036  51.912  1.00  0.00     0.035 C 
BRANCH   5   7
HETATM    7  C   UNL     1      26.230  44.742  53.819  1.00  0.00     0.173 C 
BRANCH   7   8
HETATM    8  O   UNL     1      25.301  43.740  54.233  1.00  0.00    -0.389 OA
HETATM    9  H   UNL     1      24.541  43.773  53.615  1.00  0.00     0.210 HD
ENDBRANCH   7   8
BRANCH   7  10
HETATM   10  C   UNL     1      27.615  44.450  54.369  1.00  0.00    -0.028 A 
HETATM   11  C   UNL     1      28.265  45.405  55.164  1.00  0.00     0.012 A 
HETATM   12  C   UNL     1      29.538  45.153  55.680  1.00  0.00     0.037 A 
HETATM   13  C   UNL     1      30.187  43.946  55.416  1.00  0.00     0.068 A 
HETATM   14  C   UNL     1      29.556  42.996  54.614  1.00  0.00     0.037 A 
HETATM   15  C   UNL     1      28.280  43.248  54.095  1.00  0.00     0.012 A 
BRANCH  13  16
HETATM   16  O   UNL     1      31.423  43.823  55.991  1.00  0.00    -0.356 OA
HETATM   17  C   UNL     1      31.455  43.645  57.400  1.00  0.00     0.210 C 
ENDBRANCH  13  16
ENDBRANCH   7  10
ENDBRANCH   5   7
ENDBRANCH   1   5
BRANCH   2  18
HETATM   18  C   UNL     1      26.571  42.349  49.565  1.00  0.00     0.126 A 
HETATM   19  N   UNL     1      27.585  41.486  49.856  1.00  0.00    -0.224 NA
HETATM   20  C   UNL     1      27.511  40.249  49.288  1.00  0.00     0.151 A 
HETATM   21  C   UNL     1      26.462  39.860  48.453  1.00  0.00     0.052 A 
HETATM   22  C   UNL     1      25.443  40.771  48.181  1.00  0.00     0.006 A 
HETATM   23  C   UNL     1      25.494  42.041  48.744  1.00  0.00     0.037 A 
BRANCH  20  24
HETATM   24  N   UNL     1      28.557  39.315  49.559  1.00  0.00    -0.227 N 
HETATM   25  N   UNL     1      29.238  38.672  48.571  1.00  0.00    -0.179 NA
HETATM   26  C   UNL     1      30.120  37.909  49.219  1.00  0.00     0.141 A 
HETATM   27  C   UNL     1      30.030  38.039  50.613  1.00  0.00     0.040 A 
HETATM   28  C   UNL     1      29.018  38.948  50.808  1.00  0.00     0.122 A 
ENDBRANCH  20  24
ENDBRANCH   2  18
TORSDOF 7
ENDMDL
MODEL 9
REMARK VINA RESULT:      -7.7      3.217      9.753
REMARK  7 active torsions:
REMARK  status: ('A' for Active; 'I' for Inactive)
REMARK    1  A    between atoms: C_2  and  N_3 
REMARK    2  A    between atoms: C_2  and  C_17 
REMARK       I    between atoms: N_3  and  C_4 
REMARK    3  A    between atoms: C_4  and  C_5 
REMARK    4  A    between atoms: C_7  and  N_8 
REMARK    5  A    between atoms: C_17  and  O_18 
REMARK    6  A    between atoms: C_17  and  C_19 
REMARK    7  A    between atoms: C_22  and  O_23 
ROOT
HETATM    1  N   UNL     1      23.513  47.636  49.939  1.00  0.00    -0.349 N 
HETATM    2  C   UNL     1      24.814  47.546  50.374  1.00  0.00     0.270 C 
HETATM    3  O   UNL     1      25.663  48.401  50.147  1.00  0.00    -0.266 OA
HETATM    4  H   UNL     1      22.914  46.854  50.191  1.00  0.00     0.163 HD
ENDROOT
BRANCH   1   5
HETATM    5  C   UNL     1      22.914  48.793  49.266  1.00  0.00     0.114 C 
HETATM    6  C   UNL     1      23.865  49.343  48.198  1.00  0.00     0.035 C 
BRANCH   5   7
HETATM    7  C   UNL     1      21.481  48.569  48.688  1.00  0.00     0.173 C 
BRANCH   7   8
HETATM    8  O   UNL     1      20.899  47.316  49.047  1.00  0.00    -0.389 OA
HETATM    9  H   UNL     1      20.219  47.106  48.372  1.00  0.00     0.210 HD
ENDBRANCH   7   8
BRANCH   7  10
HETATM   10  C   UNL     1      20.525  49.710  48.985  1.00  0.00    -0.028 A 
HETATM   11  C   UNL     1      19.498  49.532  49.923  1.00  0.00     0.012 A 
HETATM   12  C   UNL     1      18.610  50.573  50.211  1.00  0.00     0.037 A 
HETATM   13  C   UNL     1      18.729  51.807  49.572  1.00  0.00     0.068 A 
HETATM   14  C   UNL     1      19.737  51.989  48.626  1.00  0.00     0.037 A 
HETATM   15  C   UNL     1      20.627  50.947  48.335  1.00  0.00     0.012 A 
BRANCH  13  16
HETATM   16  O   UNL     1      17.804  52.740  49.954  1.00  0.00    -0.356 OA
HETATM   17  C   UNL     1      16.437  52.366  49.841  1.00  0.00     0.210 C 
ENDBRANCH  13  16
ENDBRANCH   7  10
ENDBRANCH   5   7
ENDBRANCH   1   5
BRANCH   2  18
HETATM   18  C   UNL     1      25.128  46.313  51.166  1.00  0.00     0.126 A 
HETATM   19  N   UNL     1      26.069  46.448  52.143  1.00  0.00    -0.224 NA
HETATM   20  C   UNL     1      26.380  45.324  52.847  1.00  0.00     0.151 A 
HETATM   21  C   UNL     1      25.780  44.087  52.603  1.00  0.00     0.052 A 
HETATM   22  C   UNL     1      24.821  43.989  51.596  1.00  0.00     0.006 A 
HETATM   23  C   UNL     1      24.486  45.120  50.861  1.00  0.00     0.037 A 
BRANCH  20  24
HETATM   24  N   UNL     1      27.367  45.419  53.874  1.00  0.00    -0.227 N 
HETATM   25  N   UNL     1      28.385  44.523  53.996  1.00  0.00    -0.179 NA
HETATM   26  C   UNL     1      29.082  44.954  55.050  1.00  0.00     0.141 A 
HETATM   27  C   UNL     1      28.538  46.115  55.621  1.00  0.00     0.040 A 
HETATM   28  C   UNL     1      27.437  46.394  54.849  1.00  0.00     0.122 A 
ENDBRANCH  20  24
ENDBRANCH   2  18
TORSDOF 7
ENDMDL
MODEL 10
REMARK VINA RESULT:      -7.6      1.838      2.444
REMARK  7 active torsions:
REMARK  status: ('A' for Active; 'I' for Inactive)
REMARK    1  A    between atoms: C_2  and  N_3 
REMARK    2  A    between atoms: C_2  and  C_17 
REMARK       I    between atoms: N_3  and  C_4 
REMARK    3  A    between atoms: C_4  and  C_5 
REMARK    4  A    between atoms: C_7  and  N_8 
REMARK    5  A    between atoms: C_17  and  O_18 
REMARK    6  A    between atoms: C_17  and  C_19 
REMARK    7  A    between atoms: C_22  and  O_23 
ROOT
HETATM    1  N   UNL     1      25.080  43.732  50.290  1.00  0.00    -0.349 N 
HETATM    2  C   UNL     1      24.594  44.977  50.612  1.00  0.00     0.270 C 
HETATM    3  O   UNL     1      24.868  45.560  51.656  1.00  0.00    -0.266 OA
HETATM    4  H   UNL     1      24.770  43.360  49.396  1.00  0.00     0.163 HD
ENDROOT
BRANCH   1   5
HETATM    5  C   UNL     1      26.077  42.978  51.057  1.00  0.00     0.114 C 
HETATM    6  C   UNL     1      25.966  41.480  50.753  1.00  0.00     0.035 C 
BRANCH   5   7
HETATM    7  C   UNL     1      27.550  43.476  50.923  1.00  0.00     0.173 C 
BRANCH   7   8
HETATM    8  O   UNL     1      27.689  44.683  50.172  1.00  0.00    -0.389 OA
HETATM    9  H   UNL     1      27.761  44.431  49.227  1.00  0.00     0.210 HD
ENDBRANCH   7   8
BRANCH   7  10
HETATM   10  C   UNL     1      28.275  43.584  52.252  1.00  0.00    -0.028 A 
HETATM   11  C   UNL     1      29.463  42.869  52.459  1.00  0.00     0.012 A 
HETATM   12  C   UNL     1      30.145  42.959  53.675  1.00  0.00     0.037 A 
HETATM   13  C   UNL     1      29.658  43.762  54.707  1.00  0.00     0.068 A 
HETATM   14  C   UNL     1      28.468  44.464  54.517  1.00  0.00     0.037 A 
HETATM   15  C   UNL     1      27.783  44.375  53.299  1.00  0.00     0.012 A 
BRANCH  13  16
HETATM   16  O   UNL     1      30.426  43.769  55.839  1.00  0.00    -0.356 OA
HETATM   17  C   UNL     1      30.547  45.010  56.520  1.00  0.00     0.210 C 
ENDBRANCH  13  16
ENDBRANCH   7  10
ENDBRANCH   5   7
ENDBRANCH   1   5
BRANCH   2  18
HETATM   18  C   UNL     1      23.697  45.588  49.578  1.00  0.00     0.126 A 
HETATM   19  N   UNL     1      23.716  46.948  49.493  1.00  0.00    -0.224 NA
HETATM   20  C   UNL     1      22.881  47.510  48.575  1.00  0.00     0.151 A 
HETATM   21  C   UNL     1      22.042  46.757  47.751  1.00  0.00     0.052 A 
HETATM   22  C   UNL     1      22.052  45.369  47.868  1.00  0.00     0.006 A 
HETATM   23  C   UNL     1      22.893  44.768  48.797  1.00  0.00     0.037 A 
BRANCH  20  24
HETATM   24  N   UNL     1      22.862  48.934  48.459  1.00  0.00    -0.227 N 
HETATM   25  N   UNL     1      23.677  49.609  47.601  1.00  0.00    -0.179 NA
HETATM   26  C   UNL     1      23.357  50.892  47.781  1.00  0.00     0.141 A 
HETATM   27  C   UNL     1      22.349  51.070  48.741  1.00  0.00     0.040 A 
HETATM   28  C   UNL     1      22.048  49.798  49.163  1.00  0.00     0.122 A 
ENDBRANCH  20  24
ENDBRANCH   2  18
TORSDOF 7
ENDMDL
