MODEL 1
REMARK VINA RESULT:     -10.2      0.000      0.000
REMARK  4 active torsions:
REMARK  status: ('A' for Active; 'I' for Inactive)
REMARK    1  A    between atoms: C_6  and  C_7 
REMARK    2  A    between atoms: C_7  and  N_8 
REMARK    3  A    between atoms: C_11  and  C_12 
REMARK    4  A    between atoms: C_12  and  C_13 
ROOT
HETATM    1  N   UNL     1      25.558  45.546  52.896  1.00  0.00    -0.064 N 
HETATM    2  H   UNL     1      25.004  45.004  53.580  1.00  0.00     0.280 HD
HETATM    3  C   UNL     1      26.918  44.875  52.832  1.00  0.00     0.247 C 
HETATM    4  C   UNL     1      27.574  44.919  54.216  1.00  0.00     0.086 C 
HETATM    5  C   UNL     1      27.684  46.367  54.698  1.00  0.00     0.016 C 
HETATM    6  C   UNL     1      26.321  47.055  54.692  1.00  0.00     0.029 C 
HETATM    7  C   UNL     1      25.642  46.976  53.333  1.00  0.00     0.235 C 
ENDROOT
BRANCH   1   8
HETATM    8  C   UNL     1      24.768  45.359  51.611  1.00  0.00     0.313 C 
BRANCH   8   9
HETATM    9  C   UNL     1      24.985  46.526  50.713  1.00  0.00     0.131 A 
HETATM   10  N   UNL     1      26.170  46.955  50.318  1.00  0.00    -0.232 NA
HETATM   11  C   UNL     1      25.915  48.058  49.535  1.00  0.00     0.085 A 
HETATM   12  C   UNL     1      24.546  48.281  49.429  1.00  0.00     0.062 A 
HETATM   13  C   UNL     1      26.804  48.923  48.883  1.00  0.00     0.034 A 
HETATM   14  C   UNL     1      23.997  49.328  48.688  1.00  0.00     0.032 A 
HETATM   15  N   UNL     1      23.973  47.288  50.183  1.00  0.00    -0.341 N 
HETATM   16  C   UNL     1      24.899  50.182  48.042  1.00  0.00     0.002 A 
HETATM   17  C   UNL     1      26.279  49.987  48.138  1.00  0.00     0.002 A 
HETATM   18  H   UNL     1      22.978  47.167  50.318  1.00  0.00     0.167 HD
ENDBRANCH   8   9
ENDBRANCH   1   8
BRANCH   4  19
HETATM   19  C   UNL     1      28.950  44.282  54.103  1.00  0.00     0.165 C 
HETATM   20  O   UNL     1      29.347  43.870  53.014  1.00  0.00    -0.292 OA
BRANCH  19  21
HETATM   21  C   UNL     1      29.829  44.152  55.307  1.00  0.00     0.012 A 
HETATM   22  C   UNL     1      29.866  45.224  56.209  1.00  0.00     0.039 A 
HETATM   23  C   UNL     1      30.671  45.155  57.345  1.00  0.00     0.035 A 
HETATM   24 CL   UNL     1      30.716  46.479  58.442  1.00  0.00    -0.084 Cl
HETATM   25  C   UNL     1      31.442  44.023  57.597  1.00  0.00     0.024 A 
HETATM   26  C   UNL     1      31.409  42.953  56.706  1.00  0.00     0.003 A 
HETATM   27  C   UNL     1      30.608  43.015  55.563  1.00  0.00     0.015 A 
ENDBRANCH  19  21
ENDBRANCH   4  19
TORSDOF 4
ENDMDL
MODEL 2
REMARK VINA RESULT:     -10.2      1.677      2.598
REMARK  4 active torsions:
REMARK  status: ('A' for Active; 'I' for Inactive)
REMARK    1  A    between atoms: C_6  and  C_7 
REMARK    2  A    between atoms: C_7  and  N_8 
REMARK    3  A    between atoms: C_11  and  C_12 
REMARK    4  A    between atoms: C_12  and  C_13 
ROOT
HETATM    1  N   UNL     1      26.021  44.386  51.290  1.00  0.00    -0.064 N 
HETATM    2  H   UNL     1      26.700  45.017  50.831  1.00  0.00     0.280 HD
HETATM    3  C   UNL     1      26.691  43.904  52.563  1.00  0.00     0.247 C 
HETATM    4  C   UNL     1      27.977  43.150  52.209  1.00  0.00     0.086 C 
HETATM    5  C   UNL     1      27.659  41.986  51.266  1.00  0.00     0.016 C 
HETATM    6  C   UNL     1      26.923  42.473  50.020  1.00  0.00     0.029 C 
HETATM    7  C   UNL     1      25.668  43.263  50.364  1.00  0.00     0.235 C 
ENDROOT
BRANCH   1   8
HETATM    8  C   UNL     1      24.851  45.315  51.576  1.00  0.00     0.313 C 
BRANCH   8   9
HETATM    9  C   UNL     1      24.922  46.502  50.680  1.00  0.00     0.131 A 
HETATM   10  N   UNL     1      26.044  47.067  50.276  1.00  0.00    -0.232 NA
HETATM   11  C   UNL     1      25.655  48.135  49.499  1.00  0.00     0.085 A 
HETATM   12  C   UNL     1      24.269  48.197  49.407  1.00  0.00     0.062 A 
HETATM   13  C   UNL     1      26.431  49.099  48.843  1.00  0.00     0.034 A 
HETATM   14  C   UNL     1      23.594  49.174  48.675  1.00  0.00     0.032 A 
HETATM   15  N   UNL     1      23.823  47.142  50.163  1.00  0.00    -0.341 N 
HETATM   16  C   UNL     1      24.383  50.129  48.025  1.00  0.00     0.002 A 
HETATM   17  C   UNL     1      25.778  50.097  48.107  1.00  0.00     0.002 A 
HETATM   18  H   UNL     1      22.850  46.904  50.306  1.00  0.00     0.167 HD
ENDBRANCH   8   9
ENDBRANCH   1   8
BRANCH   4  19
HETATM   19  C   UNL     1      28.594  42.642  53.503  1.00  0.00     0.165 C 
HETATM   20  O   UNL     1      28.594  41.437  53.750  1.00  0.00    -0.292 OA
BRANCH  19  21
HETATM   21  C   UNL     1      29.203  43.597  54.481  1.00  0.00     0.012 A 
HETATM   22  C   UNL     1      30.268  43.138  55.268  1.00  0.00     0.039 A 
HETATM   23  C   UNL     1      30.868  43.986  56.197  1.00  0.00     0.035 A 
HETATM   24 CL   UNL     1      32.170  43.410  57.163  1.00  0.00    -0.084 Cl
HETATM   25  C   UNL     1      30.421  45.295  56.351  1.00  0.00     0.024 A 
HETATM   26  C   UNL     1      29.363  45.759  55.572  1.00  0.00     0.003 A 
HETATM   27  C   UNL     1      28.753  44.915  54.640  1.00  0.00     0.015 A 
ENDBRANCH  19  21
ENDBRANCH   4  19
TORSDOF 4
ENDMDL
MODEL 3
REMARK VINA RESULT:     -10.1      3.416      8.511
REMARK  4 active torsions:
REMARK  status: ('A' for Active; 'I' for Inactive)
REMARK    1  A    between atoms: C_6  and  C_7 
REMARK    2  A    between atoms: C_7  and  N_8 
REMARK    3  A    between atoms: C_11  and  C_12 
REMARK    4  A    between atoms: C_12  and  C_13 
ROOT
HETATM    1  N   UNL     1      27.485  44.408  52.836  1.00  0.00    -0.064 N 
HETATM    2  H   UNL     1      27.727  45.274  53.348  1.00  0.00     0.280 HD
HETATM    3  C   UNL     1      27.194  44.833  51.409  1.00  0.00     0.247 C 
HETATM    4  C   UNL     1      26.018  45.815  51.398  1.00  0.00     0.086 C 
HETATM    5  C   UNL     1      24.793  45.173  52.054  1.00  0.00     0.016 C 
HETATM    6  C   UNL     1      25.116  44.686  53.465  1.00  0.00     0.029 C 
HETATM    7  C   UNL     1      26.312  43.745  53.491  1.00  0.00     0.235 C 
ENDROOT
BRANCH   1   8
HETATM    8  C   UNL     1      28.766  43.596  52.941  1.00  0.00     0.313 C 
BRANCH   8   9
HETATM    9  C   UNL     1      29.446  43.894  54.232  1.00  0.00     0.131 A 
HETATM   10  N   UNL     1      30.449  43.193  54.727  1.00  0.00    -0.232 NA
HETATM   11  C   UNL     1      30.750  43.788  55.931  1.00  0.00     0.085 A 
HETATM   12  C   UNL     1      29.932  44.891  56.152  1.00  0.00     0.062 A 
HETATM   13  C   UNL     1      31.708  43.439  56.892  1.00  0.00     0.034 A 
HETATM   14  C   UNL     1      30.019  45.691  57.292  1.00  0.00     0.032 A 
HETATM   15  N   UNL     1      29.113  44.943  55.053  1.00  0.00    -0.341 N 
HETATM   16  C   UNL     1      30.981  45.330  58.242  1.00  0.00     0.002 A 
HETATM   17  C   UNL     1      31.811  44.222  58.050  1.00  0.00     0.002 A 
HETATM   18  H   UNL     1      28.391  45.635  54.902  1.00  0.00     0.167 HD
ENDBRANCH   8   9
ENDBRANCH   1   8
BRANCH   4  19
HETATM   19  C   UNL     1      25.725  46.181  49.952  1.00  0.00     0.165 C 
HETATM   20  O   UNL     1      25.255  45.337  49.190  1.00  0.00    -0.292 OA
BRANCH  19  21
HETATM   21  C   UNL     1      26.005  47.560  49.445  1.00  0.00     0.012 A 
HETATM   22  C   UNL     1      24.915  48.338  49.027  1.00  0.00     0.039 A 
HETATM   23  C   UNL     1      25.121  49.628  48.542  1.00  0.00     0.035 A 
HETATM   24 CL   UNL     1      23.778  50.570  48.025  1.00  0.00    -0.084 Cl
HETATM   25  C   UNL     1      26.406  50.160  48.472  1.00  0.00     0.024 A 
HETATM   26  C   UNL     1      27.494  49.394  48.886  1.00  0.00     0.003 A 
HETATM   27  C   UNL     1      27.297  48.098  49.369  1.00  0.00     0.015 A 
ENDBRANCH  19  21
ENDBRANCH   4  19
TORSDOF 4
ENDMDL
MODEL 4
REMARK VINA RESULT:      -9.9      1.530      2.219
REMARK  4 active torsions:
REMARK  status: ('A' for Active; 'I' for Inactive)
REMARK    1  A    between atoms: C_6  and  C_7 
REMARK    2  A    between atoms: C_7  and  N_8 
REMARK    3  A    between atoms: C_11  and  C_12 
REMARK    4  A    between atoms: C_12  and  C_13 
ROOT
HETATM    1  N   UNL     1      26.132  44.859  52.406  1.00  0.00    -0.064 N 
HETATM    2  H   UNL     1      26.839  45.059  51.679  1.00  0.00     0.280 HD
HETATM    3  C   UNL     1      26.486  45.742  53.588  1.00  0.00     0.247 C 
HETATM    4  C   UNL     1      27.891  45.389  54.086  1.00  0.00     0.086 C 
HETATM    5  C   UNL     1      27.959  43.904  54.454  1.00  0.00     0.016 C 
HETATM    6  C   UNL     1      27.534  43.027  53.280  1.00  0.00     0.029 C 
HETATM    7  C   UNL     1      26.157  43.401  52.749  1.00  0.00     0.235 C 
ENDROOT
BRANCH   1   8
HETATM    8  C   UNL     1      24.838  45.292  51.736  1.00  0.00     0.313 C 
BRANCH   8   9
HETATM    9  C   UNL     1      25.103  46.444  50.830  1.00  0.00     0.131 A 
HETATM   10  N   UNL     1      26.307  46.886  50.517  1.00  0.00    -0.232 NA
HETATM   11  C   UNL     1      26.094  47.966  49.690  1.00  0.00     0.085 A 
HETATM   12  C   UNL     1      24.734  48.160  49.476  1.00  0.00     0.062 A 
HETATM   13  C   UNL     1      27.015  48.833  49.088  1.00  0.00     0.034 A 
HETATM   14  C   UNL     1      24.224  49.180  48.670  1.00  0.00     0.032 A 
HETATM   15  N   UNL     1      24.121  47.174  50.207  1.00  0.00    -0.341 N 
HETATM   16  C   UNL     1      25.158  50.037  48.075  1.00  0.00     0.002 A 
HETATM   17  C   UNL     1      26.530  49.870  48.280  1.00  0.00     0.002 A 
HETATM   18  H   UNL     1      23.121  47.037  50.268  1.00  0.00     0.167 HD
ENDBRANCH   8   9
ENDBRANCH   1   8
BRANCH   4  19
HETATM   19  C   UNL     1      28.192  46.258  55.297  1.00  0.00     0.165 C 
HETATM   20  O   UNL     1      27.663  47.364  55.405  1.00  0.00    -0.292 OA
BRANCH  19  21
HETATM   21  C   UNL     1      29.127  45.780  56.363  1.00  0.00     0.012 A 
HETATM   22  C   UNL     1      30.142  44.887  55.991  1.00  0.00     0.039 A 
HETATM   23  C   UNL     1      31.037  44.409  56.946  1.00  0.00     0.035 A 
HETATM   24 CL   UNL     1      32.274  43.307  56.481  1.00  0.00    -0.084 Cl
HETATM   25  C   UNL     1      30.938  44.814  58.274  1.00  0.00     0.024 A 
HETATM   26  C   UNL     1      29.933  45.702  58.651  1.00  0.00     0.003 A 
HETATM   27  C   UNL     1      29.028  46.184  57.702  1.00  0.00     0.015 A 
ENDBRANCH  19  21
ENDBRANCH   4  19
TORSDOF 4
ENDMDL
MODEL 5
REMARK VINA RESULT:      -9.7      2.215      3.533
REMARK  4 active torsions:
REMARK  status: ('A' for Active; 'I' for Inactive)
REMARK    1  A    between atoms: C_6  and  C_7 
REMARK    2  A    between atoms: C_7  and  N_8 
REMARK    3  A    between atoms: C_11  and  C_12 
REMARK    4  A    between atoms: C_12  and  C_13 
ROOT
HETATM    1  N   UNL     1      24.648  45.111  49.926  1.00  0.00    -0.064 N 
HETATM    2  H   UNL     1      25.105  46.022  49.746  1.00  0.00     0.280 HD
HETATM    3  C   UNL     1      24.665  44.925  51.432  1.00  0.00     0.247 C 
HETATM    4  C   UNL     1      26.114  44.912  51.929  1.00  0.00     0.086 C 
HETATM    5  C   UNL     1      26.902  43.808  51.217  1.00  0.00     0.016 C 
HETATM    6  C   UNL     1      26.821  43.965  49.701  1.00  0.00     0.029 C 
HETATM    7  C   UNL     1      25.384  44.025  49.203  1.00  0.00     0.235 C 
ENDROOT
BRANCH   1   8
HETATM    8  C   UNL     1      23.242  45.338  49.393  1.00  0.00     0.313 C 
BRANCH   8   9
HETATM    9  C   UNL     1      23.024  46.791  49.153  1.00  0.00     0.131 A 
HETATM   10  N   UNL     1      23.989  47.689  49.082  1.00  0.00    -0.232 NA
HETATM   11  C   UNL     1      23.351  48.892  48.881  1.00  0.00     0.085 A 
HETATM   12  C   UNL     1      21.975  48.712  48.799  1.00  0.00     0.062 A 
HETATM   13  C   UNL     1      23.883  50.184  48.764  1.00  0.00     0.034 A 
HETATM   14  C   UNL     1      21.077  49.760  48.590  1.00  0.00     0.032 A 
HETATM   15  N   UNL     1      21.790  47.363  48.968  1.00  0.00    -0.341 N 
HETATM   16  C   UNL     1      21.624  51.043  48.474  1.00  0.00     0.002 A 
HETATM   17  C   UNL     1      23.002  51.255  48.562  1.00  0.00     0.002 A 
HETATM   18  H   UNL     1      20.892  46.898  48.964  1.00  0.00     0.167 HD
ENDBRANCH   8   9
ENDBRANCH   1   8
BRANCH   4  19
HETATM   19  C   UNL     1      26.093  44.676  53.431  1.00  0.00     0.165 C 
HETATM   20  O   UNL     1      25.103  44.169  53.958  1.00  0.00    -0.292 OA
BRANCH  19  21
HETATM   21  C   UNL     1      27.267  45.054  54.277  1.00  0.00     0.012 A 
HETATM   22  C   UNL     1      28.306  44.122  54.411  1.00  0.00     0.039 A 
HETATM   23  C   UNL     1      29.421  44.424  55.191  1.00  0.00     0.035 A 
HETATM   24 CL   UNL     1      30.686  43.270  55.355  1.00  0.00    -0.084 Cl
HETATM   25  C   UNL     1      29.518  45.652  55.840  1.00  0.00     0.024 A 
HETATM   26  C   UNL     1      28.491  46.584  55.711  1.00  0.00     0.003 A 
HETATM   27  C   UNL     1      27.367  46.289  54.934  1.00  0.00     0.015 A 
ENDBRANCH  19  21
ENDBRANCH   4  19
TORSDOF 4
ENDMDL
MODEL 6
REMARK VINA RESULT:      -9.5      2.959      4.714
REMARK  4 active torsions:
REMARK  status: ('A' for Active; 'I' for Inactive)
REMARK    1  A    between atoms: C_6  and  C_7 
REMARK    2  A    between atoms: C_7  and  N_8 
REMARK    3  A    between atoms: C_11  and  C_12 
REMARK    4  A    between atoms: C_12  and  C_13 
ROOT
HETATM    1  N   UNL     1      24.026  47.512  49.595  1.00  0.00    -0.064 N 
HETATM    2  H   UNL     1      23.654  48.232  50.237  1.00  0.00     0.280 HD
HETATM    3  C   UNL     1      24.191  46.254  50.426  1.00  0.00     0.247 C 
HETATM    4  C   UNL     1      25.177  46.522  51.568  1.00  0.00     0.086 C 
HETATM    5  C   UNL     1      26.516  47.002  51.003  1.00  0.00     0.016 C 
HETATM    6  C   UNL     1      26.330  48.227  50.111  1.00  0.00     0.029 C 
HETATM    7  C   UNL     1      25.318  47.984  49.001  1.00  0.00     0.235 C 
ENDROOT
BRANCH   1   8
HETATM    8  C   UNL     1      22.911  47.378  48.570  1.00  0.00     0.313 C 
BRANCH   8   9
HETATM    9  C   UNL     1      21.897  48.446  48.788  1.00  0.00     0.131 A 
HETATM   10  N   UNL     1      21.918  49.628  48.199  1.00  0.00    -0.232 NA
HETATM   11  C   UNL     1      20.829  50.303  48.701  1.00  0.00     0.085 A 
HETATM   12  C   UNL     1      20.119  49.502  49.588  1.00  0.00     0.062 A 
HETATM   13  C   UNL     1      20.386  51.609  48.449  1.00  0.00     0.034 A 
HETATM   14  C   UNL     1      18.962  49.926  50.244  1.00  0.00     0.032 A 
HETATM   15  N   UNL     1      20.814  48.320  49.623  1.00  0.00    -0.341 N 
HETATM   16  C   UNL     1      18.533  51.231  49.980  1.00  0.00     0.002 A 
HETATM   17  C   UNL     1      19.231  52.062  49.100  1.00  0.00     0.002 A 
HETATM   18  H   UNL     1      20.560  47.516  50.181  1.00  0.00     0.167 HD
ENDBRANCH   8   9
ENDBRANCH   1   8
BRANCH   4  19
HETATM   19  C   UNL     1      25.354  45.229  52.349  1.00  0.00     0.165 C 
HETATM   20  O   UNL     1      24.445  44.401  52.376  1.00  0.00    -0.292 OA
BRANCH  19  21
HETATM   21  C   UNL     1      26.627  44.954  53.086  1.00  0.00     0.012 A 
HETATM   22  C   UNL     1      26.877  45.685  54.256  1.00  0.00     0.039 A 
HETATM   23  C   UNL     1      28.049  45.470  54.978  1.00  0.00     0.035 A 
HETATM   24 CL   UNL     1      28.350  46.377  56.408  1.00  0.00    -0.084 Cl
HETATM   25  C   UNL     1      28.980  44.528  54.549  1.00  0.00     0.024 A 
HETATM   26  C   UNL     1      28.738  43.797  53.388  1.00  0.00     0.003 A 
HETATM   27  C   UNL     1      27.567  44.008  52.655  1.00  0.00     0.015 A 
ENDBRANCH  19  21
ENDBRANCH   4  19
TORSDOF 4
ENDMDL
MODEL 7
REMARK VINA RESULT:      -9.2      3.832      5.640
REMARK  4 active torsions:
REMARK  status: ('A' for Active; 'I' for Inactive)
REMARK    1  A    between atoms: C_6  and  C_7 
REMARK    2  A    between atoms: C_7  and  N_8 
REMARK    3  A    between atoms: C_11  and  C_12 
REMARK    4  A    between atoms: C_12  and  C_13 
ROOT
HETATM    1  N   UNL     1      26.558  44.076  52.174  1.00  0.00    -0.064 N 
HETATM    2  H   UNL     1      26.916  43.141  52.431  1.00  0.00     0.280 HD
HETATM    3  C   UNL     1      27.493  45.076  52.829  1.00  0.00     0.247 C 
HETATM    4  C   UNL     1      27.463  44.883  54.349  1.00  0.00     0.086 C 
HETATM    5  C   UNL     1      26.030  45.030  54.868  1.00  0.00     0.016 C 
HETATM    6  C   UNL     1      25.085  44.067  54.153  1.00  0.00     0.029 C 
HETATM    7  C   UNL     1      25.142  44.221  52.640  1.00  0.00     0.235 C 
ENDROOT
BRANCH   1   8
HETATM    8  C   UNL     1      26.692  44.076  50.660  1.00  0.00     0.313 C 
BRANCH   8   9
HETATM    9  C   UNL     1      27.211  42.757  50.202  1.00  0.00     0.131 A 
HETATM   10  N   UNL     1      27.212  42.351  48.946  1.00  0.00    -0.232 NA
HETATM   11  C   UNL     1      27.745  41.082  48.975  1.00  0.00     0.085 A 
HETATM   12  C   UNL     1      28.102  40.728  50.271  1.00  0.00     0.062 A 
HETATM   13  C   UNL     1      27.952  40.170  47.931  1.00  0.00     0.034 A 
HETATM   14  C   UNL     1      28.675  39.498  50.598  1.00  0.00     0.032 A 
HETATM   15  N   UNL     1      27.758  41.814  51.036  1.00  0.00    -0.341 N 
HETATM   16  C   UNL     1      28.875  38.599  49.545  1.00  0.00     0.002 A 
HETATM   17  C   UNL     1      28.519  38.925  48.234  1.00  0.00     0.002 A 
HETATM   18  H   UNL     1      27.885  41.879  52.037  1.00  0.00     0.167 HD
ENDBRANCH   8   9
ENDBRANCH   1   8
BRANCH   4  19
HETATM   19  C   UNL     1      28.372  45.930  54.973  1.00  0.00     0.165 C 
HETATM   20  O   UNL     1      28.394  47.073  54.516  1.00  0.00    -0.292 OA
BRANCH  19  21
HETATM   21  C   UNL     1      29.242  45.584  56.140  1.00  0.00     0.012 A 
HETATM   22  C   UNL     1      30.237  44.615  55.950  1.00  0.00     0.039 A 
HETATM   23  C   UNL     1      31.072  44.253  57.006  1.00  0.00     0.035 A 
HETATM   24 CL   UNL     1      32.284  43.057  56.765  1.00  0.00    -0.084 Cl
HETATM   25  C   UNL     1      30.930  44.851  58.255  1.00  0.00     0.024 A 
HETATM   26  C   UNL     1      29.945  45.816  58.452  1.00  0.00     0.003 A 
HETATM   27  C   UNL     1      29.101  46.182  57.400  1.00  0.00     0.015 A 
ENDBRANCH  19  21
ENDBRANCH   4  19
TORSDOF 4
ENDMDL
MODEL 8
REMARK VINA RESULT:      -9.1      2.397      4.149
REMARK  4 active torsions:
REMARK  status: ('A' for Active; 'I' for Inactive)
REMARK    1  A    between atoms: C_6  and  C_7 
REMARK    2  A    between atoms: C_7  and  N_8 
REMARK    3  A    between atoms: C_11  and  C_12 
REMARK    4  A    between atoms: C_12  and  C_13 
ROOT
HETATM    1  N   UNL     1      25.276  47.459  49.577  1.00  0.00    -0.064 N 
HETATM    2  H   UNL     1      26.016  46.935  49.079  1.00  0.00     0.280 HD
HETATM    3  C   UNL     1      25.722  47.540  51.025  1.00  0.00     0.247 C 
HETATM    4  C   UNL     1      25.861  46.125  51.596  1.00  0.00     0.086 C 
HETATM    5  C   UNL     1      24.535  45.372  51.457  1.00  0.00     0.016 C 
HETATM    6  C   UNL     1      24.060  45.356  50.007  1.00  0.00     0.029 C 
HETATM    7  C   UNL     1      23.963  46.756  49.417  1.00  0.00     0.235 C 
ENDROOT
BRANCH   1   8
HETATM    8  C   UNL     1      25.315  48.815  48.891  1.00  0.00     0.313 C 
BRANCH   8   9
HETATM    9  C   UNL     1      23.950  49.411  48.877  1.00  0.00     0.131 A 
HETATM   10  N   UNL     1      23.355  49.940  49.930  1.00  0.00    -0.232 NA
HETATM   11  C   UNL     1      22.115  50.337  49.485  1.00  0.00     0.085 A 
HETATM   12  C   UNL     1      21.970  50.071  48.128  1.00  0.00     0.062 A 
HETATM   13  C   UNL     1      21.056  50.930  50.186  1.00  0.00     0.034 A 
HETATM   14  C   UNL     1      20.814  50.377  47.408  1.00  0.00     0.032 A 
HETATM   15  N   UNL     1      23.155  49.486  47.760  1.00  0.00    -0.341 N 
HETATM   16  C   UNL     1      19.767  50.969  48.122  1.00  0.00     0.002 A 
HETATM   17  C   UNL     1      19.881  51.240  49.488  1.00  0.00     0.002 A 
HETATM   18  H   UNL     1      23.376  49.166  46.826  1.00  0.00     0.167 HD
ENDBRANCH   8   9
ENDBRANCH   1   8
BRANCH   4  19
HETATM   19  C   UNL     1      26.261  46.246  53.058  1.00  0.00     0.165 C 
HETATM   20  O   UNL     1      25.671  47.039  53.792  1.00  0.00    -0.292 OA
BRANCH  19  21
HETATM   21  C   UNL     1      27.369  45.409  53.615  1.00  0.00     0.012 A 
HETATM   22  C   UNL     1      28.033  45.877  54.757  1.00  0.00     0.039 A 
HETATM   23  C   UNL     1      29.075  45.137  55.314  1.00  0.00     0.035 A 
HETATM   24 CL   UNL     1      29.889  45.724  56.711  1.00  0.00    -0.084 Cl
HETATM   25  C   UNL     1      29.464  43.927  54.746  1.00  0.00     0.024 A 
HETATM   26  C   UNL     1      28.808  43.454  53.611  1.00  0.00     0.003 A 
HETATM   27  C   UNL     1      27.765  44.191  53.044  1.00  0.00     0.015 A 
ENDBRANCH  19  21
ENDBRANCH   4  19
TORSDOF 4
ENDMDL
MODEL 9
REMARK VINA RESULT:      -9.1      9.068     12.805
REMARK  4 active torsions:
REMARK  status: ('A' for Active; 'I' for Inactive)
REMARK    1  A    between atoms: C_6  and  C_7 
REMARK    2  A    between atoms: C_7  and  N_8 
REMARK    3  A    between atoms: C_11  and  C_12 
REMARK    4  A    between atoms: C_12  and  C_13 
ROOT
HETATM    1  N   UNL     1      16.334  52.534  49.037  1.00  0.00    -0.064 N 
HETATM    2  H   UNL     1      16.767  53.473  49.056  1.00  0.00     0.280 HD
HETATM    3  C   UNL     1      17.291  51.616  49.774  1.00  0.00     0.247 C 
HETATM    4  C   UNL     1      18.643  51.603  49.053  1.00  0.00     0.086 C 
HETATM    5  C   UNL     1      18.456  51.169  47.597  1.00  0.00     0.016 C 
HETATM    6  C   UNL     1      17.439  52.056  46.884  1.00  0.00     0.029 C 
HETATM    7  C   UNL     1      16.107  52.111  47.619  1.00  0.00     0.235 C 
ENDROOT
BRANCH   1   8
HETATM    8  C   UNL     1      15.042  52.752  49.810  1.00  0.00     0.313 C 
BRANCH   8   9
HETATM    9  C   UNL     1      15.075  54.083  50.477  1.00  0.00     0.131 A 
HETATM   10  N   UNL     1      15.088  55.238  49.838  1.00  0.00    -0.232 NA
HETATM   11  C   UNL     1      15.147  56.198  50.823  1.00  0.00     0.085 A 
HETATM   12  C   UNL     1      15.138  55.610  52.084  1.00  0.00     0.062 A 
HETATM   13  C   UNL     1      15.216  57.593  50.717  1.00  0.00     0.034 A 
HETATM   14  C   UNL     1      15.182  56.343  53.270  1.00  0.00     0.032 A 
HETATM   15  N   UNL     1      15.085  54.261  51.838  1.00  0.00    -0.341 N 
HETATM   16  C   UNL     1      15.249  57.736  53.146  1.00  0.00     0.002 A 
HETATM   17  C   UNL     1      15.269  58.353  51.893  1.00  0.00     0.002 A 
HETATM   18  H   UNL     1      15.067  53.544  52.551  1.00  0.00     0.167 HD
ENDBRANCH   8   9
ENDBRANCH   1   8
BRANCH   4  19
HETATM   19  C   UNL     1      19.559  50.639  49.790  1.00  0.00     0.165 C 
HETATM   20  O   UNL     1      19.193  50.137  50.852  1.00  0.00    -0.292 OA
BRANCH  19  21
HETATM   21  C   UNL     1      20.904  50.293  49.234  1.00  0.00     0.012 A 
HETATM   22  C   UNL     1      21.271  48.940  49.201  1.00  0.00     0.039 A 
HETATM   23  C   UNL     1      22.514  48.564  48.696  1.00  0.00     0.035 A 
HETATM   24 CL   UNL     1      22.957  46.902  48.667  1.00  0.00    -0.084 Cl
HETATM   25  C   UNL     1      23.402  49.524  48.218  1.00  0.00     0.024 A 
HETATM   26  C   UNL     1      23.045  50.870  48.247  1.00  0.00     0.003 A 
HETATM   27  C   UNL     1      21.802  51.257  48.754  1.00  0.00     0.015 A 
ENDBRANCH  19  21
ENDBRANCH   4  19
TORSDOF 4
ENDMDL
MODEL 10
REMARK VINA RESULT:      -9.1      3.540      5.776
REMARK  4 active torsions:
REMARK  status: ('A' for Active; 'I' for Inactive)
REMARK    1  A    between atoms: C_6  and  C_7 
REMARK    2  A    between atoms: C_7  and  N_8 
REMARK    3  A    between atoms: C_11  and  C_12 
REMARK    4  A    between atoms: C_12  and  C_13 
ROOT
HETATM    1  N   UNL     1      23.248  47.990  49.284  1.00  0.00    -0.064 N 
HETATM    2  H   UNL     1      23.022  48.494  50.158  1.00  0.00     0.280 HD
HETATM    3  C   UNL     1      24.114  46.812  49.692  1.00  0.00     0.247 C 
HETATM    4  C   UNL     1      25.390  47.326  50.366  1.00  0.00     0.086 C 
HETATM    5  C   UNL     1      26.136  48.272  49.421  1.00  0.00     0.016 C 
HETATM    6  C   UNL     1      25.235  49.416  48.962  1.00  0.00     0.029 C 
HETATM    7  C   UNL     1      23.943  48.914  48.332  1.00  0.00     0.235 C 
ENDROOT
BRANCH   1   8
HETATM    8  C   UNL     1      21.877  47.549  48.795  1.00  0.00     0.313 C 
BRANCH   8   9
HETATM    9  C   UNL     1      20.974  48.730  48.701  1.00  0.00     0.131 A 
HETATM   10  N   UNL     1      20.371  49.122  47.594  1.00  0.00    -0.232 NA
HETATM   11  C   UNL     1      19.668  50.252  47.944  1.00  0.00     0.085 A 
HETATM   12  C   UNL     1      19.826  50.531  49.297  1.00  0.00     0.062 A 
HETATM   13  C   UNL     1      18.875  51.098  47.156  1.00  0.00     0.034 A 
HETATM   14  C   UNL     1      19.220  51.617  49.931  1.00  0.00     0.032 A 
HETATM   15  N   UNL     1      20.658  49.543  49.761  1.00  0.00    -0.341 N 
HETATM   16  C   UNL     1      18.431  52.450  49.130  1.00  0.00     0.002 A 
HETATM   17  C   UNL     1      18.261  52.200  47.766  1.00  0.00     0.002 A 
HETATM   18  H   UNL     1      20.976  49.457  50.717  1.00  0.00     0.167 HD
ENDBRANCH   8   9
ENDBRANCH   1   8
BRANCH   4  19
HETATM   19  C   UNL     1      26.252  46.124  50.716  1.00  0.00     0.165 C 
HETATM   20  O   UNL     1      26.720  45.423  49.819  1.00  0.00    -0.292 OA
BRANCH  19  21
HETATM   21  C   UNL     1      26.538  45.784  52.145  1.00  0.00     0.012 A 
HETATM   22  C   UNL     1      27.110  44.533  52.418  1.00  0.00     0.039 A 
HETATM   23  C   UNL     1      27.392  44.165  53.733  1.00  0.00     0.035 A 
HETATM   24 CL   UNL     1      28.086  42.626  54.059  1.00  0.00    -0.084 Cl
HETATM   25  C   UNL     1      27.115  45.034  54.785  1.00  0.00     0.024 A 
HETATM   26  C   UNL     1      26.548  46.280  54.521  1.00  0.00     0.003 A 
HETATM   27  C   UNL     1      26.258  46.655  53.206  1.00  0.00     0.015 A 
ENDBRANCH  19  21
ENDBRANCH   4  19
TORSDOF 4
ENDMDL
