MODEL 1
REMARK VINA RESULT:     -10.3      0.000      0.000
REMARK  7 active torsions:
REMARK  status: ('A' for Active; 'I' for Inactive)
REMARK    1  A    between atoms: C_3  and  N_4 
REMARK       I    between atoms: N_4  and  C_5 
REMARK       I    between atoms: C_5  and  N_6 
REMARK       I    between atoms: N_6  and  C_7 
REMARK    2  A    between atoms: C_7  and  C_8 
REMARK    3  A    between atoms: C_8  and  S_9 
REMARK    4  A    between atoms: S_9  and  C_10 
REMARK    5  A    between atoms: N_11  and  C_12 
REMARK    6  A    between atoms: C_19  and  C_20 
REMARK    7  A    between atoms: C_20  and  N_21 
ROOT
HETATM    1  C   UNL     1      25.075  46.881  50.282  1.00  0.00     0.196 A 
HETATM    2  N   UNL     1      24.001  46.411  49.547  1.00  0.00    -0.274 N 
HETATM    3  C   UNL     1      23.332  47.566  49.165  1.00  0.00     0.161 A 
HETATM    4  N   UNL     1      23.976  48.627  49.610  1.00  0.00    -0.132 NA
HETATM    5  N   UNL     1      25.073  48.195  50.301  1.00  0.00    -0.122 NA
ENDROOT
BRANCH   1   6
HETATM    6  S   UNL     1      26.337  45.884  50.919  1.00  0.00    -0.080 SA
BRANCH   6   7
HETATM    7  C   UNL     1      25.767  45.636  52.629  1.00  0.00     0.185 C 
BRANCH   7   8
HETATM    8  C   UNL     1      26.050  46.848  53.512  1.00  0.00     0.235 C 
HETATM    9  N   UNL     1      27.042  46.748  54.469  1.00  0.00    -0.278 N 
HETATM   10  C   UNL     1      27.754  45.628  54.876  1.00  0.00     0.327 C 
HETATM   11  H   UNL     1      27.181  47.602  54.984  1.00  0.00     0.173 HD
HETATM   12  N   UNL     1      28.755  45.961  55.763  1.00  0.00    -0.306 N 
HETATM   13  O   UNL     1      27.506  44.502  54.469  1.00  0.00    -0.247 OA
HETATM   14  H   UNL     1      28.745  46.883  56.183  1.00  0.00     0.171 HD
HETATM   15  O   UNL     1      25.431  47.915  53.437  1.00  0.00    -0.272 OA
BRANCH  12  16
HETATM   16  C   UNL     1      29.786  45.124  56.247  1.00  0.00     0.075 A 
HETATM   17  C   UNL     1      30.372  44.089  55.518  1.00  0.00     0.033 A 
HETATM   18  C   UNL     1      31.416  43.339  56.075  1.00  0.00     0.002 A 
HETATM   19  C   UNL     1      31.878  43.613  57.363  1.00  0.00     0.003 A 
HETATM   20  C   UNL     1      31.300  44.643  58.100  1.00  0.00     0.044 A 
HETATM   21  C   UNL     1      30.268  45.387  57.537  1.00  0.00     0.143 A 
HETATM   22  F   UNL     1      29.721  46.386  58.249  1.00  0.00    -0.204 F 
ENDBRANCH  12  16
ENDBRANCH   7   8
ENDBRANCH   6   7
ENDBRANCH   1   6
BRANCH   2  23
HETATM   23  C   UNL     1      23.622  45.076  49.262  1.00  0.00     0.043 A 
HETATM   24  C   UNL     1      23.652  44.599  47.943  1.00  0.00     0.033 A 
HETATM   25  C   UNL     1      23.290  43.277  47.676  1.00  0.00     0.044 A 
HETATM   26  C   UNL     1      22.894  42.447  48.717  1.00  0.00     0.116 A 
HETATM   27  F   UNL     1      22.546  41.181  48.458  1.00  0.00    -0.206 F 
HETATM   28  C   UNL     1      22.850  42.913  50.027  1.00  0.00     0.044 A 
HETATM   29  C   UNL     1      23.213  44.232  50.305  1.00  0.00     0.033 A 
ENDBRANCH   2  23
BRANCH   3  30
HETATM   30  C   UNL     1      21.985  47.623  48.540  1.00  0.00     0.315 C 
BRANCH  30  31
HETATM   31  N   UNL     1      21.233  48.886  48.948  1.00  0.00    -0.064 N 
HETATM   32  H   UNL     1      21.805  49.290  49.710  1.00  0.00     0.280 HD
HETATM   33  C   UNL     1      21.218  49.914  47.840  1.00  0.00     0.235 C 
HETATM   34  C   UNL     1      20.567  51.195  48.339  1.00  0.00     0.028 C 
HETATM   35  C   UNL     1      19.172  50.937  48.896  1.00  0.00     0.003 C 
HETATM   36  C   UNL     1      19.209  49.869  49.982  1.00  0.00     0.028 C 
HETATM   37  C   UNL     1      19.864  48.586  49.491  1.00  0.00     0.235 C 
ENDBRANCH  30  31
ENDBRANCH   3  30
TORSDOF 7
ENDMDL
MODEL 2
REMARK VINA RESULT:     -10.2      3.740     10.007
REMARK  7 active torsions:
REMARK  status: ('A' for Active; 'I' for Inactive)
REMARK    1  A    between atoms: C_3  and  N_4 
REMARK       I    between atoms: N_4  and  C_5 
REMARK       I    between atoms: C_5  and  N_6 
REMARK       I    between atoms: N_6  and  C_7 
REMARK    2  A    between atoms: C_7  and  C_8 
REMARK    3  A    between atoms: C_8  and  S_9 
REMARK    4  A    between atoms: S_9  and  C_10 
REMARK    5  A    between atoms: N_11  and  C_12 
REMARK    6  A    between atoms: C_19  and  C_20 
REMARK    7  A    between atoms: C_20  and  N_21 
ROOT
HETATM    1  C   UNL     1      24.287  44.915  50.283  1.00  0.00     0.196 A 
HETATM    2  N   UNL     1      25.040  45.970  50.765  1.00  0.00    -0.274 N 
HETATM    3  C   UNL     1      25.131  45.717  52.126  1.00  0.00     0.161 A 
HETATM    4  N   UNL     1      24.512  44.589  52.417  1.00  0.00    -0.132 NA
HETATM    5  N   UNL     1      23.992  44.084  51.258  1.00  0.00    -0.122 NA
ENDROOT
BRANCH   1   6
HETATM    6  S   UNL     1      23.948  44.636  48.610  1.00  0.00    -0.080 SA
BRANCH   6   7
HETATM    7  C   UNL     1      22.712  45.928  48.275  1.00  0.00     0.185 C 
BRANCH   7   8
HETATM    8  C   UNL     1      21.296  45.475  48.623  1.00  0.00     0.235 C 
HETATM    9  N   UNL     1      20.319  46.438  48.785  1.00  0.00    -0.278 N 
HETATM   10  C   UNL     1      20.451  47.818  48.831  1.00  0.00     0.327 C 
HETATM   11  H   UNL     1      19.411  46.049  48.983  1.00  0.00     0.173 HD
HETATM   12  N   UNL     1      19.222  48.442  48.871  1.00  0.00    -0.306 N 
HETATM   13  O   UNL     1      21.537  48.381  48.823  1.00  0.00    -0.247 OA
HETATM   14  H   UNL     1      18.401  47.885  49.075  1.00  0.00     0.171 HD
HETATM   15  O   UNL     1      20.972  44.294  48.788  1.00  0.00    -0.272 OA
BRANCH  12  16
HETATM   16  C   UNL     1      18.958  49.825  48.744  1.00  0.00     0.075 A 
HETATM   17  C   UNL     1      18.715  50.476  47.534  1.00  0.00     0.033 A 
HETATM   18  C   UNL     1      18.425  51.846  47.519  1.00  0.00     0.002 A 
HETATM   19  C   UNL     1      18.379  52.576  48.707  1.00  0.00     0.003 A 
HETATM   20  C   UNL     1      18.620  51.936  49.921  1.00  0.00     0.044 A 
HETATM   21  C   UNL     1      18.901  50.574  49.928  1.00  0.00     0.143 A 
HETATM   22  F   UNL     1      19.124  49.961  51.102  1.00  0.00    -0.204 F 
ENDBRANCH  12  16
ENDBRANCH   7   8
ENDBRANCH   6   7
ENDBRANCH   1   6
BRANCH   2  23
HETATM   23  C   UNL     1      25.577  47.083  50.070  1.00  0.00     0.043 A 
HETATM   24  C   UNL     1      26.942  47.126  49.753  1.00  0.00     0.033 A 
HETATM   25  C   UNL     1      27.456  48.221  49.055  1.00  0.00     0.044 A 
HETATM   26  C   UNL     1      26.614  49.263  48.689  1.00  0.00     0.116 A 
HETATM   27  F   UNL     1      27.111  50.312  48.022  1.00  0.00    -0.206 F 
HETATM   28  C   UNL     1      25.261  49.236  49.009  1.00  0.00     0.044 A 
HETATM   29  C   UNL     1      24.736  48.144  49.703  1.00  0.00     0.033 A 
ENDBRANCH   2  23
BRANCH   3  30
HETATM   30  C   UNL     1      25.650  46.658  53.153  1.00  0.00     0.315 C 
BRANCH  30  31
HETATM   31  N   UNL     1      26.616  45.966  54.109  1.00  0.00    -0.064 N 
HETATM   32  H   UNL     1      26.007  45.398  54.722  1.00  0.00     0.280 HD
HETATM   33  C   UNL     1      27.518  44.990  53.388  1.00  0.00     0.235 C 
HETATM   34  C   UNL     1      28.372  44.240  54.399  1.00  0.00     0.028 C 
HETATM   35  C   UNL     1      29.160  45.195  55.287  1.00  0.00     0.003 C 
HETATM   36  C   UNL     1      28.234  46.193  55.970  1.00  0.00     0.028 C 
HETATM   37  C   UNL     1      27.372  46.943  54.965  1.00  0.00     0.235 C 
ENDBRANCH  30  31
ENDBRANCH   3  30
TORSDOF 7
ENDMDL
MODEL 3
REMARK VINA RESULT:     -10.1      3.290      4.776
REMARK  7 active torsions:
REMARK  status: ('A' for Active; 'I' for Inactive)
REMARK    1  A    between atoms: C_3  and  N_4 
REMARK       I    between atoms: N_4  and  C_5 
REMARK       I    between atoms: C_5  and  N_6 
REMARK       I    between atoms: N_6  and  C_7 
REMARK    2  A    between atoms: C_7  and  C_8 
REMARK    3  A    between atoms: C_8  and  S_9 
REMARK    4  A    between atoms: S_9  and  C_10 
REMARK    5  A    between atoms: N_11  and  C_12 
REMARK    6  A    between atoms: C_19  and  C_20 
REMARK    7  A    between atoms: C_20  and  N_21 
ROOT
HETATM    1  C   UNL     1      22.541  46.544  48.642  1.00  0.00     0.196 A 
HETATM    2  N   UNL     1      23.013  47.819  48.892  1.00  0.00    -0.274 N 
HETATM    3  C   UNL     1      21.860  48.584  48.997  1.00  0.00     0.161 A 
HETATM    4  N   UNL     1      20.796  47.817  48.854  1.00  0.00    -0.132 NA
HETATM    5  N   UNL     1      21.226  46.538  48.642  1.00  0.00    -0.122 NA
ENDROOT
BRANCH   1   6
HETATM    6  S   UNL     1      23.536  45.133  48.537  1.00  0.00    -0.080 SA
BRANCH   6   7
HETATM    7  C   UNL     1      23.484  44.530  50.253  1.00  0.00     0.185 C 
BRANCH   7   8
HETATM    8  C   UNL     1      23.594  43.010  50.333  1.00  0.00     0.235 C 
HETATM    9  N   UNL     1      24.705  42.462  50.945  1.00  0.00    -0.278 N 
HETATM   10  C   UNL     1      25.859  43.093  51.388  1.00  0.00     0.327 C 
HETATM   11  H   UNL     1      24.680  41.456  50.980  1.00  0.00     0.173 HD
HETATM   12  N   UNL     1      26.682  42.221  52.069  1.00  0.00    -0.306 N 
HETATM   13  O   UNL     1      26.082  44.280  51.192  1.00  0.00    -0.247 OA
HETATM   14  H   UNL     1      26.499  41.227  52.000  1.00  0.00     0.171 HD
HETATM   15  O   UNL     1      22.755  42.232  49.865  1.00  0.00    -0.272 OA
BRANCH  12  16
HETATM   16  C   UNL     1      27.843  42.539  52.810  1.00  0.00     0.075 A 
HETATM   17  C   UNL     1      29.148  42.354  52.353  1.00  0.00     0.033 A 
HETATM   18  C   UNL     1      30.234  42.738  53.151  1.00  0.00     0.002 A 
HETATM   19  C   UNL     1      30.025  43.304  54.410  1.00  0.00     0.003 A 
HETATM   20  C   UNL     1      28.726  43.492  54.876  1.00  0.00     0.044 A 
HETATM   21  C   UNL     1      27.654  43.114  54.074  1.00  0.00     0.143 A 
HETATM   22  F   UNL     1      26.403  43.307  54.526  1.00  0.00    -0.204 F 
ENDBRANCH  12  16
ENDBRANCH   7   8
ENDBRANCH   6   7
ENDBRANCH   1   6
BRANCH   2  23
HETATM   23  C   UNL     1      24.350  48.280  48.988  1.00  0.00     0.043 A 
HETATM   24  C   UNL     1      25.253  47.654  49.860  1.00  0.00     0.033 A 
HETATM   25  C   UNL     1      26.571  48.108  49.935  1.00  0.00     0.044 A 
HETATM   26  C   UNL     1      26.976  49.182  49.153  1.00  0.00     0.116 A 
HETATM   27  F   UNL     1      28.240  49.617  49.230  1.00  0.00    -0.206 F 
HETATM   28  C   UNL     1      26.086  49.819  48.295  1.00  0.00     0.044 A 
HETATM   29  C   UNL     1      24.767  49.370  48.209  1.00  0.00     0.033 A 
ENDBRANCH   2  23
BRANCH   3  30
HETATM   30  C   UNL     1      21.803  50.068  49.044  1.00  0.00     0.315 C 
BRANCH  30  31
HETATM   31  N   UNL     1      20.365  50.575  48.989  1.00  0.00    -0.064 N 
HETATM   32  H   UNL     1      19.892  49.930  48.332  1.00  0.00     0.280 HD
HETATM   33  C   UNL     1      19.662  50.418  50.317  1.00  0.00     0.235 C 
HETATM   34  C   UNL     1      18.202  50.819  50.175  1.00  0.00     0.028 C 
HETATM   35  C   UNL     1      18.060  52.231  49.619  1.00  0.00     0.003 C 
HETATM   36  C   UNL     1      18.810  52.375  48.301  1.00  0.00     0.028 C 
HETATM   37  C   UNL     1      20.270  51.969  48.435  1.00  0.00     0.235 C 
ENDBRANCH  30  31
ENDBRANCH   3  30
TORSDOF 7
ENDMDL
MODEL 4
REMARK VINA RESULT:     -10.0      3.024      9.972
REMARK  7 active torsions:
REMARK  status: ('A' for Active; 'I' for Inactive)
REMARK    1  A    between atoms: C_3  and  N_4 
REMARK       I    between atoms: N_4  and  C_5 
REMARK       I    between atoms: C_5  and  N_6 
REMARK       I    between atoms: N_6  and  C_7 
REMARK    2  A    between atoms: C_7  and  C_8 
REMARK    3  A    between atoms: C_8  and  S_9 
REMARK    4  A    between atoms: S_9  and  C_10 
REMARK    5  A    between atoms: N_11  and  C_12 
REMARK    6  A    between atoms: C_19  and  C_20 
REMARK    7  A    between atoms: C_20  and  N_21 
ROOT
HETATM    1  C   UNL     1      26.147  46.778  51.264  1.00  0.00     0.196 A 
HETATM    2  N   UNL     1      26.180  45.547  51.893  1.00  0.00    -0.274 N 
HETATM    3  C   UNL     1      26.292  45.867  53.239  1.00  0.00     0.161 A 
HETATM    4  N   UNL     1      26.291  47.177  53.392  1.00  0.00    -0.132 NA
HETATM    5  N   UNL     1      26.191  47.744  52.153  1.00  0.00    -0.122 NA
ENDROOT
BRANCH   1   6
HETATM    6  S   UNL     1      25.893  47.004  49.568  1.00  0.00    -0.080 SA
BRANCH   6   7
HETATM    7  C   UNL     1      24.316  47.910  49.561  1.00  0.00     0.185 C 
BRANCH   7   8
HETATM    8  C   UNL     1      23.139  47.014  49.183  1.00  0.00     0.235 C 
HETATM    9  N   UNL     1      21.889  47.589  49.054  1.00  0.00    -0.278 N 
HETATM   10  C   UNL     1      21.483  48.878  49.371  1.00  0.00     0.327 C 
HETATM   11  H   UNL     1      21.180  46.932  48.774  1.00  0.00     0.173 HD
HETATM   12  N   UNL     1      20.184  49.111  48.972  1.00  0.00    -0.306 N 
HETATM   13  O   UNL     1      22.216  49.686  49.925  1.00  0.00    -0.247 OA
HETATM   14  H   UNL     1      19.609  48.320  48.708  1.00  0.00     0.171 HD
HETATM   15  O   UNL     1      23.231  45.795  49.001  1.00  0.00    -0.272 OA
BRANCH  12  16
HETATM   16  C   UNL     1      19.498  50.347  48.964  1.00  0.00     0.075 A 
HETATM   17  C   UNL     1      19.749  51.384  48.065  1.00  0.00     0.033 A 
HETATM   18  C   UNL     1      18.986  52.558  48.116  1.00  0.00     0.002 A 
HETATM   19  C   UNL     1      17.972  52.706  49.063  1.00  0.00     0.003 A 
HETATM   20  C   UNL     1      17.713  51.676  49.965  1.00  0.00     0.044 A 
HETATM   21  C   UNL     1      18.472  50.512  49.904  1.00  0.00     0.143 A 
HETATM   22  F   UNL     1      18.211  49.518  50.770  1.00  0.00    -0.204 F 
ENDBRANCH  12  16
ENDBRANCH   7   8
ENDBRANCH   6   7
ENDBRANCH   1   6
BRANCH   2  23
HETATM   23  C   UNL     1      26.147  44.247  51.329  1.00  0.00     0.043 A 
HETATM   24  C   UNL     1      24.933  43.553  51.224  1.00  0.00     0.033 A 
HETATM   25  C   UNL     1      24.910  42.279  50.653  1.00  0.00     0.044 A 
HETATM   26  C   UNL     1      26.092  41.704  50.202  1.00  0.00     0.116 A 
HETATM   27  F   UNL     1      26.067  40.482  49.657  1.00  0.00    -0.206 F 
HETATM   28  C   UNL     1      27.303  42.379  50.312  1.00  0.00     0.044 A 
HETATM   29  C   UNL     1      27.336  43.654  50.878  1.00  0.00     0.033 A 
ENDBRANCH   2  23
BRANCH   3  30
HETATM   30  C   UNL     1      26.587  44.911  54.338  1.00  0.00     0.315 C 
BRANCH  30  31
HETATM   31  N   UNL     1      28.088  44.743  54.545  1.00  0.00    -0.064 N 
HETATM   32  H   UNL     1      28.515  45.281  53.772  1.00  0.00     0.280 HD
HETATM   33  C   UNL     1      28.556  45.397  55.825  1.00  0.00     0.235 C 
HETATM   34  C   UNL     1      30.072  45.310  55.921  1.00  0.00     0.028 C 
HETATM   35  C   UNL     1      30.559  43.870  55.806  1.00  0.00     0.003 C 
HETATM   36  C   UNL     1      30.041  43.220  54.529  1.00  0.00     0.028 C 
HETATM   37  C   UNL     1      28.526  43.310  54.424  1.00  0.00     0.235 C 
ENDBRANCH  30  31
ENDBRANCH   3  30
TORSDOF 7
ENDMDL
MODEL 5
REMARK VINA RESULT:      -9.4      2.789      3.426
REMARK  7 active torsions:
REMARK  status: ('A' for Active; 'I' for Inactive)
REMARK    1  A    between atoms: C_3  and  N_4 
REMARK       I    between atoms: N_4  and  C_5 
REMARK       I    between atoms: C_5  and  N_6 
REMARK       I    between atoms: N_6  and  C_7 
REMARK    2  A    between atoms: C_7  and  C_8 
REMARK    3  A    between atoms: C_8  and  S_9 
REMARK    4  A    between atoms: S_9  and  C_10 
REMARK    5  A    between atoms: N_11  and  C_12 
REMARK    6  A    between atoms: C_19  and  C_20 
REMARK    7  A    between atoms: C_20  and  N_21 
ROOT
HETATM    1  C   UNL     1      23.165  45.985  48.636  1.00  0.00     0.196 A 
HETATM    2  N   UNL     1      22.107  46.252  47.787  1.00  0.00    -0.274 N 
HETATM    3  C   UNL     1      21.773  47.568  48.080  1.00  0.00     0.161 A 
HETATM    4  N   UNL     1      22.587  48.045  49.001  1.00  0.00    -0.132 NA
HETATM    5  N   UNL     1      23.465  47.054  49.340  1.00  0.00    -0.122 NA
ENDROOT
BRANCH   1   6
HETATM    6  S   UNL     1      24.079  44.516  48.631  1.00  0.00    -0.080 SA
BRANCH   6   7
HETATM    7  C   UNL     1      24.984  44.653  50.203  1.00  0.00     0.185 C 
BRANCH   7   8
HETATM    8  C   UNL     1      24.530  43.610  51.221  1.00  0.00     0.235 C 
HETATM    9  N   UNL     1      25.348  43.349  52.304  1.00  0.00    -0.278 N 
HETATM   10  C   UNL     1      26.640  43.791  52.551  1.00  0.00     0.327 C 
HETATM   11  H   UNL     1      24.957  42.672  52.939  1.00  0.00     0.173 HD
HETATM   12  N   UNL     1      27.069  43.421  53.807  1.00  0.00    -0.306 N 
HETATM   13  O   UNL     1      27.285  44.437  51.737  1.00  0.00    -0.247 OA
HETATM   14  H   UNL     1      26.538  42.725  54.316  1.00  0.00     0.171 HD
HETATM   15  O   UNL     1      23.479  42.967  51.128  1.00  0.00    -0.272 OA
BRANCH  12  16
HETATM   16  C   UNL     1      28.246  43.841  54.470  1.00  0.00     0.075 A 
HETATM   17  C   UNL     1      28.401  45.077  55.098  1.00  0.00     0.033 A 
HETATM   18  C   UNL     1      29.596  45.383  55.762  1.00  0.00     0.002 A 
HETATM   19  C   UNL     1      30.644  44.462  55.799  1.00  0.00     0.003 A 
HETATM   20  C   UNL     1      30.499  43.225  55.175  1.00  0.00     0.044 A 
HETATM   21  C   UNL     1      29.307  42.927  54.524  1.00  0.00     0.143 A 
HETATM   22  F   UNL     1      29.170  41.729  53.931  1.00  0.00    -0.204 F 
ENDBRANCH  12  16
ENDBRANCH   7   8
ENDBRANCH   6   7
ENDBRANCH   1   6
BRANCH   2  23
HETATM   23  C   UNL     1      21.465  45.401  46.854  1.00  0.00     0.043 A 
HETATM   24  C   UNL     1      20.334  44.663  47.230  1.00  0.00     0.033 A 
HETATM   25  C   UNL     1      19.702  43.839  46.297  1.00  0.00     0.044 A 
HETATM   26  C   UNL     1      20.204  43.748  45.005  1.00  0.00     0.116 A 
HETATM   27  F   UNL     1      19.598  42.956  44.114  1.00  0.00    -0.206 F 
HETATM   28  C   UNL     1      21.333  44.466  44.624  1.00  0.00     0.044 A 
HETATM   29  C   UNL     1      21.970  45.296  45.549  1.00  0.00     0.033 A 
ENDBRANCH   2  23
BRANCH   3  30
HETATM   30  C   UNL     1      20.558  48.282  47.607  1.00  0.00     0.315 C 
BRANCH  30  31
HETATM   31  N   UNL     1      20.245  49.492  48.481  1.00  0.00    -0.064 N 
HETATM   32  H   UNL     1      21.105  49.636  49.037  1.00  0.00     0.280 HD
HETATM   33  C   UNL     1      20.058  50.746  47.659  1.00  0.00     0.235 C 
HETATM   34  C   UNL     1      19.872  51.941  48.582  1.00  0.00     0.028 C 
HETATM   35  C   UNL     1      18.723  51.723  49.559  1.00  0.00     0.003 C 
HETATM   36  C   UNL     1      18.914  50.432  50.346  1.00  0.00     0.028 C 
HETATM   37  C   UNL     1      19.106  49.234  49.428  1.00  0.00     0.235 C 
ENDBRANCH  30  31
ENDBRANCH   3  30
TORSDOF 7
ENDMDL
MODEL 6
REMARK VINA RESULT:      -9.2      3.459      5.544
REMARK  7 active torsions:
REMARK  status: ('A' for Active; 'I' for Inactive)
REMARK    1  A    between atoms: C_3  and  N_4 
REMARK       I    between atoms: N_4  and  C_5 
REMARK       I    between atoms: C_5  and  N_6 
REMARK       I    between atoms: N_6  and  C_7 
REMARK    2  A    between atoms: C_7  and  C_8 
REMARK    3  A    between atoms: C_8  and  S_9 
REMARK    4  A    between atoms: S_9  and  C_10 
REMARK    5  A    between atoms: N_11  and  C_12 
REMARK    6  A    between atoms: C_19  and  C_20 
REMARK    7  A    between atoms: C_20  and  N_21 
ROOT
HETATM    1  C   UNL     1      21.996  47.231  47.678  1.00  0.00     0.196 A 
HETATM    2  N   UNL     1      20.826  47.953  47.527  1.00  0.00    -0.274 N 
HETATM    3  C   UNL     1      20.195  47.339  46.454  1.00  0.00     0.161 A 
HETATM    4  N   UNL     1      20.918  46.320  46.029  1.00  0.00    -0.132 NA
HETATM    5  N   UNL     1      22.041  46.250  46.804  1.00  0.00    -0.122 NA
ENDROOT
BRANCH   1   6
HETATM    6  S   UNL     1      23.139  47.472  48.953  1.00  0.00    -0.080 SA
BRANCH   6   7
HETATM    7  C   UNL     1      24.003  45.871  48.967  1.00  0.00     0.185 C 
BRANCH   7   8
HETATM    8  C   UNL     1      23.412  44.906  49.992  1.00  0.00     0.235 C 
HETATM    9  N   UNL     1      24.007  44.823  51.236  1.00  0.00    -0.278 N 
HETATM   10  C   UNL     1      25.196  45.388  51.676  1.00  0.00     0.327 C 
HETATM   11  H   UNL     1      23.535  44.186  51.857  1.00  0.00     0.173 HD
HETATM   12  N   UNL     1      25.382  45.185  53.027  1.00  0.00    -0.306 N 
HETATM   13  O   UNL     1      25.955  45.997  50.934  1.00  0.00    -0.247 OA
HETATM   14  H   UNL     1      24.799  44.505  53.500  1.00  0.00     0.171 HD
HETATM   15  O   UNL     1      22.440  44.177  49.770  1.00  0.00    -0.272 OA
BRANCH  12  16
HETATM   16  C   UNL     1      26.374  45.762  53.852  1.00  0.00     0.075 A 
HETATM   17  C   UNL     1      26.481  47.126  54.125  1.00  0.00     0.033 A 
HETATM   18  C   UNL     1      27.479  47.594  54.989  1.00  0.00     0.002 A 
HETATM   19  C   UNL     1      28.379  46.707  55.582  1.00  0.00     0.003 A 
HETATM   20  C   UNL     1      28.282  45.344  55.316  1.00  0.00     0.044 A 
HETATM   21  C   UNL     1      27.284  44.886  54.462  1.00  0.00     0.143 A 
HETATM   22  F   UNL     1      27.189  43.569  54.217  1.00  0.00    -0.204 F 
ENDBRANCH  12  16
ENDBRANCH   7   8
ENDBRANCH   6   7
ENDBRANCH   1   6
BRANCH   2  23
HETATM   23  C   UNL     1      20.364  49.079  48.253  1.00  0.00     0.043 A 
HETATM   24  C   UNL     1      20.649  50.376  47.803  1.00  0.00     0.033 A 
HETATM   25  C   UNL     1      20.176  51.477  48.518  1.00  0.00     0.044 A 
HETATM   26  C   UNL     1      19.435  51.280  49.677  1.00  0.00     0.116 A 
HETATM   27  F   UNL     1      18.985  52.338  50.362  1.00  0.00    -0.206 F 
HETATM   28  C   UNL     1      19.157  49.998  50.140  1.00  0.00     0.044 A 
HETATM   29  C   UNL     1      19.623  48.890  49.429  1.00  0.00     0.033 A 
ENDBRANCH   2  23
BRANCH   3  30
HETATM   30  C   UNL     1      19.002  47.856  45.735  1.00  0.00     0.315 C 
BRANCH  30  31
HETATM   31  N   UNL     1      17.952  48.387  46.706  1.00  0.00    -0.064 N 
HETATM   32  H   UNL     1      18.494  48.675  47.538  1.00  0.00     0.280 HD
HETATM   33  C   UNL     1      17.284  49.638  46.182  1.00  0.00     0.235 C 
HETATM   34  C   UNL     1      16.339  50.194  47.237  1.00  0.00     0.028 C 
HETATM   35  C   UNL     1      15.323  49.152  47.687  1.00  0.00     0.003 C 
HETATM   36  C   UNL     1      16.019  47.886  48.172  1.00  0.00     0.028 C 
HETATM   37  C   UNL     1      16.970  47.328  47.123  1.00  0.00     0.235 C 
ENDBRANCH  30  31
ENDBRANCH   3  30
TORSDOF 7
ENDMDL
MODEL 7
REMARK VINA RESULT:      -9.1      4.736      8.314
REMARK  7 active torsions:
REMARK  status: ('A' for Active; 'I' for Inactive)
REMARK    1  A    between atoms: C_3  and  N_4 
REMARK       I    between atoms: N_4  and  C_5 
REMARK       I    between atoms: C_5  and  N_6 
REMARK       I    between atoms: N_6  and  C_7 
REMARK    2  A    between atoms: C_7  and  C_8 
REMARK    3  A    between atoms: C_8  and  S_9 
REMARK    4  A    between atoms: S_9  and  C_10 
REMARK    5  A    between atoms: N_11  and  C_12 
REMARK    6  A    between atoms: C_19  and  C_20 
REMARK    7  A    between atoms: C_20  and  N_21 
ROOT
HETATM    1  C   UNL     1      24.213  44.621  50.234  1.00  0.00     0.196 A 
HETATM    2  N   UNL     1      24.914  45.691  50.759  1.00  0.00    -0.274 N 
HETATM    3  C   UNL     1      25.006  45.394  52.112  1.00  0.00     0.161 A 
HETATM    4  N   UNL     1      24.435  44.230  52.357  1.00  0.00    -0.132 NA
HETATM    5  N   UNL     1      23.948  43.744  51.177  1.00  0.00    -0.122 NA
ENDROOT
BRANCH   1   6
HETATM    6  S   UNL     1      23.900  44.387  48.549  1.00  0.00    -0.080 SA
BRANCH   6   7
HETATM    7  C   UNL     1      23.490  42.615  48.505  1.00  0.00     0.185 C 
BRANCH   7   8
HETATM    8  C   UNL     1      23.875  41.967  47.177  1.00  0.00     0.235 C 
HETATM    9  N   UNL     1      24.865  41.003  47.178  1.00  0.00    -0.278 N 
HETATM   10  C   UNL     1      25.707  40.615  48.211  1.00  0.00     0.327 C 
HETATM   11  H   UNL     1      25.033  40.609  46.267  1.00  0.00     0.173 HD
HETATM   12  N   UNL     1      26.471  39.524  47.858  1.00  0.00    -0.306 N 
HETATM   13  O   UNL     1      25.733  41.185  49.294  1.00  0.00    -0.247 OA
HETATM   14  H   UNL     1      26.515  39.258  46.881  1.00  0.00     0.171 HD
HETATM   15  O   UNL     1      23.367  42.267  46.092  1.00  0.00    -0.272 OA
BRANCH  12  16
HETATM   16  C   UNL     1      27.300  38.748  48.700  1.00  0.00     0.075 A 
HETATM   17  C   UNL     1      26.910  37.558  49.315  1.00  0.00     0.033 A 
HETATM   18  C   UNL     1      27.821  36.842  50.103  1.00  0.00     0.002 A 
HETATM   19  C   UNL     1      29.123  37.309  50.285  1.00  0.00     0.003 A 
HETATM   20  C   UNL     1      29.523  38.496  49.675  1.00  0.00     0.044 A 
HETATM   21  C   UNL     1      28.614  39.198  48.890  1.00  0.00     0.143 A 
HETATM   22  F   UNL     1      29.008  40.337  48.297  1.00  0.00    -0.204 F 
ENDBRANCH  12  16
ENDBRANCH   7   8
ENDBRANCH   6   7
ENDBRANCH   1   6
BRANCH   2  23
HETATM   23  C   UNL     1      25.405  46.851  50.109  1.00  0.00     0.043 A 
HETATM   24  C   UNL     1      26.774  46.981  49.836  1.00  0.00     0.033 A 
HETATM   25  C   UNL     1      27.245  48.121  49.182  1.00  0.00     0.044 A 
HETATM   26  C   UNL     1      26.355  49.122  48.815  1.00  0.00     0.116 A 
HETATM   27  F   UNL     1      26.809  50.215  48.190  1.00  0.00    -0.206 F 
HETATM   28  C   UNL     1      24.996  49.009  49.092  1.00  0.00     0.044 A 
HETATM   29  C   UNL     1      24.516  47.871  49.743  1.00  0.00     0.033 A 
ENDBRANCH   2  23
BRANCH   3  30
HETATM   30  C   UNL     1      25.473  46.320  53.176  1.00  0.00     0.315 C 
BRANCH  30  31
HETATM   31  N   UNL     1      26.908  46.015  53.593  1.00  0.00    -0.064 N 
HETATM   32  H   UNL     1      27.487  46.435  52.845  1.00  0.00     0.280 HD
HETATM   33  C   UNL     1      27.286  46.726  54.871  1.00  0.00     0.235 C 
HETATM   34  C   UNL     1      28.758  46.489  55.174  1.00  0.00     0.028 C 
HETATM   35  C   UNL     1      29.086  45.002  55.232  1.00  0.00     0.003 C 
HETATM   36  C   UNL     1      28.659  44.300  53.949  1.00  0.00     0.028 C 
HETATM   37  C   UNL     1      27.189  44.539  53.637  1.00  0.00     0.235 C 
ENDBRANCH  30  31
ENDBRANCH   3  30
TORSDOF 7
ENDMDL
MODEL 8
REMARK VINA RESULT:      -8.9      3.976      6.057
REMARK  7 active torsions:
REMARK  status: ('A' for Active; 'I' for Inactive)
REMARK    1  A    between atoms: C_3  and  N_4 
REMARK       I    between atoms: N_4  and  C_5 
REMARK       I    between atoms: C_5  and  N_6 
REMARK       I    between atoms: N_6  and  C_7 
REMARK    2  A    between atoms: C_7  and  C_8 
REMARK    3  A    between atoms: C_8  and  S_9 
REMARK    4  A    between atoms: S_9  and  C_10 
REMARK    5  A    between atoms: N_11  and  C_12 
REMARK    6  A    between atoms: C_19  and  C_20 
REMARK    7  A    between atoms: C_20  and  N_21 
ROOT
HETATM    1  C   UNL     1      20.290  45.640  47.475  1.00  0.00     0.196 A 
HETATM    2  N   UNL     1      19.460  46.644  47.940  1.00  0.00    -0.274 N 
HETATM    3  C   UNL     1      18.260  45.991  48.188  1.00  0.00     0.161 A 
HETATM    4  N   UNL     1      18.384  44.705  47.922  1.00  0.00    -0.132 NA
HETATM    5  N   UNL     1      19.660  44.487  47.485  1.00  0.00    -0.122 NA
ENDROOT
BRANCH   1   6
HETATM    6  S   UNL     1      21.970  45.846  47.115  1.00  0.00    -0.080 SA
BRANCH   6   7
HETATM    7  C   UNL     1      22.720  45.592  48.753  1.00  0.00     0.185 C 
BRANCH   7   8
HETATM    8  C   UNL     1      23.436  46.842  49.259  1.00  0.00     0.235 C 
HETATM    9  N   UNL     1      24.346  46.706  50.290  1.00  0.00    -0.278 N 
HETATM   10  C   UNL     1      24.618  45.595  51.075  1.00  0.00     0.327 C 
HETATM   11  H   UNL     1      24.792  47.574  50.538  1.00  0.00     0.173 HD
HETATM   12  N   UNL     1      25.690  45.818  51.912  1.00  0.00    -0.306 N 
HETATM   13  O   UNL     1      23.974  44.557  51.000  1.00  0.00    -0.247 OA
HETATM   14  H   UNL     1      26.020  46.768  52.036  1.00  0.00     0.171 HD
HETATM   15  O   UNL     1      23.239  47.977  48.813  1.00  0.00    -0.272 OA
BRANCH  12  16
HETATM   16  C   UNL     1      26.363  44.869  52.717  1.00  0.00     0.075 A 
HETATM   17  C   UNL     1      25.995  44.537  54.021  1.00  0.00     0.033 A 
HETATM   18  C   UNL     1      26.705  43.554  54.723  1.00  0.00     0.002 A 
HETATM   19  C   UNL     1      27.787  42.900  54.131  1.00  0.00     0.003 A 
HETATM   20  C   UNL     1      28.162  43.225  52.829  1.00  0.00     0.044 A 
HETATM   21  C   UNL     1      27.448  44.198  52.138  1.00  0.00     0.143 A 
HETATM   22  F   UNL     1      27.809  44.500  50.879  1.00  0.00    -0.204 F 
ENDBRANCH  12  16
ENDBRANCH   7   8
ENDBRANCH   6   7
ENDBRANCH   1   6
BRANCH   2  23
HETATM   23  C   UNL     1      19.724  48.027  48.103  1.00  0.00     0.043 A 
HETATM   24  C   UNL     1      19.934  48.559  49.383  1.00  0.00     0.033 A 
HETATM   25  C   UNL     1      20.208  49.920  49.530  1.00  0.00     0.044 A 
HETATM   26  C   UNL     1      20.262  50.738  48.409  1.00  0.00     0.116 A 
HETATM   27  F   UNL     1      20.523  52.043  48.553  1.00  0.00    -0.206 F 
HETATM   28  C   UNL     1      20.043  50.223  47.136  1.00  0.00     0.044 A 
HETATM   29  C   UNL     1      19.772  48.862  46.978  1.00  0.00     0.033 A 
ENDBRANCH   2  23
BRANCH   3  30
HETATM   30  C   UNL     1      16.962  46.646  48.495  1.00  0.00     0.315 C 
BRANCH  30  31
HETATM   31  N   UNL     1      16.665  47.782  47.522  1.00  0.00    -0.064 N 
HETATM   32  H   UNL     1      17.561  48.292  47.442  1.00  0.00     0.280 HD
HETATM   33  C   UNL     1      16.345  47.268  46.137  1.00  0.00     0.235 C 
HETATM   34  C   UNL     1      16.180  48.440  45.181  1.00  0.00     0.028 C 
HETATM   35  C   UNL     1      15.131  49.427  45.678  1.00  0.00     0.003 C 
HETATM   36  C   UNL     1      15.453  49.899  47.091  1.00  0.00     0.028 C 
HETATM   37  C   UNL     1      15.626  48.731  48.051  1.00  0.00     0.235 C 
ENDBRANCH  30  31
ENDBRANCH   3  30
TORSDOF 7
ENDMDL
MODEL 9
REMARK VINA RESULT:      -8.8     14.643     16.713
REMARK  7 active torsions:
REMARK  status: ('A' for Active; 'I' for Inactive)
REMARK    1  A    between atoms: C_3  and  N_4 
REMARK       I    between atoms: N_4  and  C_5 
REMARK       I    between atoms: C_5  and  N_6 
REMARK       I    between atoms: N_6  and  C_7 
REMARK    2  A    between atoms: C_7  and  C_8 
REMARK    3  A    between atoms: C_8  and  S_9 
REMARK    4  A    between atoms: S_9  and  C_10 
REMARK    5  A    between atoms: N_11  and  C_12 
REMARK    6  A    between atoms: C_19  and  C_20 
REMARK    7  A    between atoms: C_20  and  N_21 
ROOT
HETATM    1  C   UNL     1      32.465  49.219  40.940  1.00  0.00     0.196 A 
HETATM    2  N   UNL     1      31.401  49.198  40.057  1.00  0.00    -0.274 N 
HETATM    3  C   UNL     1      31.215  47.848  39.796  1.00  0.00     0.161 A 
HETATM    4  N   UNL     1      32.077  47.132  40.492  1.00  0.00    -0.132 NA
HETATM    5  N   UNL     1      32.852  47.994  41.215  1.00  0.00    -0.122 NA
ENDROOT
BRANCH   1   6
HETATM    6  S   UNL     1      33.070  50.644  41.712  1.00  0.00    -0.080 SA
BRANCH   6   7
HETATM    7  C   UNL     1      34.113  51.347  40.398  1.00  0.00     0.185 C 
BRANCH   7   8
HETATM    8  C   UNL     1      35.486  51.768  40.916  1.00  0.00     0.235 C 
HETATM    9  N   UNL     1      35.948  53.032  40.604  1.00  0.00    -0.278 N 
HETATM   10  C   UNL     1      35.408  53.970  39.736  1.00  0.00     0.327 C 
HETATM   11  H   UNL     1      36.846  53.236  41.011  1.00  0.00     0.173 HD
HETATM   12  N   UNL     1      36.089  55.168  39.799  1.00  0.00    -0.306 N 
HETATM   13  O   UNL     1      34.440  53.736  39.026  1.00  0.00    -0.247 OA
HETATM   14  H   UNL     1      36.987  55.191  40.266  1.00  0.00     0.171 HD
HETATM   15  O   UNL     1      36.224  51.036  41.585  1.00  0.00    -0.272 OA
BRANCH  12  16
HETATM   16  C   UNL     1      35.722  56.395  39.201  1.00  0.00     0.075 A 
HETATM   17  C   UNL     1      34.569  57.115  39.515  1.00  0.00     0.033 A 
HETATM   18  C   UNL     1      34.315  58.343  38.891  1.00  0.00     0.002 A 
HETATM   19  C   UNL     1      35.206  58.859  37.949  1.00  0.00     0.003 A 
HETATM   20  C   UNL     1      36.360  58.149  37.628  1.00  0.00     0.044 A 
HETATM   21  C   UNL     1      36.608  56.933  38.255  1.00  0.00     0.143 A 
HETATM   22  F   UNL     1      37.727  56.256  37.948  1.00  0.00    -0.204 F 
ENDBRANCH  12  16
ENDBRANCH   7   8
ENDBRANCH   6   7
ENDBRANCH   1   6
BRANCH   2  23
HETATM   23  C   UNL     1      30.671  50.279  39.502  1.00  0.00     0.043 A 
HETATM   24  C   UNL     1      31.019  50.794  38.244  1.00  0.00     0.033 A 
HETATM   25  C   UNL     1      30.284  51.849  37.701  1.00  0.00     0.044 A 
HETATM   26  C   UNL     1      29.220  52.388  38.414  1.00  0.00     0.116 A 
HETATM   27  F   UNL     1      28.518  53.401  37.891  1.00  0.00    -0.206 F 
HETATM   28  C   UNL     1      28.874  51.893  39.667  1.00  0.00     0.044 A 
HETATM   29  C   UNL     1      29.601  50.835  40.217  1.00  0.00     0.033 A 
ENDBRANCH   2  23
BRANCH   3  30
HETATM   30  C   UNL     1      30.338  47.280  38.739  1.00  0.00     0.315 C 
BRANCH  30  31
HETATM   31  N   UNL     1      28.895  47.159  39.215  1.00  0.00    -0.064 N 
HETATM   32  H   UNL     1      28.628  46.187  38.981  1.00  0.00     0.280 HD
HETATM   33  C   UNL     1      28.786  47.277  40.718  1.00  0.00     0.235 C 
HETATM   34  C   UNL     1      27.349  47.026  41.150  1.00  0.00     0.028 C 
HETATM   35  C   UNL     1      26.377  47.956  40.434  1.00  0.00     0.003 C 
HETATM   36  C   UNL     1      26.534  47.848  38.922  1.00  0.00     0.028 C 
HETATM   37  C   UNL     1      27.971  48.092  38.484  1.00  0.00     0.235 C 
ENDBRANCH  30  31
ENDBRANCH   3  30
TORSDOF 7
ENDMDL
MODEL 10
REMARK VINA RESULT:      -8.7     13.380     14.528
REMARK  7 active torsions:
REMARK  status: ('A' for Active; 'I' for Inactive)
REMARK    1  A    between atoms: C_3  and  N_4 
REMARK       I    between atoms: N_4  and  C_5 
REMARK       I    between atoms: C_5  and  N_6 
REMARK       I    between atoms: N_6  and  C_7 
REMARK    2  A    between atoms: C_7  and  C_8 
REMARK    3  A    between atoms: C_8  and  S_9 
REMARK    4  A    between atoms: S_9  and  C_10 
REMARK    5  A    between atoms: N_11  and  C_12 
REMARK    6  A    between atoms: C_19  and  C_20 
REMARK    7  A    between atoms: C_20  and  N_21 
ROOT
HETATM    1  C   UNL     1      32.326  49.488  41.090  1.00  0.00     0.196 A 
HETATM    2  N   UNL     1      31.308  49.395  40.159  1.00  0.00    -0.274 N 
HETATM    3  C   UNL     1      31.227  48.035  39.893  1.00  0.00     0.161 A 
HETATM    4  N   UNL     1      32.102  47.379  40.631  1.00  0.00    -0.132 NA
HETATM    5  N   UNL     1      32.782  48.292  41.386  1.00  0.00    -0.122 NA
ENDROOT
BRANCH   1   6
HETATM    6  S   UNL     1      32.796  50.951  41.885  1.00  0.00    -0.080 SA
BRANCH   6   7
HETATM    7  C   UNL     1      34.600  50.739  41.986  1.00  0.00     0.185 C 
BRANCH   7   8
HETATM    8  C   UNL     1      35.352  51.862  41.276  1.00  0.00     0.235 C 
HETATM    9  N   UNL     1      36.200  52.659  42.021  1.00  0.00    -0.278 N 
HETATM   10  C   UNL     1      36.375  52.702  43.397  1.00  0.00     0.327 C 
HETATM   11  H   UNL     1      36.676  53.353  41.469  1.00  0.00     0.173 HD
HETATM   12  N   UNL     1      37.414  53.538  43.749  1.00  0.00    -0.306 N 
HETATM   13  O   UNL     1      35.685  52.056  44.173  1.00  0.00    -0.247 OA
HETATM   14  H   UNL     1      37.784  54.171  43.051  1.00  0.00     0.171 HD
HETATM   15  O   UNL     1      35.235  52.117  40.073  1.00  0.00    -0.272 OA
BRANCH  12  16
HETATM   16  C   UNL     1      37.995  53.692  45.028  1.00  0.00     0.075 A 
HETATM   17  C   UNL     1      37.703  54.734  45.909  1.00  0.00     0.033 A 
HETATM   18  C   UNL     1      38.307  54.777  47.172  1.00  0.00     0.002 A 
HETATM   19  C   UNL     1      39.207  53.785  47.563  1.00  0.00     0.003 A 
HETATM   20  C   UNL     1      39.506  52.741  46.691  1.00  0.00     0.044 A 
HETATM   21  C   UNL     1      38.898  52.703  45.441  1.00  0.00     0.143 A 
HETATM   22  F   UNL     1      39.183  51.688  44.608  1.00  0.00    -0.204 F 
ENDBRANCH  12  16
ENDBRANCH   7   8
ENDBRANCH   6   7
ENDBRANCH   1   6
BRANCH   2  23
HETATM   23  C   UNL     1      30.533  50.424  39.567  1.00  0.00     0.043 A 
HETATM   24  C   UNL     1      29.414  50.940  40.235  1.00  0.00     0.033 A 
HETATM   25  C   UNL     1      28.667  51.963  39.648  1.00  0.00     0.044 A 
HETATM   26  C   UNL     1      29.034  52.457  38.403  1.00  0.00     0.116 A 
HETATM   27  F   UNL     1      28.315  53.436  37.841  1.00  0.00    -0.206 F 
HETATM   28  C   UNL     1      30.135  51.944  37.725  1.00  0.00     0.044 A 
HETATM   29  C   UNL     1      30.890  50.923  38.305  1.00  0.00     0.033 A 
ENDBRANCH   2  23
BRANCH   3  30
HETATM   30  C   UNL     1      30.441  47.409  38.798  1.00  0.00     0.315 C 
BRANCH  30  31
HETATM   31  N   UNL     1      28.986  47.196  39.205  1.00  0.00    -0.064 N 
HETATM   32  H   UNL     1      28.790  46.213  38.950  1.00  0.00     0.280 HD
HETATM   33  C   UNL     1      28.801  47.290  40.702  1.00  0.00     0.235 C 
HETATM   34  C   UNL     1      27.363  46.948  41.063  1.00  0.00     0.028 C 
HETATM   35  C   UNL     1      26.371  47.827  40.311  1.00  0.00     0.003 C 
HETATM   36  C   UNL     1      26.604  47.747  38.807  1.00  0.00     0.028 C 
HETATM   37  C   UNL     1      28.043  48.082  38.440  1.00  0.00     0.235 C 
ENDBRANCH  30  31
ENDBRANCH   3  30
TORSDOF 7
ENDMDL
