MODEL 1
REMARK VINA RESULT:      -9.4      0.000      0.000
REMARK  8 active torsions:
REMARK  status: ('A' for Active; 'I' for Inactive)
REMARK    1  A    between atoms: C_3  and  N_4 
REMARK    2  A    between atoms: N_7  and  C_9 
REMARK    3  A    between atoms: C_9  and  C_10 
REMARK    4  A    between atoms: C_10  and  C_11 
REMARK    5  A    between atoms: C_11  and  N_12 
REMARK       I    between atoms: N_12  and  C_13 
REMARK    6  A    between atoms: C_13  and  C_14 
REMARK    7  A    between atoms: C_14  and  O_15 
REMARK    8  A    between atoms: O_15  and  C_16 
ROOT
HETATM    1  C   UNL     1      24.577  45.363  51.224  1.00  0.00     0.236 C 
ENDROOT
BRANCH   1   2
HETATM    2  N   UNL     1      25.375  45.235  52.505  1.00  0.00    -0.069 N 
HETATM    3  C   UNL     1      25.982  43.832  52.697  1.00  0.00     0.249 C 
HETATM    4  C   UNL     1      26.870  43.772  53.959  1.00  0.00     0.123 C 
HETATM    5  N   UNL     1      27.900  44.826  53.884  1.00  0.00    -0.280 NA
HETATM    6  C   UNL     1      27.341  46.186  53.815  1.00  0.00     0.123 C 
HETATM    7  C   UNL     1      26.475  46.312  52.546  1.00  0.00     0.249 C 
HETATM    8  H   UNL     1      24.751  45.409  53.304  1.00  0.00     0.280 HD
BRANCH   5   9
HETATM    9  C   UNL     1      28.979  44.616  54.759  1.00  0.00     0.018 A 
HETATM   10  C   UNL     1      29.919  43.593  54.488  1.00  0.00    -0.041 A 
HETATM   11  C   UNL     1      29.819  42.710  53.270  1.00  0.00     0.050 C 
HETATM   12  C   UNL     1      30.987  43.363  55.375  1.00  0.00     0.010 A 
HETATM   13  C   UNL     1      31.156  44.155  56.507  1.00  0.00     0.024 A 
HETATM   14  C   UNL     1      30.251  45.175  56.765  1.00  0.00     0.035 A 
HETATM   15  C   UNL     1      29.172  45.402  55.907  1.00  0.00     0.048 A 
HETATM   16 CL   UNL     1      30.452  46.165  58.158  1.00  0.00    -0.084 Cl
ENDBRANCH   5   9
ENDBRANCH   1   2
BRANCH   1  17
HETATM   17  C   UNL     1      24.806  46.705  50.545  1.00  0.00     0.047 C 
BRANCH  17  18
HETATM   18  C   UNL     1      23.714  46.955  49.502  1.00  0.00     0.124 C 
BRANCH  18  19
HETATM   19  N   UNL     1      22.992  48.179  49.743  1.00  0.00    -0.359 N 
HETATM   20  C   UNL     1      22.958  49.194  48.806  1.00  0.00     0.241 C 
HETATM   21  O   UNL     1      23.379  49.041  47.660  1.00  0.00    -0.271 OA
HETATM   22  H   UNL     1      22.733  48.446  50.692  1.00  0.00     0.162 HD
BRANCH  20  23
HETATM   23  C   UNL     1      22.379  50.519  49.308  1.00  0.00     0.278 C 
BRANCH  23  24
HETATM   24  O   UNL     1      21.426  51.024  48.375  1.00  0.00    -0.342 OA
BRANCH  24  25
HETATM   25  C   UNL     1      20.152  51.220  48.833  1.00  0.00     0.069 A 
HETATM   26  C   UNL     1      19.453  50.380  49.700  1.00  0.00     0.038 A 
HETATM   27  C   UNL     1      18.143  50.697  50.080  1.00  0.00     0.026 A 
HETATM   28  C   UNL     1      17.536  51.853  49.595  1.00  0.00     0.034 A 
HETATM   29 CL   UNL     1      15.927  52.238  50.064  1.00  0.00    -0.084 Cl
HETATM   30  C   UNL     1      18.227  52.697  48.730  1.00  0.00     0.026 A 
HETATM   31  C   UNL     1      19.532  52.377  48.350  1.00  0.00     0.038 A 
ENDBRANCH  24  25
ENDBRANCH  23  24
ENDBRANCH  20  23
ENDBRANCH  18  19
ENDBRANCH  17  18
ENDBRANCH   1  17
TORSDOF 8
ENDMDL
MODEL 2
REMARK VINA RESULT:      -9.1      1.447      2.314
REMARK  8 active torsions:
REMARK  status: ('A' for Active; 'I' for Inactive)
REMARK    1  A    between atoms: C_3  and  N_4 
REMARK    2  A    between atoms: N_7  and  C_9 
REMARK    3  A    between atoms: C_9  and  C_10 
REMARK    4  A    between atoms: C_10  and  C_11 
REMARK    5  A    between atoms: C_11  and  N_12 
REMARK       I    between atoms: N_12  and  C_13 
REMARK    6  A    between atoms: C_13  and  C_14 
REMARK    7  A    between atoms: C_14  and  O_15 
REMARK    8  A    between atoms: O_15  and  C_16 
ROOT
HETATM    1  C   UNL     1      25.254  43.487  50.480  1.00  0.00     0.236 C 
ENDROOT
BRANCH   1   2
HETATM    2  N   UNL     1      26.220  43.304  51.631  1.00  0.00    -0.069 N 
HETATM    3  C   UNL     1      27.625  43.863  51.331  1.00  0.00     0.249 C 
HETATM    4  C   UNL     1      28.550  43.750  52.562  1.00  0.00     0.123 C 
HETATM    5  N   UNL     1      27.913  44.416  53.716  1.00  0.00    -0.280 NA
HETATM    6  C   UNL     1      26.620  43.822  54.093  1.00  0.00     0.123 C 
HETATM    7  C   UNL     1      25.643  43.946  52.906  1.00  0.00     0.249 C 
HETATM    8  H   UNL     1      26.326  42.299  51.820  1.00  0.00     0.280 HD
BRANCH   5   9
HETATM    9  C   UNL     1      28.812  44.716  54.753  1.00  0.00     0.018 A 
HETATM   10  C   UNL     1      28.746  45.970  55.405  1.00  0.00    -0.041 A 
HETATM   11  C   UNL     1      27.723  47.015  55.037  1.00  0.00     0.050 C 
HETATM   12  C   UNL     1      29.659  46.283  56.427  1.00  0.00     0.010 A 
HETATM   13  C   UNL     1      30.616  45.358  56.837  1.00  0.00     0.024 A 
HETATM   14  C   UNL     1      30.671  44.118  56.217  1.00  0.00     0.035 A 
HETATM   15  C   UNL     1      29.785  43.799  55.185  1.00  0.00     0.048 A 
HETATM   16 CL   UNL     1      31.843  42.962  56.718  1.00  0.00    -0.084 Cl
ENDBRANCH   5   9
ENDBRANCH   1   2
BRANCH   1  17
HETATM   17  C   UNL     1      24.423  44.753  50.633  1.00  0.00     0.047 C 
BRANCH  17  18
HETATM   18  C   UNL     1      24.780  45.748  49.527  1.00  0.00     0.124 C 
BRANCH  18  19
HETATM   19  N   UNL     1      23.633  46.486  49.058  1.00  0.00    -0.359 N 
HETATM   20  C   UNL     1      23.405  47.791  49.449  1.00  0.00     0.241 C 
HETATM   21  O   UNL     1      24.246  48.447  50.061  1.00  0.00    -0.271 OA
HETATM   22  H   UNL     1      22.830  45.995  48.668  1.00  0.00     0.162 HD
BRANCH  20  23
HETATM   23  C   UNL     1      22.025  48.344  49.084  1.00  0.00     0.278 C 
BRANCH  23  24
HETATM   24  O   UNL     1      22.080  49.764  48.964  1.00  0.00    -0.342 OA
BRANCH  24  25
HETATM   25  C   UNL     1      20.902  50.444  49.106  1.00  0.00     0.069 A 
HETATM   26  C   UNL     1      20.545  51.617  48.438  1.00  0.00     0.038 A 
HETATM   27  C   UNL     1      19.305  52.218  48.689  1.00  0.00     0.026 A 
HETATM   28  C   UNL     1      18.424  51.646  49.603  1.00  0.00     0.034 A 
HETATM   29 CL   UNL     1      16.903  52.387  49.908  1.00  0.00    -0.084 Cl
HETATM   30  C   UNL     1      18.772  50.476  50.273  1.00  0.00     0.026 A 
HETATM   31  C   UNL     1      20.011  49.880  50.024  1.00  0.00     0.038 A 
ENDBRANCH  24  25
ENDBRANCH  23  24
ENDBRANCH  20  23
ENDBRANCH  18  19
ENDBRANCH  17  18
ENDBRANCH   1  17
TORSDOF 8
ENDMDL
MODEL 3
REMARK VINA RESULT:      -8.8      3.907      4.949
REMARK  8 active torsions:
REMARK  status: ('A' for Active; 'I' for Inactive)
REMARK    1  A    between atoms: C_3  and  N_4 
REMARK    2  A    between atoms: N_7  and  C_9 
REMARK    3  A    between atoms: C_9  and  C_10 
REMARK    4  A    between atoms: C_10  and  C_11 
REMARK    5  A    between atoms: C_11  and  N_12 
REMARK       I    between atoms: N_12  and  C_13 
REMARK    6  A    between atoms: C_13  and  C_14 
REMARK    7  A    between atoms: C_14  and  O_15 
REMARK    8  A    between atoms: O_15  and  C_16 
ROOT
HETATM    1  C   UNL     1      25.241  43.294  49.632  1.00  0.00     0.236 C 
ENDROOT
BRANCH   1   2
HETATM    2  N   UNL     1      26.094  43.199  50.879  1.00  0.00    -0.069 N 
HETATM    3  C   UNL     1      27.504  43.791  50.690  1.00  0.00     0.249 C 
HETATM    4  C   UNL     1      28.305  43.768  52.010  1.00  0.00     0.123 C 
HETATM    5  N   UNL     1      27.537  44.464  53.061  1.00  0.00    -0.280 NA
HETATM    6  C   UNL     1      26.232  43.845  53.339  1.00  0.00     0.123 C 
HETATM    7  C   UNL     1      25.374  43.879  52.058  1.00  0.00     0.249 C 
HETATM    8  H   UNL     1      26.210  42.208  51.127  1.00  0.00     0.280 HD
BRANCH   5   9
HETATM    9  C   UNL     1      28.319  44.843  54.166  1.00  0.00     0.018 A 
HETATM   10  C   UNL     1      28.112  46.101  54.780  1.00  0.00    -0.041 A 
HETATM   11  C   UNL     1      27.058  47.067  54.300  1.00  0.00     0.050 C 
HETATM   12  C   UNL     1      28.909  46.494  55.870  1.00  0.00     0.010 A 
HETATM   13  C   UNL     1      29.886  45.644  56.382  1.00  0.00     0.024 A 
HETATM   14  C   UNL     1      30.078  44.400  55.798  1.00  0.00     0.035 A 
HETATM   15  C   UNL     1      29.310  44.003  54.701  1.00  0.00     0.048 A 
HETATM   16 CL   UNL     1      31.276  43.337  56.425  1.00  0.00    -0.084 Cl
ENDBRANCH   5   9
ENDBRANCH   1   2
BRANCH   1  17
HETATM   17  C   UNL     1      23.999  42.420  49.724  1.00  0.00     0.047 C 
BRANCH  17  18
HETATM   18  C   UNL     1      22.912  42.957  48.792  1.00  0.00     0.124 C 
BRANCH  18  19
HETATM   19  N   UNL     1      22.992  44.387  48.619  1.00  0.00    -0.359 N 
HETATM   20  C   UNL     1      21.858  45.177  48.607  1.00  0.00     0.241 C 
HETATM   21  O   UNL     1      20.752  44.739  48.920  1.00  0.00    -0.271 OA
HETATM   22  H   UNL     1      23.830  44.811  48.225  1.00  0.00     0.162 HD
BRANCH  20  23
HETATM   23  C   UNL     1      22.082  46.622  48.155  1.00  0.00     0.278 C 
BRANCH  23  24
HETATM   24  O   UNL     1      22.496  47.424  49.259  1.00  0.00    -0.342 OA
BRANCH  24  25
HETATM   25  C   UNL     1      23.796  47.848  49.266  1.00  0.00     0.069 A 
HETATM   26  C   UNL     1      24.863  47.215  49.905  1.00  0.00     0.038 A 
HETATM   27  C   UNL     1      26.148  47.769  49.840  1.00  0.00     0.026 A 
HETATM   28  C   UNL     1      26.364  48.951  49.137  1.00  0.00     0.034 A 
HETATM   29 CL   UNL     1      27.943  49.627  49.060  1.00  0.00    -0.084 Cl
HETATM   30  C   UNL     1      25.305  49.589  48.496  1.00  0.00     0.026 A 
HETATM   31  C   UNL     1      24.024  49.037  48.565  1.00  0.00     0.038 A 
ENDBRANCH  24  25
ENDBRANCH  23  24
ENDBRANCH  20  23
ENDBRANCH  18  19
ENDBRANCH  17  18
ENDBRANCH   1  17
TORSDOF 8
ENDMDL
MODEL 4
REMARK VINA RESULT:      -8.5      2.522     12.393
REMARK  8 active torsions:
REMARK  status: ('A' for Active; 'I' for Inactive)
REMARK    1  A    between atoms: C_3  and  N_4 
REMARK    2  A    between atoms: N_7  and  C_9 
REMARK    3  A    between atoms: C_9  and  C_10 
REMARK    4  A    between atoms: C_10  and  C_11 
REMARK    5  A    between atoms: C_11  and  N_12 
REMARK       I    between atoms: N_12  and  C_13 
REMARK    6  A    between atoms: C_13  and  C_14 
REMARK    7  A    between atoms: C_14  and  O_15 
REMARK    8  A    between atoms: O_15  and  C_16 
ROOT
HETATM    1  C   UNL     1      23.770  48.970  49.118  1.00  0.00     0.236 C 
ENDROOT
BRANCH   1   2
HETATM    2  N   UNL     1      22.389  49.415  49.554  1.00  0.00    -0.069 N 
HETATM    3  C   UNL     1      22.033  50.832  49.065  1.00  0.00     0.249 C 
HETATM    4  C   UNL     1      20.583  51.208  49.441  1.00  0.00     0.123 C 
HETATM    5  N   UNL     1      19.659  50.182  48.917  1.00  0.00    -0.280 NA
HETATM    6  C   UNL     1      19.910  48.838  49.461  1.00  0.00     0.123 C 
HETATM    7  C   UNL     1      21.337  48.397  49.077  1.00  0.00     0.249 C 
HETATM    8  H   UNL     1      22.354  49.429  50.581  1.00  0.00     0.280 HD
BRANCH   5   9
HETATM    9  C   UNL     1      18.324  50.614  48.855  1.00  0.00     0.018 A 
HETATM   10  C   UNL     1      17.406  49.950  48.006  1.00  0.00    -0.041 A 
HETATM   11  C   UNL     1      17.803  48.767  47.160  1.00  0.00     0.050 C 
HETATM   12  C   UNL     1      16.074  50.394  47.922  1.00  0.00     0.010 A 
HETATM   13  C   UNL     1      15.630  51.465  48.693  1.00  0.00     0.024 A 
HETATM   14  C   UNL     1      16.519  52.105  49.544  1.00  0.00     0.035 A 
HETATM   15  C   UNL     1      17.852  51.691  49.623  1.00  0.00     0.048 A 
HETATM   16 CL   UNL     1      15.982  53.426  50.508  1.00  0.00    -0.084 Cl
ENDBRANCH   5   9
ENDBRANCH   1   2
BRANCH   1  17
HETATM   17  C   UNL     1      24.170  47.650  49.760  1.00  0.00     0.047 C 
BRANCH  17  18
HETATM   18  C   UNL     1      25.687  47.601  49.951  1.00  0.00     0.124 C 
BRANCH  18  19
HETATM   19  N   UNL     1      26.091  46.599  50.906  1.00  0.00    -0.359 N 
HETATM   20  C   UNL     1      26.601  45.380  50.501  1.00  0.00     0.241 C 
HETATM   21  O   UNL     1      26.907  45.154  49.331  1.00  0.00    -0.271 OA
HETATM   22  H   UNL     1      25.756  46.640  51.867  1.00  0.00     0.162 HD
BRANCH  20  23
HETATM   23  C   UNL     1      26.734  44.334  51.611  1.00  0.00     0.278 C 
BRANCH  23  24
HETATM   24  O   UNL     1      28.050  43.786  51.615  1.00  0.00    -0.342 OA
BRANCH  24  25
HETATM   25  C   UNL     1      28.715  43.776  52.810  1.00  0.00     0.069 A 
HETATM   26  C   UNL     1      28.385  44.525  53.940  1.00  0.00     0.038 A 
HETATM   27  C   UNL     1      29.164  44.426  55.100  1.00  0.00     0.026 A 
HETATM   28  C   UNL     1      30.267  43.577  55.130  1.00  0.00     0.034 A 
HETATM   29 CL   UNL     1      31.219  43.458  56.556  1.00  0.00    -0.084 Cl
HETATM   30  C   UNL     1      30.602  42.825  54.007  1.00  0.00     0.026 A 
HETATM   31  C   UNL     1      29.827  42.928  52.850  1.00  0.00     0.038 A 
ENDBRANCH  24  25
ENDBRANCH  23  24
ENDBRANCH  20  23
ENDBRANCH  18  19
ENDBRANCH  17  18
ENDBRANCH   1  17
TORSDOF 8
ENDMDL
MODEL 5
REMARK VINA RESULT:      -8.3      1.886      2.212
REMARK  8 active torsions:
REMARK  status: ('A' for Active; 'I' for Inactive)
REMARK    1  A    between atoms: C_3  and  N_4 
REMARK    2  A    between atoms: N_7  and  C_9 
REMARK    3  A    between atoms: C_9  and  C_10 
REMARK    4  A    between atoms: C_10  and  C_11 
REMARK    5  A    between atoms: C_11  and  N_12 
REMARK       I    between atoms: N_12  and  C_13 
REMARK    6  A    between atoms: C_13  and  C_14 
REMARK    7  A    between atoms: C_14  and  O_15 
REMARK    8  A    between atoms: O_15  and  C_16 
ROOT
HETATM    1  C   UNL     1      24.410  45.088  51.082  1.00  0.00     0.236 C 
ENDROOT
BRANCH   1   2
HETATM    2  N   UNL     1      25.206  45.001  52.368  1.00  0.00    -0.069 N 
HETATM    3  C   UNL     1      25.883  43.631  52.564  1.00  0.00     0.249 C 
HETATM    4  C   UNL     1      26.766  43.617  53.830  1.00  0.00     0.123 C 
HETATM    5  N   UNL     1      27.742  44.723  53.760  1.00  0.00    -0.280 NA
HETATM    6  C   UNL     1      27.114  46.052  53.687  1.00  0.00     0.123 C 
HETATM    7  C   UNL     1      26.250  46.133  52.413  1.00  0.00     0.249 C 
HETATM    8  H   UNL     1      24.570  45.144  53.163  1.00  0.00     0.280 HD
BRANCH   5   9
HETATM    9  C   UNL     1      28.826  44.568  54.641  1.00  0.00     0.018 A 
HETATM   10  C   UNL     1      29.820  43.596  54.373  1.00  0.00    -0.041 A 
HETATM   11  C   UNL     1      29.774  42.712  53.153  1.00  0.00     0.050 C 
HETATM   12  C   UNL     1      30.893  43.422  55.265  1.00  0.00     0.010 A 
HETATM   13  C   UNL     1      31.014  44.220  56.400  1.00  0.00     0.024 A 
HETATM   14  C   UNL     1      30.055  45.189  56.655  1.00  0.00     0.035 A 
HETATM   15  C   UNL     1      28.970  45.361  55.791  1.00  0.00     0.048 A 
HETATM   16 CL   UNL     1      30.195  46.186  58.050  1.00  0.00    -0.084 Cl
ENDBRANCH   5   9
ENDBRANCH   1   2
BRANCH   1  17
HETATM   17  C   UNL     1      23.936  43.719  50.616  1.00  0.00     0.047 C 
BRANCH  17  18
HETATM   18  C   UNL     1      23.330  43.826  49.214  1.00  0.00     0.124 C 
BRANCH  18  19
HETATM   19  N   UNL     1      22.928  45.172  48.889  1.00  0.00    -0.359 N 
HETATM   20  C   UNL     1      21.612  45.485  48.610  1.00  0.00     0.241 C 
HETATM   21  O   UNL     1      20.696  44.686  48.797  1.00  0.00    -0.271 OA
HETATM   22  H   UNL     1      23.619  45.856  48.584  1.00  0.00     0.162 HD
BRANCH  20  23
HETATM   23  C   UNL     1      21.389  46.884  48.032  1.00  0.00     0.278 C 
BRANCH  23  24
HETATM   24  O   UNL     1      19.993  47.162  47.940  1.00  0.00    -0.342 OA
BRANCH  24  25
HETATM   25  C   UNL     1      19.554  48.329  48.500  1.00  0.00     0.069 A 
HETATM   26  C   UNL     1      19.186  48.513  49.834  1.00  0.00     0.038 A 
HETATM   27  C   UNL     1      18.740  49.766  50.272  1.00  0.00     0.026 A 
HETATM   28  C   UNL     1      18.666  50.833  49.380  1.00  0.00     0.034 A 
HETATM   29 CL   UNL     1      18.118  52.369  49.923  1.00  0.00    -0.084 Cl
HETATM   30  C   UNL     1      19.031  50.658  48.048  1.00  0.00     0.026 A 
HETATM   31  C   UNL     1      19.472  49.406  47.611  1.00  0.00     0.038 A 
ENDBRANCH  24  25
ENDBRANCH  23  24
ENDBRANCH  20  23
ENDBRANCH  18  19
ENDBRANCH  17  18
ENDBRANCH   1  17
TORSDOF 8
ENDMDL
MODEL 6
REMARK VINA RESULT:      -8.3     12.852     13.991
REMARK  8 active torsions:
REMARK  status: ('A' for Active; 'I' for Inactive)
REMARK    1  A    between atoms: C_3  and  N_4 
REMARK    2  A    between atoms: N_7  and  C_9 
REMARK    3  A    between atoms: C_9  and  C_10 
REMARK    4  A    between atoms: C_10  and  C_11 
REMARK    5  A    between atoms: C_11  and  N_12 
REMARK       I    between atoms: N_12  and  C_13 
REMARK    6  A    between atoms: C_13  and  C_14 
REMARK    7  A    between atoms: C_14  and  O_15 
REMARK    8  A    between atoms: O_15  and  C_16 
ROOT
HETATM    1  C   UNL     1      30.476  48.121  39.046  1.00  0.00     0.236 C 
ENDROOT
BRANCH   1   2
HETATM    2  N   UNL     1      31.775  48.716  39.547  1.00  0.00    -0.069 N 
HETATM    3  C   UNL     1      31.739  50.254  39.627  1.00  0.00     0.249 C 
HETATM    4  C   UNL     1      33.042  50.816  40.238  1.00  0.00     0.123 C 
HETATM    5  N   UNL     1      33.276  50.188  41.554  1.00  0.00    -0.280 NA
HETATM    6  C   UNL     1      33.428  48.726  41.485  1.00  0.00     0.123 C 
HETATM    7  C   UNL     1      32.133  48.110  40.917  1.00  0.00     0.249 C 
HETATM    8  H   UNL     1      32.530  48.462  38.897  1.00  0.00     0.280 HD
BRANCH   5   9
HETATM    9  C   UNL     1      34.189  50.895  42.355  1.00  0.00     0.018 A 
HETATM   10  C   UNL     1      33.733  51.589  43.501  1.00  0.00    -0.041 A 
HETATM   11  C   UNL     1      32.284  51.591  43.918  1.00  0.00     0.050 C 
HETATM   12  C   UNL     1      34.640  52.317  44.292  1.00  0.00     0.010 A 
HETATM   13  C   UNL     1      35.997  52.340  43.982  1.00  0.00     0.024 A 
HETATM   14  C   UNL     1      36.453  51.643  42.873  1.00  0.00     0.035 A 
HETATM   15  C   UNL     1      35.562  50.932  42.064  1.00  0.00     0.048 A 
HETATM   16 CL   UNL     1      38.129  51.657  42.482  1.00  0.00    -0.084 Cl
ENDBRANCH   5   9
ENDBRANCH   1   2
BRANCH   1  17
HETATM   17  C   UNL     1      30.098  46.859  39.808  1.00  0.00     0.047 C 
BRANCH  17  18
HETATM   18  C   UNL     1      28.577  46.693  39.820  1.00  0.00     0.124 C 
BRANCH  18  19
HETATM   19  N   UNL     1      27.885  47.957  39.798  1.00  0.00    -0.359 N 
HETATM   20  C   UNL     1      26.906  48.228  38.861  1.00  0.00     0.241 C 
HETATM   21  O   UNL     1      26.450  47.358  38.121  1.00  0.00    -0.271 OA
HETATM   22  H   UNL     1      28.279  48.768  40.272  1.00  0.00     0.162 HD
BRANCH  20  23
HETATM   23  C   UNL     1      26.456  49.690  38.801  1.00  0.00     0.278 C 
BRANCH  23  24
HETATM   24  O   UNL     1      26.669  50.322  40.061  1.00  0.00    -0.342 OA
BRANCH  24  25
HETATM   25  C   UNL     1      27.662  51.261  40.124  1.00  0.00     0.069 A 
HETATM   26  C   UNL     1      28.157  52.006  39.052  1.00  0.00     0.038 A 
HETATM   27  C   UNL     1      29.190  52.930  39.258  1.00  0.00     0.026 A 
HETATM   28  C   UNL     1      29.723  53.109  40.531  1.00  0.00     0.034 A 
HETATM   29 CL   UNL     1      30.990  54.244  40.779  1.00  0.00    -0.084 Cl
HETATM   30  C   UNL     1      29.234  52.371  41.606  1.00  0.00     0.026 A 
HETATM   31  C   UNL     1      28.207  51.447  41.398  1.00  0.00     0.038 A 
ENDBRANCH  24  25
ENDBRANCH  23  24
ENDBRANCH  20  23
ENDBRANCH  18  19
ENDBRANCH  17  18
ENDBRANCH   1  17
TORSDOF 8
ENDMDL
MODEL 7
REMARK VINA RESULT:      -8.2      3.437     11.313
REMARK  8 active torsions:
REMARK  status: ('A' for Active; 'I' for Inactive)
REMARK    1  A    between atoms: C_3  and  N_4 
REMARK    2  A    between atoms: N_7  and  C_9 
REMARK    3  A    between atoms: C_9  and  C_10 
REMARK    4  A    between atoms: C_10  and  C_11 
REMARK    5  A    between atoms: C_11  and  N_12 
REMARK       I    between atoms: N_12  and  C_13 
REMARK    6  A    between atoms: C_13  and  C_14 
REMARK    7  A    between atoms: C_14  and  O_15 
REMARK    8  A    between atoms: O_15  and  C_16 
ROOT
HETATM    1  C   UNL     1      25.174  44.312  49.035  1.00  0.00     0.236 C 
ENDROOT
BRANCH   1   2
HETATM    2  N   UNL     1      24.162  45.363  49.438  1.00  0.00    -0.069 N 
HETATM    3  C   UNL     1      24.795  46.750  49.666  1.00  0.00     0.249 C 
HETATM    4  C   UNL     1      23.720  47.815  49.974  1.00  0.00     0.123 C 
HETATM    5  N   UNL     1      22.716  47.824  48.891  1.00  0.00    -0.280 NA
HETATM    6  C   UNL     1      22.016  46.540  48.732  1.00  0.00     0.123 C 
HETATM    7  C   UNL     1      23.045  45.445  48.382  1.00  0.00     0.249 C 
HETATM    8  H   UNL     1      23.722  45.080  50.323  1.00  0.00     0.280 HD
BRANCH   5   9
HETATM    9  C   UNL     1      21.935  48.992  48.865  1.00  0.00     0.018 A 
HETATM   10  C   UNL     1      22.472  50.189  48.334  1.00  0.00    -0.041 A 
HETATM   11  C   UNL     1      23.868  50.264  47.770  1.00  0.00     0.050 C 
HETATM   12  C   UNL     1      21.701  51.366  48.328  1.00  0.00     0.010 A 
HETATM   13  C   UNL     1      20.395  51.366  48.809  1.00  0.00     0.024 A 
HETATM   14  C   UNL     1      19.856  50.189  49.310  1.00  0.00     0.035 A 
HETATM   15  C   UNL     1      20.615  49.017  49.344  1.00  0.00     0.048 A 
HETATM   16 CL   UNL     1      18.241  50.173  49.903  1.00  0.00    -0.084 Cl
ENDBRANCH   5   9
ENDBRANCH   1   2
BRANCH   1  17
HETATM   17  C   UNL     1      26.247  44.120  50.098  1.00  0.00     0.047 C 
BRANCH  17  18
HETATM   18  C   UNL     1      27.019  42.826  49.833  1.00  0.00     0.124 C 
BRANCH  18  19
HETATM   19  N   UNL     1      27.908  42.484  50.915  1.00  0.00    -0.359 N 
HETATM   20  C   UNL     1      27.672  41.390  51.725  1.00  0.00     0.241 C 
HETATM   21  O   UNL     1      26.808  40.555  51.461  1.00  0.00    -0.271 OA
HETATM   22  H   UNL     1      28.557  43.176  51.286  1.00  0.00     0.162 HD
BRANCH  20  23
HETATM   23  C   UNL     1      28.548  41.311  52.977  1.00  0.00     0.278 C 
BRANCH  23  24
HETATM   24  O   UNL     1      29.571  42.303  52.925  1.00  0.00    -0.342 OA
BRANCH  24  25
HETATM   25  C   UNL     1      29.592  43.228  53.932  1.00  0.00     0.069 A 
HETATM   26  C   UNL     1      28.688  44.279  54.100  1.00  0.00     0.038 A 
HETATM   27  C   UNL     1      28.835  45.165  55.175  1.00  0.00     0.026 A 
HETATM   28  C   UNL     1      29.880  44.998  56.080  1.00  0.00     0.034 A 
HETATM   29 CL   UNL     1      30.055  46.087  57.398  1.00  0.00    -0.084 Cl
HETATM   30  C   UNL     1      30.784  43.952  55.920  1.00  0.00     0.026 A 
HETATM   31  C   UNL     1      30.639  43.072  54.845  1.00  0.00     0.038 A 
ENDBRANCH  24  25
ENDBRANCH  23  24
ENDBRANCH  20  23
ENDBRANCH  18  19
ENDBRANCH  17  18
ENDBRANCH   1  17
TORSDOF 8
ENDMDL
MODEL 8
REMARK VINA RESULT:      -8.2      2.709     11.988
REMARK  8 active torsions:
REMARK  status: ('A' for Active; 'I' for Inactive)
REMARK    1  A    between atoms: C_3  and  N_4 
REMARK    2  A    between atoms: N_7  and  C_9 
REMARK    3  A    between atoms: C_9  and  C_10 
REMARK    4  A    between atoms: C_10  and  C_11 
REMARK    5  A    between atoms: C_11  and  N_12 
REMARK       I    between atoms: N_12  and  C_13 
REMARK    6  A    between atoms: C_13  and  C_14 
REMARK    7  A    between atoms: C_14  and  O_15 
REMARK    8  A    between atoms: O_15  and  C_16 
ROOT
HETATM    1  C   UNL     1      22.980  45.084  48.569  1.00  0.00     0.236 C 
ENDROOT
BRANCH   1   2
HETATM    2  N   UNL     1      22.108  46.223  49.054  1.00  0.00    -0.069 N 
HETATM    3  C   UNL     1      22.768  47.603  48.873  1.00  0.00     0.249 C 
HETATM    4  C   UNL     1      21.810  48.743  49.282  1.00  0.00     0.123 C 
HETATM    5  N   UNL     1      20.548  48.617  48.526  1.00  0.00    -0.280 NA
HETATM    6  C   UNL     1      19.842  47.351  48.774  1.00  0.00     0.123 C 
HETATM    7  C   UNL     1      20.744  46.177  48.341  1.00  0.00     0.249 C 
HETATM    8  H   UNL     1      21.929  46.100  50.059  1.00  0.00     0.280 HD
BRANCH   5   9
HETATM    9  C   UNL     1      19.780  49.794  48.522  1.00  0.00     0.018 A 
HETATM   10  C   UNL     1      20.420  51.054  48.442  1.00  0.00    -0.041 A 
HETATM   11  C   UNL     1      21.918  51.192  48.344  1.00  0.00     0.050 C 
HETATM   12  C   UNL     1      19.657  52.236  48.462  1.00  0.00     0.010 A 
HETATM   13  C   UNL     1      18.266  52.185  48.526  1.00  0.00     0.024 A 
HETATM   14  C   UNL     1      17.633  50.952  48.582  1.00  0.00     0.035 A 
HETATM   15  C   UNL     1      18.377  49.769  48.585  1.00  0.00     0.048 A 
HETATM   16 CL   UNL     1      15.916  50.874  48.654  1.00  0.00    -0.084 Cl
ENDBRANCH   5   9
ENDBRANCH   1   2
BRANCH   1  17
HETATM   17  C   UNL     1      24.271  44.978  49.367  1.00  0.00     0.047 C 
BRANCH  17  18
HETATM   18  C   UNL     1      24.280  43.681  50.178  1.00  0.00     0.124 C 
BRANCH  18  19
HETATM   19  N   UNL     1      25.551  43.436  50.813  1.00  0.00    -0.359 N 
HETATM   20  C   UNL     1      25.783  43.798  52.127  1.00  0.00     0.241 C 
HETATM   21  O   UNL     1      24.880  44.174  52.871  1.00  0.00    -0.271 OA
HETATM   22  H   UNL     1      26.382  43.259  50.251  1.00  0.00     0.162 HD
BRANCH  20  23
HETATM   23  C   UNL     1      27.246  43.715  52.571  1.00  0.00     0.278 C 
BRANCH  23  24
HETATM   24  O   UNL     1      27.558  44.800  53.442  1.00  0.00    -0.342 OA
BRANCH  24  25
HETATM   25  C   UNL     1      28.575  44.606  54.335  1.00  0.00     0.069 A 
HETATM   26  C   UNL     1      28.976  45.499  55.330  1.00  0.00     0.038 A 
HETATM   27  C   UNL     1      30.047  45.177  56.172  1.00  0.00     0.026 A 
HETATM   28  C   UNL     1      30.714  43.963  56.021  1.00  0.00     0.034 A 
HETATM   29 CL   UNL     1      32.028  43.571  57.058  1.00  0.00    -0.084 Cl
HETATM   30  C   UNL     1      30.320  43.066  55.032  1.00  0.00     0.026 A 
HETATM   31  C   UNL     1      29.253  43.392  54.190  1.00  0.00     0.038 A 
ENDBRANCH  24  25
ENDBRANCH  23  24
ENDBRANCH  20  23
ENDBRANCH  18  19
ENDBRANCH  17  18
ENDBRANCH   1  17
TORSDOF 8
ENDMDL
MODEL 9
REMARK VINA RESULT:      -8.0      2.012      2.849
REMARK  8 active torsions:
REMARK  status: ('A' for Active; 'I' for Inactive)
REMARK    1  A    between atoms: C_3  and  N_4 
REMARK    2  A    between atoms: N_7  and  C_9 
REMARK    3  A    between atoms: C_9  and  C_10 
REMARK    4  A    between atoms: C_10  and  C_11 
REMARK    5  A    between atoms: C_11  and  N_12 
REMARK       I    between atoms: N_12  and  C_13 
REMARK    6  A    between atoms: C_13  and  C_14 
REMARK    7  A    between atoms: C_14  and  O_15 
REMARK    8  A    between atoms: O_15  and  C_16 
ROOT
HETATM    1  C   UNL     1      24.749  47.944  49.745  1.00  0.00     0.236 C 
ENDROOT
BRANCH   1   2
HETATM    2  N   UNL     1      25.832  47.158  50.452  1.00  0.00    -0.069 N 
HETATM    3  C   UNL     1      25.412  46.689  51.859  1.00  0.00     0.249 C 
HETATM    4  C   UNL     1      26.502  45.806  52.505  1.00  0.00     0.123 C 
HETATM    5  N   UNL     1      26.817  44.679  51.605  1.00  0.00    -0.280 NA
HETATM    6  C   UNL     1      27.330  45.104  50.293  1.00  0.00     0.123 C 
HETATM    7  C   UNL     1      26.259  45.959  49.586  1.00  0.00     0.249 C 
HETATM    8  H   UNL     1      26.659  47.759  50.566  1.00  0.00     0.280 HD
BRANCH   5   9
HETATM    9  C   UNL     1      27.485  43.622  52.247  1.00  0.00     0.018 A 
HETATM   10  C   UNL     1      27.174  42.283  51.911  1.00  0.00    -0.041 A 
HETATM   11  C   UNL     1      26.147  41.933  50.864  1.00  0.00     0.050 C 
HETATM   12  C   UNL     1      27.823  41.222  52.569  1.00  0.00     0.010 A 
HETATM   13  C   UNL     1      28.800  41.469  53.529  1.00  0.00     0.024 A 
HETATM   14  C   UNL     1      29.125  42.780  53.845  1.00  0.00     0.035 A 
HETATM   15  C   UNL     1      28.475  43.846  53.218  1.00  0.00     0.048 A 
HETATM   16 CL   UNL     1      30.336  43.100  55.026  1.00  0.00    -0.084 Cl
ENDBRANCH   5   9
ENDBRANCH   1   2
BRANCH   1  17
HETATM   17  C   UNL     1      23.485  47.119  49.550  1.00  0.00     0.047 C 
BRANCH  17  18
HETATM   18  C   UNL     1      22.911  47.365  48.153  1.00  0.00     0.124 C 
BRANCH  18  19
HETATM   19  N   UNL     1      21.903  48.396  48.145  1.00  0.00    -0.359 N 
HETATM   20  C   UNL     1      22.200  49.694  47.778  1.00  0.00     0.241 C 
HETATM   21  O   UNL     1      23.278  50.000  47.269  1.00  0.00    -0.271 OA
HETATM   22  H   UNL     1      21.037  48.272  48.667  1.00  0.00     0.162 HD
BRANCH  20  23
HETATM   23  C   UNL     1      21.100  50.717  48.070  1.00  0.00     0.278 C 
BRANCH  23  24
HETATM   24  O   UNL     1      19.831  50.203  47.672  1.00  0.00    -0.342 OA
BRANCH  24  25
HETATM   25  C   UNL     1      18.724  50.778  48.233  1.00  0.00     0.069 A 
HETATM   26  C   UNL     1      17.397  50.498  47.904  1.00  0.00     0.038 A 
HETATM   27  C   UNL     1      16.356  51.173  48.552  1.00  0.00     0.026 A 
HETATM   28  C   UNL     1      16.641  52.123  49.530  1.00  0.00     0.034 A 
HETATM   29 CL   UNL     1      15.360  52.949  50.324  1.00  0.00    -0.084 Cl
HETATM   30  C   UNL     1      17.963  52.407  49.865  1.00  0.00     0.026 A 
HETATM   31  C   UNL     1      19.000  51.735  49.214  1.00  0.00     0.038 A 
ENDBRANCH  24  25
ENDBRANCH  23  24
ENDBRANCH  20  23
ENDBRANCH  18  19
ENDBRANCH  17  18
ENDBRANCH   1  17
TORSDOF 8
ENDMDL
MODEL 10
REMARK VINA RESULT:      -7.9      1.515      2.422
REMARK  8 active torsions:
REMARK  status: ('A' for Active; 'I' for Inactive)
REMARK    1  A    between atoms: C_3  and  N_4 
REMARK    2  A    between atoms: N_7  and  C_9 
REMARK    3  A    between atoms: C_9  and  C_10 
REMARK    4  A    between atoms: C_10  and  C_11 
REMARK    5  A    between atoms: C_11  and  N_12 
REMARK       I    between atoms: N_12  and  C_13 
REMARK    6  A    between atoms: C_13  and  C_14 
REMARK    7  A    between atoms: C_14  and  O_15 
REMARK    8  A    between atoms: O_15  and  C_16 
ROOT
HETATM    1  C   UNL     1      23.699  45.142  49.497  1.00  0.00     0.236 C 
ENDROOT
BRANCH   1   2
HETATM    2  N   UNL     1      24.798  44.692  50.437  1.00  0.00    -0.069 N 
HETATM    3  C   UNL     1      26.093  45.513  50.281  1.00  0.00     0.249 C 
HETATM    4  C   UNL     1      27.152  45.094  51.324  1.00  0.00     0.123 C 
HETATM    5  N   UNL     1      26.576  45.201  52.679  1.00  0.00    -0.280 NA
HETATM    6  C   UNL     1      25.403  44.336  52.885  1.00  0.00     0.123 C 
HETATM    7  C   UNL     1      24.295  44.742  51.891  1.00  0.00     0.249 C 
HETATM    8  H   UNL     1      25.032  43.712  50.230  1.00  0.00     0.280 HD
BRANCH   5   9
HETATM    9  C   UNL     1      27.544  45.228  53.697  1.00  0.00     0.018 A 
HETATM   10  C   UNL     1      27.569  46.302  54.619  1.00  0.00    -0.041 A 
HETATM   11  C   UNL     1      26.574  47.433  54.564  1.00  0.00     0.050 C 
HETATM   12  C   UNL     1      28.551  46.345  55.624  1.00  0.00     0.010 A 
HETATM   13  C   UNL     1      29.488  45.323  55.751  1.00  0.00     0.024 A 
HETATM   14  C   UNL     1      29.453  44.256  54.864  1.00  0.00     0.035 A 
HETATM   15  C   UNL     1      28.498  44.208  53.846  1.00  0.00     0.048 A 
HETATM   16 CL   UNL     1      30.600  42.982  55.013  1.00  0.00    -0.084 Cl
ENDBRANCH   5   9
ENDBRANCH   1   2
BRANCH   1  17
HETATM   17  C   UNL     1      23.994  46.504  48.888  1.00  0.00     0.047 C 
BRANCH  17  18
HETATM   18  C   UNL     1      23.861  47.593  49.956  1.00  0.00     0.124 C 
BRANCH  18  19
HETATM   19  N   UNL     1      22.753  48.480  49.702  1.00  0.00    -0.359 N 
HETATM   20  C   UNL     1      22.953  49.799  49.342  1.00  0.00     0.241 C 
HETATM   21  O   UNL     1      24.063  50.236  49.044  1.00  0.00    -0.271 OA
HETATM   22  H   UNL     1      21.822  48.253  50.047  1.00  0.00     0.162 HD
BRANCH  20  23
HETATM   23  C   UNL     1      21.696  50.673  49.364  1.00  0.00     0.278 C 
BRANCH  23  24
HETATM   24  O   UNL     1      20.665  50.071  48.585  1.00  0.00    -0.342 OA
BRANCH  24  25
HETATM   25  C   UNL     1      19.387  50.509  48.800  1.00  0.00     0.069 A 
HETATM   26  C   UNL     1      18.219  49.883  48.363  1.00  0.00     0.038 A 
HETATM   27  C   UNL     1      16.970  50.451  48.645  1.00  0.00     0.026 A 
HETATM   28  C   UNL     1      16.891  51.639  49.366  1.00  0.00     0.034 A 
HETATM   29 CL   UNL     1      15.356  52.332  49.711  1.00  0.00    -0.084 Cl
HETATM   30  C   UNL     1      18.051  52.270  49.807  1.00  0.00     0.026 A 
HETATM   31  C   UNL     1      19.296  51.704  49.521  1.00  0.00     0.038 A 
ENDBRANCH  24  25
ENDBRANCH  23  24
ENDBRANCH  20  23
ENDBRANCH  18  19
ENDBRANCH  17  18
ENDBRANCH   1  17
TORSDOF 8
ENDMDL
