MODEL 1
REMARK VINA RESULT:      -8.9      0.000      0.000
REMARK  7 active torsions:
REMARK  status: ('A' for Active; 'I' for Inactive)
REMARK    1  A    between atoms: O_2  and  C_3 
REMARK    2  A    between atoms: C_6  and  C_7 
REMARK    3  A    between atoms: C_7  and  C_8 
REMARK    4  A    between atoms: C_7  and  C_14 
REMARK    5  A    between atoms: C_14  and  C_15 
REMARK       I    between atoms: C_15  and  N_16 
REMARK    6  A    between atoms: N_16  and  C_17 
REMARK    7  A    between atoms: C_17  and  C_18 
ROOT
HETATM    1  C   UNL     1      26.169  46.789  51.335  1.00  0.00     0.060 C 
ENDROOT
BRANCH   1   2
HETATM    2  C   UNL     1      25.883  45.340  50.928  1.00  0.00    -0.049 A 
HETATM    3  C   UNL     1      26.842  44.652  50.158  1.00  0.00     0.010 A 
HETATM    4  C   UNL     1      26.640  43.329  49.755  1.00  0.00     0.037 A 
HETATM    5  C   UNL     1      25.483  42.647  50.119  1.00  0.00     0.068 A 
HETATM    6  C   UNL     1      24.537  43.298  50.907  1.00  0.00     0.037 A 
HETATM    7  C   UNL     1      24.740  44.627  51.312  1.00  0.00     0.010 A 
BRANCH   5   8
HETATM    8  O   UNL     1      25.401  41.363  49.656  1.00  0.00    -0.356 OA
HETATM    9  C   UNL     1      26.185  40.388  50.333  1.00  0.00     0.210 C 
ENDBRANCH   5   8
ENDBRANCH   1   2
BRANCH   1  10
HETATM   10  C   UNL     1      26.005  47.829  50.220  1.00  0.00    -0.049 A 
HETATM   11  C   UNL     1      27.092  48.508  49.651  1.00  0.00     0.008 A 
HETATM   12  C   UNL     1      26.896  49.446  48.633  1.00  0.00     0.001 A 
HETATM   13  C   UNL     1      25.613  49.720  48.170  1.00  0.00     0.000 A 
HETATM   14  C   UNL     1      24.521  49.057  48.722  1.00  0.00     0.001 A 
HETATM   15  C   UNL     1      24.716  48.120  49.738  1.00  0.00     0.008 A 
ENDBRANCH   1  10
BRANCH   1  16
HETATM   16  C   UNL     1      25.621  47.308  52.683  1.00  0.00     0.116 C 
BRANCH  16  17
HETATM   17  C   UNL     1      26.113  46.705  53.985  1.00  0.00     0.218 C 
HETATM   18  N   UNL     1      27.354  47.054  54.426  1.00  0.00    -0.355 N 
HETATM   19  H   UNL     1      27.892  47.799  54.001  1.00  0.00     0.162 HD
HETATM   20  O   UNL     1      25.424  45.877  54.585  1.00  0.00    -0.274 OA
BRANCH  18  21
HETATM   21  C   UNL     1      27.840  46.575  55.702  1.00  0.00     0.184 C 
BRANCH  21  22
HETATM   22  C   UNL     1      28.927  45.568  55.506  1.00  0.00     0.080 A 
HETATM   23  N   UNL     1      30.029  45.544  56.295  1.00  0.00    -0.177 NA
HETATM   24  N   UNL     1      30.749  44.483  55.854  1.00  0.00    -0.281 N 
HETATM   25  H   UNL     1      31.624  44.261  56.316  1.00  0.00     0.189 HD
HETATM   26  C   UNL     1      30.138  43.867  54.824  1.00  0.00     0.036 A 
HETATM   27  C   UNL     1      28.979  44.531  54.569  1.00  0.00    -0.006 A 
HETATM   28  C   UNL     1      30.401  42.704  53.971  1.00  0.00     0.059 C 
HETATM   29  C   UNL     1      28.231  43.914  53.462  1.00  0.00     0.043 C 
HETATM   30  C   UNL     1      29.296  42.915  52.876  1.00  0.00     0.011 C 
ENDBRANCH  21  22
ENDBRANCH  18  21
ENDBRANCH  16  17
ENDBRANCH   1  16
TORSDOF 7
ENDMDL
MODEL 2
REMARK VINA RESULT:      -8.7      1.262      2.006
REMARK  7 active torsions:
REMARK  status: ('A' for Active; 'I' for Inactive)
REMARK    1  A    between atoms: O_2  and  C_3 
REMARK    2  A    between atoms: C_6  and  C_7 
REMARK    3  A    between atoms: C_7  and  C_8 
REMARK    4  A    between atoms: C_7  and  C_14 
REMARK    5  A    between atoms: C_14  and  C_15 
REMARK       I    between atoms: C_15  and  N_16 
REMARK    6  A    between atoms: N_16  and  C_17 
REMARK    7  A    between atoms: C_17  and  C_18 
ROOT
HETATM    1  C   UNL     1      26.032  46.730  51.283  1.00  0.00     0.060 C 
ENDROOT
BRANCH   1   2
HETATM    2  C   UNL     1      25.821  45.291  50.801  1.00  0.00    -0.049 A 
HETATM    3  C   UNL     1      24.650  44.611  51.192  1.00  0.00     0.010 A 
HETATM    4  C   UNL     1      24.399  43.297  50.785  1.00  0.00     0.037 A 
HETATM    5  C   UNL     1      25.301  42.626  49.965  1.00  0.00     0.068 A 
HETATM    6  C   UNL     1      26.449  43.291  49.541  1.00  0.00     0.037 A 
HETATM    7  C   UNL     1      26.700  44.611  49.949  1.00  0.00     0.010 A 
BRANCH   5   8
HETATM    8  O   UNL     1      24.946  41.345  49.644  1.00  0.00    -0.356 OA
HETATM    9  C   UNL     1      25.628  40.747  48.549  1.00  0.00     0.210 C 
ENDBRANCH   5   8
ENDBRANCH   1   2
BRANCH   1  10
HETATM   10  C   UNL     1      25.964  47.804  50.191  1.00  0.00    -0.049 A 
HETATM   11  C   UNL     1      27.106  48.427  49.667  1.00  0.00     0.008 A 
HETATM   12  C   UNL     1      26.996  49.399  48.669  1.00  0.00     0.001 A 
HETATM   13  C   UNL     1      25.745  49.766  48.182  1.00  0.00     0.000 A 
HETATM   14  C   UNL     1      24.600  49.161  48.690  1.00  0.00     0.001 A 
HETATM   15  C   UNL     1      24.708  48.189  49.685  1.00  0.00     0.008 A 
ENDBRANCH   1  10
BRANCH   1  16
HETATM   16  C   UNL     1      25.335  47.192  52.582  1.00  0.00     0.116 C 
BRANCH  16  17
HETATM   17  C   UNL     1      26.105  47.213  53.889  1.00  0.00     0.218 C 
HETATM   18  N   UNL     1      27.294  46.552  53.946  1.00  0.00    -0.355 N 
HETATM   19  H   UNL     1      27.746  46.177  53.121  1.00  0.00     0.162 HD
HETATM   20  O   UNL     1      25.625  47.765  54.882  1.00  0.00    -0.274 OA
BRANCH  18  21
HETATM   21  C   UNL     1      28.109  46.609  55.140  1.00  0.00     0.184 C 
BRANCH  21  22
HETATM   22  C   UNL     1      28.975  45.395  55.245  1.00  0.00     0.080 A 
HETATM   23  N   UNL     1      28.944  44.413  54.312  1.00  0.00    -0.177 NA
HETATM   24  N   UNL     1      29.883  43.521  54.715  1.00  0.00    -0.281 N 
HETATM   25  H   UNL     1      30.046  42.695  54.149  1.00  0.00     0.189 HD
HETATM   26  C   UNL     1      30.477  43.914  55.858  1.00  0.00     0.036 A 
HETATM   27  C   UNL     1      29.922  45.099  56.230  1.00  0.00    -0.006 A 
HETATM   28  C   UNL     1      31.533  43.406  56.739  1.00  0.00     0.059 C 
HETATM   29  C   UNL     1      30.525  45.616  57.469  1.00  0.00     0.043 C 
HETATM   30  C   UNL     1      31.355  44.374  57.962  1.00  0.00     0.011 C 
ENDBRANCH  21  22
ENDBRANCH  18  21
ENDBRANCH  16  17
ENDBRANCH   1  16
TORSDOF 7
ENDMDL
MODEL 3
REMARK VINA RESULT:      -8.5      3.134      7.263
REMARK  7 active torsions:
REMARK  status: ('A' for Active; 'I' for Inactive)
REMARK    1  A    between atoms: O_2  and  C_3 
REMARK    2  A    between atoms: C_6  and  C_7 
REMARK    3  A    between atoms: C_7  and  C_8 
REMARK    4  A    between atoms: C_7  and  C_14 
REMARK    5  A    between atoms: C_14  and  C_15 
REMARK       I    between atoms: C_15  and  N_16 
REMARK    6  A    between atoms: N_16  and  C_17 
REMARK    7  A    between atoms: C_17  and  C_18 
ROOT
HETATM    1  C   UNL     1      28.433  43.441  53.473  1.00  0.00     0.060 C 
ENDROOT
BRANCH   1   2
HETATM    2  C   UNL     1      27.435  44.507  53.008  1.00  0.00    -0.049 A 
HETATM    3  C   UNL     1      27.295  44.747  51.627  1.00  0.00     0.010 A 
HETATM    4  C   UNL     1      26.402  45.706  51.140  1.00  0.00     0.037 A 
HETATM    5  C   UNL     1      25.611  46.444  52.014  1.00  0.00     0.068 A 
HETATM    6  C   UNL     1      25.711  46.200  53.381  1.00  0.00     0.037 A 
HETATM    7  C   UNL     1      26.607  45.237  53.871  1.00  0.00     0.010 A 
BRANCH   5   8
HETATM    8  O   UNL     1      24.785  47.355  51.415  1.00  0.00    -0.356 OA
HETATM    9  C   UNL     1      24.887  47.478  50.002  1.00  0.00     0.210 C 
ENDBRANCH   5   8
ENDBRANCH   1   2
BRANCH   1  10
HETATM   10  C   UNL     1      29.326  43.847  54.651  1.00  0.00    -0.049 A 
HETATM   11  C   UNL     1      29.217  45.089  55.293  1.00  0.00     0.008 A 
HETATM   12  C   UNL     1      30.050  45.415  56.366  1.00  0.00     0.001 A 
HETATM   13  C   UNL     1      31.006  44.507  56.813  1.00  0.00     0.000 A 
HETATM   14  C   UNL     1      31.130  43.270  56.190  1.00  0.00     0.001 A 
HETATM   15  C   UNL     1      30.297  42.942  55.118  1.00  0.00     0.008 A 
ENDBRANCH   1  10
BRANCH   1  16
HETATM   16  C   UNL     1      27.958  41.976  53.595  1.00  0.00     0.116 C 
BRANCH  16  17
HETATM   17  C   UNL     1      27.804  41.121  52.351  1.00  0.00     0.218 C 
HETATM   18  N   UNL     1      26.556  40.964  51.830  1.00  0.00    -0.355 N 
HETATM   19  H   UNL     1      25.762  41.504  52.150  1.00  0.00     0.162 HD
HETATM   20  O   UNL     1      28.782  40.541  51.873  1.00  0.00    -0.274 OA
BRANCH  18  21
HETATM   21  C   UNL     1      26.363  40.229  50.599  1.00  0.00     0.184 C 
BRANCH  21  22
HETATM   22  C   UNL     1      25.769  41.110  49.547  1.00  0.00     0.080 A 
HETATM   23  N   UNL     1      26.089  40.973  48.238  1.00  0.00    -0.177 NA
HETATM   24  N   UNL     1      25.330  41.896  47.596  1.00  0.00    -0.281 N 
HETATM   25  H   UNL     1      25.396  41.965  46.586  1.00  0.00     0.189 HD
HETATM   26  C   UNL     1      24.571  42.596  48.461  1.00  0.00     0.036 A 
HETATM   27  C   UNL     1      24.826  42.129  49.712  1.00  0.00    -0.006 A 
HETATM   28  C   UNL     1      23.576  43.670  48.377  1.00  0.00     0.059 C 
HETATM   29  C   UNL     1      24.023  42.829  50.728  1.00  0.00     0.043 C 
HETATM   30  C   UNL     1      23.439  44.032  49.898  1.00  0.00     0.011 C 
ENDBRANCH  21  22
ENDBRANCH  18  21
ENDBRANCH  16  17
ENDBRANCH   1  16
TORSDOF 7
ENDMDL
MODEL 4
REMARK VINA RESULT:      -8.3      4.028      7.984
REMARK  7 active torsions:
REMARK  status: ('A' for Active; 'I' for Inactive)
REMARK    1  A    between atoms: O_2  and  C_3 
REMARK    2  A    between atoms: C_6  and  C_7 
REMARK    3  A    between atoms: C_7  and  C_8 
REMARK    4  A    between atoms: C_7  and  C_14 
REMARK    5  A    between atoms: C_14  and  C_15 
REMARK       I    between atoms: C_15  and  N_16 
REMARK    6  A    between atoms: N_16  and  C_17 
REMARK    7  A    between atoms: C_17  and  C_18 
ROOT
HETATM    1  C   UNL     1      24.797  46.772  50.540  1.00  0.00     0.060 C 
ENDROOT
BRANCH   1   2
HETATM    2  C   UNL     1      25.541  46.415  51.830  1.00  0.00    -0.049 A 
HETATM    3  C   UNL     1      26.334  45.250  51.853  1.00  0.00     0.010 A 
HETATM    4  C   UNL     1      27.038  44.869  53.000  1.00  0.00     0.037 A 
HETATM    5  C   UNL     1      26.984  45.646  54.153  1.00  0.00     0.068 A 
HETATM    6  C   UNL     1      26.232  46.818  54.141  1.00  0.00     0.037 A 
HETATM    7  C   UNL     1      25.526  47.200  52.990  1.00  0.00     0.010 A 
BRANCH   5   8
HETATM    8  O   UNL     1      27.709  45.163  55.207  1.00  0.00    -0.356 OA
HETATM    9  C   UNL     1      28.973  44.587  54.904  1.00  0.00     0.210 C 
ENDBRANCH   5   8
ENDBRANCH   1   2
BRANCH   1  10
HETATM   10  C   UNL     1      25.404  47.924  49.729  1.00  0.00    -0.049 A 
HETATM   11  C   UNL     1      24.621  48.873  49.057  1.00  0.00     0.008 A 
HETATM   12  C   UNL     1      25.217  49.909  48.333  1.00  0.00     0.001 A 
HETATM   13  C   UNL     1      26.604  50.011  48.268  1.00  0.00     0.000 A 
HETATM   14  C   UNL     1      27.399  49.078  48.927  1.00  0.00     0.001 A 
HETATM   15  C   UNL     1      26.804  48.044  49.652  1.00  0.00     0.008 A 
ENDBRANCH   1  10
BRANCH   1  16
HETATM   16  C   UNL     1      24.298  45.632  49.625  1.00  0.00     0.116 C 
BRANCH  16  17
HETATM   17  C   UNL     1      23.078  45.840  48.748  1.00  0.00     0.218 C 
HETATM   18  N   UNL     1      22.082  46.644  49.214  1.00  0.00    -0.355 N 
HETATM   19  H   UNL     1      22.188  47.213  50.045  1.00  0.00     0.162 HD
HETATM   20  O   UNL     1      22.976  45.243  47.674  1.00  0.00    -0.274 OA
BRANCH  18  21
HETATM   21  C   UNL     1      20.934  46.944  48.387  1.00  0.00     0.184 C 
BRANCH  21  22
HETATM   22  C   UNL     1      20.121  48.042  48.993  1.00  0.00     0.080 A 
HETATM   23  N   UNL     1      19.059  47.785  49.794  1.00  0.00    -0.177 NA
HETATM   24  N   UNL     1      18.614  49.006  50.184  1.00  0.00    -0.281 N 
HETATM   25  H   UNL     1      17.818  49.057  50.812  1.00  0.00     0.189 HD
HETATM   26  C   UNL     1      19.353  49.994  49.645  1.00  0.00     0.036 A 
HETATM   27  C   UNL     1      20.318  49.422  48.877  1.00  0.00    -0.006 A 
HETATM   28  C   UNL     1      19.375  51.459  49.701  1.00  0.00     0.059 C 
HETATM   29  C   UNL     1      21.190  50.432  48.257  1.00  0.00     0.043 C 
HETATM   30  C   UNL     1      20.395  51.759  48.546  1.00  0.00     0.011 C 
ENDBRANCH  21  22
ENDBRANCH  18  21
ENDBRANCH  16  17
ENDBRANCH   1  16
TORSDOF 7
ENDMDL
MODEL 5
REMARK VINA RESULT:      -8.0      2.977      7.720
REMARK  7 active torsions:
REMARK  status: ('A' for Active; 'I' for Inactive)
REMARK    1  A    between atoms: O_2  and  C_3 
REMARK    2  A    between atoms: C_6  and  C_7 
REMARK    3  A    between atoms: C_7  and  C_8 
REMARK    4  A    between atoms: C_7  and  C_14 
REMARK    5  A    between atoms: C_14  and  C_15 
REMARK       I    between atoms: C_15  and  N_16 
REMARK    6  A    between atoms: N_16  and  C_17 
REMARK    7  A    between atoms: C_17  and  C_18 
ROOT
HETATM    1  C   UNL     1      27.276  44.233  51.772  1.00  0.00     0.060 C 
ENDROOT
BRANCH   1   2
HETATM    2  C   UNL     1      28.355  43.911  52.811  1.00  0.00    -0.049 A 
HETATM    3  C   UNL     1      28.245  44.476  54.097  1.00  0.00     0.010 A 
HETATM    4  C   UNL     1      29.196  44.221  55.089  1.00  0.00     0.037 A 
HETATM    5  C   UNL     1      30.279  43.385  54.833  1.00  0.00     0.068 A 
HETATM    6  C   UNL     1      30.389  42.792  53.578  1.00  0.00     0.037 A 
HETATM    7  C   UNL     1      29.433  43.047  52.582  1.00  0.00     0.010 A 
BRANCH   5   8
HETATM    8  O   UNL     1      31.142  43.223  55.881  1.00  0.00    -0.356 OA
HETATM    9  C   UNL     1      31.124  44.227  56.887  1.00  0.00     0.210 C 
ENDBRANCH   5   8
ENDBRANCH   1   2
BRANCH   1  10
HETATM   10  C   UNL     1      26.829  43.051  50.903  1.00  0.00    -0.049 A 
HETATM   11  C   UNL     1      26.467  41.808  51.441  1.00  0.00     0.008 A 
HETATM   12  C   UNL     1      26.062  40.759  50.611  1.00  0.00     0.001 A 
HETATM   13  C   UNL     1      26.015  40.936  49.230  1.00  0.00     0.000 A 
HETATM   14  C   UNL     1      26.371  42.161  48.677  1.00  0.00     0.001 A 
HETATM   15  C   UNL     1      26.774  43.210  49.506  1.00  0.00     0.008 A 
ENDBRANCH   1  10
BRANCH   1  16
HETATM   16  C   UNL     1      26.082  45.121  52.185  1.00  0.00     0.116 C 
BRANCH  16  17
HETATM   17  C   UNL     1      25.915  46.501  51.578  1.00  0.00     0.218 C 
HETATM   18  N   UNL     1      25.496  46.587  50.285  1.00  0.00    -0.355 N 
HETATM   19  H   UNL     1      25.158  45.784  49.769  1.00  0.00     0.162 HD
HETATM   20  O   UNL     1      26.213  47.505  52.229  1.00  0.00    -0.274 OA
BRANCH  18  21
HETATM   21  C   UNL     1      25.241  47.877  49.682  1.00  0.00     0.184 C 
BRANCH  21  22
HETATM   22  C   UNL     1      23.794  48.018  49.333  1.00  0.00     0.080 A 
HETATM   23  N   UNL     1      22.978  46.942  49.219  1.00  0.00    -0.177 NA
HETATM   24  N   UNL     1      21.755  47.460  48.946  1.00  0.00    -0.281 N 
HETATM   25  H   UNL     1      20.971  46.826  48.832  1.00  0.00     0.189 HD
HETATM   26  C   UNL     1      21.794  48.804  48.878  1.00  0.00     0.036 A 
HETATM   27  C   UNL     1      23.075  49.197  49.112  1.00  0.00    -0.006 A 
HETATM   28  C   UNL     1      20.834  49.887  48.641  1.00  0.00     0.059 C 
HETATM   29  C   UNL     1      23.210  50.662  49.074  1.00  0.00     0.043 C 
HETATM   30  C   UNL     1      21.823  51.094  48.470  1.00  0.00     0.011 C 
ENDBRANCH  21  22
ENDBRANCH  18  21
ENDBRANCH  16  17
ENDBRANCH   1  16
TORSDOF 7
ENDMDL
MODEL 6
REMARK VINA RESULT:      -7.9      2.803      5.416
REMARK  7 active torsions:
REMARK  status: ('A' for Active; 'I' for Inactive)
REMARK    1  A    between atoms: O_2  and  C_3 
REMARK    2  A    between atoms: C_6  and  C_7 
REMARK    3  A    between atoms: C_7  and  C_8 
REMARK    4  A    between atoms: C_7  and  C_14 
REMARK    5  A    between atoms: C_14  and  C_15 
REMARK       I    between atoms: C_15  and  N_16 
REMARK    6  A    between atoms: N_16  and  C_17 
REMARK    7  A    between atoms: C_17  and  C_18 
ROOT
HETATM    1  C   UNL     1      25.322  46.022  52.053  1.00  0.00     0.060 C 
ENDROOT
BRANCH   1   2
HETATM    2  C   UNL     1      26.436  46.022  53.105  1.00  0.00    -0.049 A 
HETATM    3  C   UNL     1      26.646  47.187  53.868  1.00  0.00     0.010 A 
HETATM    4  C   UNL     1      27.646  47.250  54.842  1.00  0.00     0.037 A 
HETATM    5  C   UNL     1      28.457  46.148  55.096  1.00  0.00     0.068 A 
HETATM    6  C   UNL     1      28.244  44.976  54.375  1.00  0.00     0.037 A 
HETATM    7  C   UNL     1      27.240  44.913  53.397  1.00  0.00     0.010 A 
BRANCH   5   8
HETATM    8  O   UNL     1      29.401  46.338  56.067  1.00  0.00    -0.356 OA
HETATM    9  C   UNL     1      29.012  46.049  57.403  1.00  0.00     0.210 C 
ENDBRANCH   5   8
ENDBRANCH   1   2
BRANCH   1  10
HETATM   10  C   UNL     1      25.476  47.061  50.935  1.00  0.00    -0.049 A 
HETATM   11  C   UNL     1      26.723  47.555  50.525  1.00  0.00     0.008 A 
HETATM   12  C   UNL     1      26.815  48.499  49.498  1.00  0.00     0.001 A 
HETATM   13  C   UNL     1      25.665  48.964  48.867  1.00  0.00     0.000 A 
HETATM   14  C   UNL     1      24.419  48.487  49.260  1.00  0.00     0.001 A 
HETATM   15  C   UNL     1      24.325  47.543  50.284  1.00  0.00     0.008 A 
ENDBRANCH   1  10
BRANCH   1  16
HETATM   16  C   UNL     1      24.806  44.671  51.509  1.00  0.00     0.116 C 
BRANCH  16  17
HETATM   17  C   UNL     1      25.565  43.957  50.408  1.00  0.00     0.218 C 
HETATM   18  N   UNL     1      26.325  42.878  50.746  1.00  0.00    -0.355 N 
HETATM   19  H   UNL     1      26.287  42.454  51.665  1.00  0.00     0.162 HD
HETATM   20  O   UNL     1      25.536  44.389  49.253  1.00  0.00    -0.274 OA
BRANCH  18  21
HETATM   21  C   UNL     1      27.003  42.109  49.725  1.00  0.00     0.184 C 
BRANCH  21  22
HETATM   22  C   UNL     1      27.878  41.068  50.344  1.00  0.00     0.080 A 
HETATM   23  N   UNL     1      28.229  41.115  51.652  1.00  0.00    -0.177 NA
HETATM   24  N   UNL     1      28.971  39.998  51.854  1.00  0.00    -0.281 N 
HETATM   25  H   UNL     1      29.336  39.816  52.783  1.00  0.00     0.189 HD
HETATM   26  C   UNL     1      29.096  39.279  50.722  1.00  0.00     0.036 A 
HETATM   27  C   UNL     1      28.419  39.929  49.738  1.00  0.00    -0.006 A 
HETATM   28  C   UNL     1      29.737  38.022  50.324  1.00  0.00     0.059 C 
HETATM   29  C   UNL     1      28.487  39.203  48.460  1.00  0.00     0.043 C 
HETATM   30  C   UNL     1      29.592  38.125  48.764  1.00  0.00     0.011 C 
ENDBRANCH  21  22
ENDBRANCH  18  21
ENDBRANCH  16  17
ENDBRANCH   1  16
TORSDOF 7
ENDMDL
MODEL 7
REMARK VINA RESULT:      -7.9      3.422      7.327
REMARK  7 active torsions:
REMARK  status: ('A' for Active; 'I' for Inactive)
REMARK    1  A    between atoms: O_2  and  C_3 
REMARK    2  A    between atoms: C_6  and  C_7 
REMARK    3  A    between atoms: C_7  and  C_8 
REMARK    4  A    between atoms: C_7  and  C_14 
REMARK    5  A    between atoms: C_14  and  C_15 
REMARK       I    between atoms: C_15  and  N_16 
REMARK    6  A    between atoms: N_16  and  C_17 
REMARK    7  A    between atoms: C_17  and  C_18 
ROOT
HETATM    1  C   UNL     1      28.181  43.645  53.325  1.00  0.00     0.060 C 
ENDROOT
BRANCH   1   2
HETATM    2  C   UNL     1      27.265  44.764  52.816  1.00  0.00    -0.049 A 
HETATM    3  C   UNL     1      27.074  44.902  51.427  1.00  0.00     0.010 A 
HETATM    4  C   UNL     1      26.251  45.902  50.901  1.00  0.00     0.037 A 
HETATM    5  C   UNL     1      25.583  46.785  51.744  1.00  0.00     0.068 A 
HETATM    6  C   UNL     1      25.734  46.645  53.121  1.00  0.00     0.037 A 
HETATM    7  C   UNL     1      26.559  45.641  53.650  1.00  0.00     0.010 A 
BRANCH   5   8
HETATM    8  O   UNL     1      24.816  47.721  51.107  1.00  0.00    -0.356 OA
HETATM    9  C   UNL     1      24.146  47.302  49.924  1.00  0.00     0.210 C 
ENDBRANCH   5   8
ENDBRANCH   1   2
BRANCH   1  10
HETATM   10  C   UNL     1      29.092  44.025  54.499  1.00  0.00    -0.049 A 
HETATM   11  C   UNL     1      28.956  45.229  55.205  1.00  0.00     0.008 A 
HETATM   12  C   UNL     1      29.807  45.532  56.272  1.00  0.00     0.001 A 
HETATM   13  C   UNL     1      30.807  44.639  56.647  1.00  0.00     0.000 A 
HETATM   14  C   UNL     1      30.958  43.440  55.958  1.00  0.00     0.001 A 
HETATM   15  C   UNL     1      30.108  43.136  54.893  1.00  0.00     0.008 A 
ENDBRANCH   1  10
BRANCH   1  16
HETATM   16  C   UNL     1      27.602  42.223  53.490  1.00  0.00     0.116 C 
BRANCH  16  17
HETATM   17  C   UNL     1      27.956  41.138  52.490  1.00  0.00     0.218 C 
HETATM   18  N   UNL     1      26.997  40.739  51.609  1.00  0.00    -0.355 N 
HETATM   19  H   UNL     1      26.118  41.232  51.502  1.00  0.00     0.162 HD
HETATM   20  O   UNL     1      29.064  40.599  52.525  1.00  0.00    -0.274 OA
BRANCH  18  21
HETATM   21  C   UNL     1      27.303  39.770  50.580  1.00  0.00     0.184 C 
BRANCH  21  22
HETATM   22  C   UNL     1      27.212  40.392  49.225  1.00  0.00     0.080 A 
HETATM   23  N   UNL     1      26.790  41.668  49.052  1.00  0.00    -0.177 NA
HETATM   24  N   UNL     1      26.887  41.889  47.717  1.00  0.00    -0.281 N 
HETATM   25  H   UNL     1      26.632  42.801  47.353  1.00  0.00     0.189 HD
HETATM   26  C   UNL     1      27.339  40.798  47.069  1.00  0.00     0.036 A 
HETATM   27  C   UNL     1      27.552  39.823  47.993  1.00  0.00    -0.006 A 
HETATM   28  C   UNL     1      27.656  40.437  45.684  1.00  0.00     0.059 C 
HETATM   29  C   UNL     1      28.066  38.591  47.374  1.00  0.00     0.043 C 
HETATM   30  C   UNL     1      27.847  38.887  45.844  1.00  0.00     0.011 C 
ENDBRANCH  21  22
ENDBRANCH  18  21
ENDBRANCH  16  17
ENDBRANCH   1  16
TORSDOF 7
ENDMDL
MODEL 8
REMARK VINA RESULT:      -7.8      4.284      7.006
REMARK  7 active torsions:
REMARK  status: ('A' for Active; 'I' for Inactive)
REMARK    1  A    between atoms: O_2  and  C_3 
REMARK    2  A    between atoms: C_6  and  C_7 
REMARK    3  A    between atoms: C_7  and  C_8 
REMARK    4  A    between atoms: C_7  and  C_14 
REMARK    5  A    between atoms: C_14  and  C_15 
REMARK       I    between atoms: C_15  and  N_16 
REMARK    6  A    between atoms: N_16  and  C_17 
REMARK    7  A    between atoms: C_17  and  C_18 
ROOT
HETATM    1  C   UNL     1      21.281  48.951  48.956  1.00  0.00     0.060 C 
ENDROOT
BRANCH   1   2
HETATM    2  C   UNL     1      22.771  49.234  48.734  1.00  0.00    -0.049 A 
HETATM    3  C   UNL     1      23.717  48.488  49.464  1.00  0.00     0.010 A 
HETATM    4  C   UNL     1      25.090  48.699  49.307  1.00  0.00     0.037 A 
HETATM    5  C   UNL     1      25.561  49.650  48.407  1.00  0.00     0.068 A 
HETATM    6  C   UNL     1      24.643  50.376  47.653  1.00  0.00     0.037 A 
HETATM    7  C   UNL     1      23.264  50.164  47.810  1.00  0.00     0.010 A 
BRANCH   5   8
HETATM    8  O   UNL     1      26.922  49.766  48.352  1.00  0.00    -0.356 OA
HETATM    9  C   UNL     1      27.673  48.895  49.188  1.00  0.00     0.210 C 
ENDBRANCH   5   8
ENDBRANCH   1   2
BRANCH   1  10
HETATM   10  C   UNL     1      20.330  50.080  48.542  1.00  0.00    -0.049 A 
HETATM   11  C   UNL     1      20.144  51.237  49.313  1.00  0.00     0.008 A 
HETATM   12  C   UNL     1      19.269  52.243  48.895  1.00  0.00     0.001 A 
HETATM   13  C   UNL     1      18.564  52.107  47.702  1.00  0.00     0.000 A 
HETATM   14  C   UNL     1      18.733  50.967  46.923  1.00  0.00     0.001 A 
HETATM   15  C   UNL     1      19.608  49.962  47.340  1.00  0.00     0.008 A 
ENDBRANCH   1  10
BRANCH   1  16
HETATM   16  C   UNL     1      20.720  47.563  48.574  1.00  0.00     0.116 C 
BRANCH  16  17
HETATM   17  C   UNL     1      21.655  46.475  48.081  1.00  0.00     0.218 C 
HETATM   18  N   UNL     1      22.026  45.501  48.958  1.00  0.00    -0.355 N 
HETATM   19  H   UNL     1      21.595  45.396  49.868  1.00  0.00     0.162 HD
HETATM   20  O   UNL     1      22.107  46.519  46.935  1.00  0.00    -0.274 OA
BRANCH  18  21
HETATM   21  C   UNL     1      22.848  44.395  48.519  1.00  0.00     0.184 C 
BRANCH  21  22
HETATM   22  C   UNL     1      23.713  43.906  49.636  1.00  0.00     0.080 A 
HETATM   23  N   UNL     1      23.281  42.973  50.518  1.00  0.00    -0.177 NA
HETATM   24  N   UNL     1      24.339  42.754  51.338  1.00  0.00    -0.281 N 
HETATM   25  H   UNL     1      24.247  42.069  52.081  1.00  0.00     0.189 HD
HETATM   26  C   UNL     1      25.392  43.521  51.000  1.00  0.00     0.036 A 
HETATM   27  C   UNL     1      25.032  44.273  49.925  1.00  0.00    -0.006 A 
HETATM   28  C   UNL     1      26.765  43.716  51.476  1.00  0.00     0.059 C 
HETATM   29  C   UNL     1      26.133  45.137  49.472  1.00  0.00     0.043 C 
HETATM   30  C   UNL     1      27.156  45.000  50.660  1.00  0.00     0.011 C 
ENDBRANCH  21  22
ENDBRANCH  18  21
ENDBRANCH  16  17
ENDBRANCH   1  16
TORSDOF 7
ENDMDL
MODEL 9
REMARK VINA RESULT:      -7.8      3.330      7.243
REMARK  7 active torsions:
REMARK  status: ('A' for Active; 'I' for Inactive)
REMARK    1  A    between atoms: O_2  and  C_3 
REMARK    2  A    between atoms: C_6  and  C_7 
REMARK    3  A    between atoms: C_7  and  C_8 
REMARK    4  A    between atoms: C_7  and  C_14 
REMARK    5  A    between atoms: C_14  and  C_15 
REMARK       I    between atoms: C_15  and  N_16 
REMARK    6  A    between atoms: N_16  and  C_17 
REMARK    7  A    between atoms: C_17  and  C_18 
ROOT
HETATM    1  C   UNL     1      27.988  43.158  52.948  1.00  0.00     0.060 C 
ENDROOT
BRANCH   1   2
HETATM    2  C   UNL     1      28.735  43.852  54.091  1.00  0.00    -0.049 A 
HETATM    3  C   UNL     1      28.164  45.002  54.673  1.00  0.00     0.010 A 
HETATM    4  C   UNL     1      28.795  45.680  55.719  1.00  0.00     0.037 A 
HETATM    5  C   UNL     1      30.009  45.225  56.227  1.00  0.00     0.068 A 
HETATM    6  C   UNL     1      30.574  44.073  55.687  1.00  0.00     0.037 A 
HETATM    7  C   UNL     1      29.939  43.391  54.637  1.00  0.00     0.010 A 
BRANCH   5   8
HETATM    8  O   UNL     1      30.527  45.979  57.243  1.00  0.00    -0.356 OA
HETATM    9  C   UNL     1      30.907  45.286  58.425  1.00  0.00     0.210 C 
ENDBRANCH   5   8
ENDBRANCH   1   2
BRANCH   1  10
HETATM   10  C   UNL     1      27.205  44.089  52.014  1.00  0.00    -0.049 A 
HETATM   11  C   UNL     1      27.686  44.483  50.757  1.00  0.00     0.008 A 
HETATM   12  C   UNL     1      26.936  45.331  49.938  1.00  0.00     0.001 A 
HETATM   13  C   UNL     1      25.696  45.800  50.362  1.00  0.00     0.000 A 
HETATM   14  C   UNL     1      25.202  45.422  51.607  1.00  0.00     0.001 A 
HETATM   15  C   UNL     1      25.950  44.574  52.425  1.00  0.00     0.008 A 
ENDBRANCH   1  10
BRANCH   1  16
HETATM   16  C   UNL     1      28.700  42.033  52.165  1.00  0.00     0.116 C 
BRANCH  16  17
HETATM   17  C   UNL     1      27.916  41.167  51.198  1.00  0.00     0.218 C 
HETATM   18  N   UNL     1      26.563  41.104  51.344  1.00  0.00    -0.355 N 
HETATM   19  H   UNL     1      26.056  41.716  51.970  1.00  0.00     0.162 HD
HETATM   20  O   UNL     1      28.505  40.496  50.347  1.00  0.00    -0.274 OA
BRANCH  18  21
HETATM   21  C   UNL     1      25.757  40.361  50.400  1.00  0.00     0.184 C 
BRANCH  21  22
HETATM   22  C   UNL     1      25.280  41.251  49.298  1.00  0.00     0.080 A 
HETATM   23  N   UNL     1      25.852  41.237  48.070  1.00  0.00    -0.177 NA
HETATM   24  N   UNL     1      25.133  42.126  47.341  1.00  0.00    -0.281 N 
HETATM   25  H   UNL     1      25.379  42.271  46.367  1.00  0.00     0.189 HD
HETATM   26  C   UNL     1      24.154  42.687  48.076  1.00  0.00     0.036 A 
HETATM   27  C   UNL     1      24.218  42.161  49.329  1.00  0.00    -0.006 A 
HETATM   28  C   UNL     1      23.082  43.664  47.855  1.00  0.00     0.059 C 
HETATM   29  C   UNL     1      23.169  42.708  50.203  1.00  0.00     0.043 C 
HETATM   30  C   UNL     1      22.624  43.904  49.337  1.00  0.00     0.011 C 
ENDBRANCH  21  22
ENDBRANCH  18  21
ENDBRANCH  16  17
ENDBRANCH   1  16
TORSDOF 7
ENDMDL
MODEL 10
REMARK VINA RESULT:      -7.8      3.074      7.357
REMARK  7 active torsions:
REMARK  status: ('A' for Active; 'I' for Inactive)
REMARK    1  A    between atoms: O_2  and  C_3 
REMARK    2  A    between atoms: C_6  and  C_7 
REMARK    3  A    between atoms: C_7  and  C_8 
REMARK    4  A    between atoms: C_7  and  C_14 
REMARK    5  A    between atoms: C_14  and  C_15 
REMARK       I    between atoms: C_15  and  N_16 
REMARK    6  A    between atoms: N_16  and  C_17 
REMARK    7  A    between atoms: C_17  and  C_18 
ROOT
HETATM    1  C   UNL     1      25.928  45.436  52.826  1.00  0.00     0.060 C 
ENDROOT
BRANCH   1   2
HETATM    2  C   UNL     1      25.967  44.392  51.705  1.00  0.00    -0.049 A 
HETATM    3  C   UNL     1      24.854  43.545  51.531  1.00  0.00     0.010 A 
HETATM    4  C   UNL     1      24.829  42.572  50.527  1.00  0.00     0.037 A 
HETATM    5  C   UNL     1      25.905  42.424  49.657  1.00  0.00     0.068 A 
HETATM    6  C   UNL     1      27.001  43.273  49.793  1.00  0.00     0.037 A 
HETATM    7  C   UNL     1      27.026  44.250  50.800  1.00  0.00     0.010 A 
BRANCH   5   8
HETATM    8  O   UNL     1      25.761  41.434  48.726  1.00  0.00    -0.356 OA
HETATM    9  C   UNL     1      26.488  40.232  48.951  1.00  0.00     0.210 C 
ENDBRANCH   5   8
ENDBRANCH   1   2
BRANCH   1  10
HETATM   10  C   UNL     1      27.125  45.416  53.783  1.00  0.00    -0.049 A 
HETATM   11  C   UNL     1      27.897  44.267  54.009  1.00  0.00     0.008 A 
HETATM   12  C   UNL     1      28.983  44.296  54.888  1.00  0.00     0.001 A 
HETATM   13  C   UNL     1      29.313  45.472  55.557  1.00  0.00     0.000 A 
HETATM   14  C   UNL     1      28.559  46.622  55.347  1.00  0.00     0.001 A 
HETATM   15  C   UNL     1      27.475  46.595  54.468  1.00  0.00     0.008 A 
ENDBRANCH   1  10
BRANCH   1  16
HETATM   16  C   UNL     1      25.492  46.879  52.487  1.00  0.00     0.116 C 
BRANCH  16  17
HETATM   17  C   UNL     1      25.266  47.285  51.043  1.00  0.00     0.218 C 
HETATM   18  N   UNL     1      24.010  47.167  50.531  1.00  0.00    -0.355 N 
HETATM   19  H   UNL     1      23.205  46.960  51.110  1.00  0.00     0.162 HD
HETATM   20  O   UNL     1      26.216  47.651  50.347  1.00  0.00    -0.274 OA
BRANCH  18  21
HETATM   21  C   UNL     1      23.720  47.617  49.188  1.00  0.00     0.184 C 
BRANCH  21  22
HETATM   22  C   UNL     1      23.136  48.993  49.207  1.00  0.00     0.080 A 
HETATM   23  N   UNL     1      23.915  50.101  49.177  1.00  0.00    -0.177 NA
HETATM   24  N   UNL     1      23.043  51.139  49.158  1.00  0.00    -0.281 N 
HETATM   25  H   UNL     1      23.410  52.084  49.120  1.00  0.00     0.189 HD
HETATM   26  C   UNL     1      21.767  50.710  49.187  1.00  0.00     0.036 A 
HETATM   27  C   UNL     1      21.784  49.351  49.224  1.00  0.00    -0.006 A 
HETATM   28  C   UNL     1      20.436  51.326  49.170  1.00  0.00     0.059 C 
HETATM   29  C   UNL     1      20.423  48.790  49.241  1.00  0.00     0.043 C 
HETATM   30  C   UNL     1      19.553  50.073  49.512  1.00  0.00     0.011 C 
ENDBRANCH  21  22
ENDBRANCH  18  21
ENDBRANCH  16  17
ENDBRANCH   1  16
TORSDOF 7
ENDMDL
