MODEL 1
REMARK VINA RESULT:      -9.7      0.000      0.000
REMARK  6 active torsions:
REMARK  status: ('A' for Active; 'I' for Inactive)
REMARK    1  A    between atoms: C_2  and  C_3 
REMARK    2  A    between atoms: C_7  and  C_8 
REMARK       I    between atoms: C_8  and  N_9 
REMARK    3  A    between atoms: N_9  and  C_10 
REMARK    4  A    between atoms: C_12  and  N_13 
REMARK       I    between atoms: N_13  and  C_14 
REMARK    5  A    between atoms: C_14  and  C_15 
REMARK    6  A    between atoms: C_23  and  O_24 
ROOT
HETATM    1  C   UNL     1      25.993  44.802  51.374  1.00  0.00     0.037 A 
HETATM    2  C   UNL     1      26.645  44.983  52.600  1.00  0.00     0.062 A 
HETATM    3  C   UNL     1      27.373  43.942  53.185  1.00  0.00     0.070 A 
HETATM    4  C   UNL     1      27.426  42.684  52.551  1.00  0.00     0.095 A 
HETATM    5  C   UNL     1      26.752  42.496  51.344  1.00  0.00     0.041 A 
HETATM    6  C   UNL     1      26.046  43.552  50.757  1.00  0.00     0.032 A 
ENDROOT
BRANCH   1   7
HETATM    7  N   UNL     1      25.314  45.915  50.837  1.00  0.00    -0.322 N 
HETATM    8  C   UNL     1      25.774  46.802  49.885  1.00  0.00     0.274 C 
HETATM    9  O   UNL     1      26.895  46.791  49.387  1.00  0.00    -0.266 OA
HETATM   10  H   UNL     1      24.435  46.147  51.281  1.00  0.00     0.169 HD
BRANCH   8  11
HETATM   11  C   UNL     1      24.826  47.831  49.533  1.00  0.00     0.120 A 
HETATM   12  N   UNL     1      23.497  47.711  49.835  1.00  0.00    -0.273 N 
HETATM   13  N   UNL     1      22.745  48.748  49.432  1.00  0.00    -0.179 NA
HETATM   14  H   UNL     1      23.049  46.933  50.310  1.00  0.00     0.189 HD
HETATM   15  C   UNL     1      23.626  49.591  48.880  1.00  0.00     0.056 A 
HETATM   16  C   UNL     1      24.939  49.062  48.915  1.00  0.00     0.065 A 
BRANCH  15  17
HETATM   17  C   UNL     1      23.180  50.910  48.345  1.00  0.00     0.056 C 
HETATM   18  C   UNL     1      21.709  51.185  48.615  1.00  0.00     0.011 C 
ENDBRANCH  15  17
ENDBRANCH   8  11
ENDBRANCH   1   7
BRANCH   3  19
HETATM   19  N   UNL     1      28.122  44.089  54.376  1.00  0.00    -0.320 N 
HETATM   20  C   UNL     1      28.665  45.243  54.902  1.00  0.00     0.256 C 
HETATM   21  O   UNL     1      28.447  46.388  54.525  1.00  0.00    -0.267 OA
HETATM   22  H   UNL     1      28.248  43.214  54.875  1.00  0.00     0.169 HD
BRANCH  20  23
HETATM   23  C   UNL     1      29.594  45.039  56.051  1.00  0.00     0.035 A 
HETATM   24  C   UNL     1      30.578  44.044  56.033  1.00  0.00     0.059 A 
HETATM   25  C   UNL     1      31.447  43.926  57.112  1.00  0.00     0.117 A 
HETATM   26  F   UNL     1      32.391  42.975  57.091  1.00  0.00    -0.206 F 
HETATM   27  C   UNL     1      31.362  44.781  58.205  1.00  0.00     0.042 A 
HETATM   28  C   UNL     1      30.393  45.783  58.221  1.00  0.00     0.004 A 
HETATM   29  C   UNL     1      29.514  45.914  57.144  1.00  0.00     0.017 A 
ENDBRANCH  20  23
ENDBRANCH   3  19
BRANCH   4  30
HETATM   30  O   UNL     1      28.172  41.726  53.198  1.00  0.00    -0.354 OA
HETATM   31  C   UNL     1      28.844  40.773  52.381  1.00  0.00     0.210 C 
ENDBRANCH   4  30
TORSDOF 6
ENDMDL
MODEL 2
REMARK VINA RESULT:      -9.5      1.258      1.602
REMARK  6 active torsions:
REMARK  status: ('A' for Active; 'I' for Inactive)
REMARK    1  A    between atoms: C_2  and  C_3 
REMARK    2  A    between atoms: C_7  and  C_8 
REMARK       I    between atoms: C_8  and  N_9 
REMARK    3  A    between atoms: N_9  and  C_10 
REMARK    4  A    between atoms: C_12  and  N_13 
REMARK       I    between atoms: N_13  and  C_14 
REMARK    5  A    between atoms: C_14  and  C_15 
REMARK    6  A    between atoms: C_23  and  O_24 
ROOT
HETATM    1  C   UNL     1      26.016  44.923  50.365  1.00  0.00     0.037 A 
HETATM    2  C   UNL     1      26.733  44.931  51.569  1.00  0.00     0.062 A 
HETATM    3  C   UNL     1      27.547  43.852  51.925  1.00  0.00     0.070 A 
HETATM    4  C   UNL     1      27.625  42.726  51.079  1.00  0.00     0.095 A 
HETATM    5  C   UNL     1      26.889  42.707  49.894  1.00  0.00     0.041 A 
HETATM    6  C   UNL     1      26.095  43.803  49.538  1.00  0.00     0.032 A 
ENDROOT
BRANCH   1   7
HETATM    7  N   UNL     1      25.250  46.069  50.066  1.00  0.00    -0.322 N 
HETATM    8  C   UNL     1      25.693  47.260  49.529  1.00  0.00     0.274 C 
HETATM    9  O   UNL     1      26.862  47.533  49.274  1.00  0.00    -0.266 OA
HETATM   10  H   UNL     1      24.289  46.047  50.383  1.00  0.00     0.169 HD
BRANCH   8  11
HETATM   11  C   UNL     1      24.652  48.237  49.326  1.00  0.00     0.120 A 
HETATM   12  N   UNL     1      23.384  48.039  49.802  1.00  0.00    -0.273 N 
HETATM   13  N   UNL     1      22.529  49.035  49.522  1.00  0.00    -0.179 NA
HETATM   14  H   UNL     1      23.047  47.231  50.317  1.00  0.00     0.189 HD
HETATM   15  C   UNL     1      23.280  49.933  48.873  1.00  0.00     0.056 A 
HETATM   16  C   UNL     1      24.613  49.479  48.722  1.00  0.00     0.065 A 
BRANCH  15  17
HETATM   17  C   UNL     1      22.694  51.231  48.428  1.00  0.00     0.056 C 
HETATM   18  C   UNL     1      21.174  51.231  48.462  1.00  0.00     0.011 C 
ENDBRANCH  15  17
ENDBRANCH   8  11
ENDBRANCH   1   7
BRANCH   3  19
HETATM   19  N   UNL     1      28.359  43.837  53.083  1.00  0.00    -0.320 N 
HETATM   20  C   UNL     1      28.103  44.418  54.307  1.00  0.00     0.256 C 
HETATM   21  O   UNL     1      27.041  44.906  54.675  1.00  0.00    -0.267 OA
HETATM   22  H   UNL     1      29.224  43.322  52.954  1.00  0.00     0.169 HD
BRANCH  20  23
HETATM   23  C   UNL     1      29.252  44.423  55.259  1.00  0.00     0.035 A 
HETATM   24  C   UNL     1      29.427  45.448  56.195  1.00  0.00     0.059 A 
HETATM   25  C   UNL     1      30.491  45.381  57.088  1.00  0.00     0.117 A 
HETATM   26  F   UNL     1      30.654  46.361  57.987  1.00  0.00    -0.206 F 
HETATM   27  C   UNL     1      31.379  44.312  57.075  1.00  0.00     0.042 A 
HETATM   28  C   UNL     1      31.201  43.281  56.154  1.00  0.00     0.004 A 
HETATM   29  C   UNL     1      30.137  43.334  55.250  1.00  0.00     0.017 A 
ENDBRANCH  20  23
ENDBRANCH   3  19
BRANCH   4  30
HETATM   30  O   UNL     1      28.457  41.719  51.510  1.00  0.00    -0.354 OA
HETATM   31  C   UNL     1      28.307  40.449  50.885  1.00  0.00     0.210 C 
ENDBRANCH   4  30
TORSDOF 6
ENDMDL
MODEL 3
REMARK VINA RESULT:      -9.4      1.915      2.745
REMARK  6 active torsions:
REMARK  status: ('A' for Active; 'I' for Inactive)
REMARK    1  A    between atoms: C_2  and  C_3 
REMARK    2  A    between atoms: C_7  and  C_8 
REMARK       I    between atoms: C_8  and  N_9 
REMARK    3  A    between atoms: N_9  and  C_10 
REMARK    4  A    between atoms: C_12  and  N_13 
REMARK       I    between atoms: N_13  and  C_14 
REMARK    5  A    between atoms: C_14  and  C_15 
REMARK    6  A    between atoms: C_23  and  O_24 
ROOT
HETATM    1  C   UNL     1      24.186  45.694  49.730  1.00  0.00     0.037 A 
HETATM    2  C   UNL     1      25.020  45.718  50.855  1.00  0.00     0.062 A 
HETATM    3  C   UNL     1      25.956  44.704  51.075  1.00  0.00     0.070 A 
HETATM    4  C   UNL     1      26.043  43.625  50.172  1.00  0.00     0.095 A 
HETATM    5  C   UNL     1      25.193  43.587  49.066  1.00  0.00     0.041 A 
HETATM    6  C   UNL     1      24.275  44.621  48.844  1.00  0.00     0.032 A 
ENDROOT
BRANCH   1   7
HETATM    7  N   UNL     1      23.298  46.777  49.566  1.00  0.00    -0.322 N 
HETATM    8  C   UNL     1      23.615  48.116  49.455  1.00  0.00     0.274 C 
HETATM    9  O   UNL     1      24.744  48.588  49.542  1.00  0.00    -0.266 OA
HETATM   10  H   UNL     1      22.315  46.552  49.646  1.00  0.00     0.169 HD
BRANCH   8  11
HETATM   11  C   UNL     1      22.473  48.979  49.278  1.00  0.00     0.120 A 
HETATM   12  N   UNL     1      21.204  48.552  49.565  1.00  0.00    -0.273 N 
HETATM   13  N   UNL     1      20.251  49.468  49.337  1.00  0.00    -0.179 NA
HETATM   14  H   UNL     1      20.934  47.635  49.910  1.00  0.00     0.189 HD
HETATM   15  C   UNL     1      20.928  50.545  48.923  1.00  0.00     0.056 A 
HETATM   16  C   UNL     1      22.320  50.289  48.866  1.00  0.00     0.065 A 
BRANCH  15  17
HETATM   17  C   UNL     1      20.214  51.816  48.610  1.00  0.00     0.056 C 
HETATM   18  C   UNL     1      18.940  51.988  49.422  1.00  0.00     0.011 C 
ENDBRANCH  15  17
ENDBRANCH   8  11
ENDBRANCH   1   7
BRANCH   3  19
HETATM   19  N   UNL     1      26.881  44.716  52.145  1.00  0.00    -0.320 N 
HETATM   20  C   UNL     1      26.641  44.462  53.480  1.00  0.00     0.256 C 
HETATM   21  O   UNL     1      25.612  44.004  53.960  1.00  0.00    -0.267 OA
HETATM   22  H   UNL     1      27.826  44.939  51.849  1.00  0.00     0.169 HD
BRANCH  20  23
HETATM   23  C   UNL     1      27.774  44.776  54.398  1.00  0.00     0.035 A 
HETATM   24  C   UNL     1      28.872  43.918  54.530  1.00  0.00     0.059 A 
HETATM   25  C   UNL     1      29.922  44.279  55.366  1.00  0.00     0.117 A 
HETATM   26  F   UNL     1      30.974  43.458  55.488  1.00  0.00    -0.206 F 
HETATM   27  C   UNL     1      29.907  45.479  56.068  1.00  0.00     0.042 A 
HETATM   28  C   UNL     1      28.823  46.344  55.928  1.00  0.00     0.004 A 
HETATM   29  C   UNL     1      27.761  45.995  55.091  1.00  0.00     0.017 A 
ENDBRANCH  20  23
ENDBRANCH   3  19
BRANCH   4  30
HETATM   30  O   UNL     1      26.998  42.680  50.468  1.00  0.00    -0.354 OA
HETATM   31  C   UNL     1      26.537  41.359  50.729  1.00  0.00     0.210 C 
ENDBRANCH   4  30
TORSDOF 6
ENDMDL
MODEL 4
REMARK VINA RESULT:      -9.0      3.501      6.476
REMARK  6 active torsions:
REMARK  status: ('A' for Active; 'I' for Inactive)
REMARK    1  A    between atoms: C_2  and  C_3 
REMARK    2  A    between atoms: C_7  and  C_8 
REMARK       I    between atoms: C_8  and  N_9 
REMARK    3  A    between atoms: N_9  and  C_10 
REMARK    4  A    between atoms: C_12  and  N_13 
REMARK       I    between atoms: N_13  and  C_14 
REMARK    5  A    between atoms: C_14  and  C_15 
REMARK    6  A    between atoms: C_23  and  O_24 
ROOT
HETATM    1  C   UNL     1      22.947  49.509  48.892  1.00  0.00     0.037 A 
HETATM    2  C   UNL     1      23.359  48.347  49.557  1.00  0.00     0.062 A 
HETATM    3  C   UNL     1      24.705  47.970  49.575  1.00  0.00     0.070 A 
HETATM    4  C   UNL     1      25.658  48.750  48.888  1.00  0.00     0.095 A 
HETATM    5  C   UNL     1      25.243  49.891  48.201  1.00  0.00     0.041 A 
HETATM    6  C   UNL     1      23.896  50.271  48.210  1.00  0.00     0.032 A 
ENDROOT
BRANCH   1   7
HETATM    7  N   UNL     1      21.577  49.835  48.957  1.00  0.00    -0.322 N 
HETATM    8  C   UNL     1      20.949  50.647  49.879  1.00  0.00     0.274 C 
HETATM    9  O   UNL     1      21.490  51.178  50.843  1.00  0.00    -0.266 OA
HETATM   10  H   UNL     1      20.976  49.329  48.319  1.00  0.00     0.169 HD
BRANCH   8  11
HETATM   11  C   UNL     1      19.530  50.795  49.662  1.00  0.00     0.120 A 
HETATM   12  N   UNL     1      18.730  49.715  49.406  1.00  0.00    -0.273 N 
HETATM   13  N   UNL     1      17.437  50.021  49.217  1.00  0.00    -0.179 NA
HETATM   14  H   UNL     1      19.022  48.744  49.339  1.00  0.00     0.189 HD
HETATM   15  C   UNL     1      17.388  51.346  49.396  1.00  0.00     0.056 A 
HETATM   16  C   UNL     1      18.671  51.878  49.672  1.00  0.00     0.065 A 
BRANCH  15  17
HETATM   17  C   UNL     1      16.088  52.074  49.316  1.00  0.00     0.056 C 
HETATM   18  C   UNL     1      16.041  53.290  50.228  1.00  0.00     0.011 C 
ENDBRANCH  15  17
ENDBRANCH   8  11
ENDBRANCH   1   7
BRANCH   3  19
HETATM   19  N   UNL     1      25.193  46.857  50.299  1.00  0.00    -0.320 N 
HETATM   20  C   UNL     1      25.482  46.780  51.646  1.00  0.00     0.256 C 
HETATM   21  O   UNL     1      25.200  47.611  52.500  1.00  0.00    -0.267 OA
HETATM   22  H   UNL     1      25.329  46.036  49.719  1.00  0.00     0.169 HD
BRANCH  20  23
HETATM   23  C   UNL     1      26.196  45.541  52.070  1.00  0.00     0.035 A 
HETATM   24  C   UNL     1      26.087  45.040  53.372  1.00  0.00     0.059 A 
HETATM   25  C   UNL     1      26.738  43.857  53.704  1.00  0.00     0.117 A 
HETATM   26  F   UNL     1      26.629  43.377  54.950  1.00  0.00    -0.206 F 
HETATM   27  C   UNL     1      27.487  43.157  52.765  1.00  0.00     0.042 A 
HETATM   28  C   UNL     1      27.587  43.644  51.463  1.00  0.00     0.004 A 
HETATM   29  C   UNL     1      26.938  44.832  51.115  1.00  0.00     0.017 A 
ENDBRANCH  20  23
ENDBRANCH   3  19
BRANCH   4  30
HETATM   30  O   UNL     1      26.957  48.303  48.969  1.00  0.00    -0.354 OA
HETATM   31  C   UNL     1      27.968  49.291  49.135  1.00  0.00     0.210 C 
ENDBRANCH   4  30
TORSDOF 6
ENDMDL
MODEL 5
REMARK VINA RESULT:      -8.9      3.629      9.333
REMARK  6 active torsions:
REMARK  status: ('A' for Active; 'I' for Inactive)
REMARK    1  A    between atoms: C_2  and  C_3 
REMARK    2  A    between atoms: C_7  and  C_8 
REMARK       I    between atoms: C_8  and  N_9 
REMARK    3  A    between atoms: N_9  and  C_10 
REMARK    4  A    between atoms: C_12  and  N_13 
REMARK       I    between atoms: N_13  and  C_14 
REMARK    5  A    between atoms: C_14  and  C_15 
REMARK    6  A    between atoms: C_23  and  O_24 
ROOT
HETATM    1  C   UNL     1      25.755  44.429  51.943  1.00  0.00     0.037 A 
HETATM    2  C   UNL     1      25.255  45.593  51.345  1.00  0.00     0.062 A 
HETATM    3  C   UNL     1      24.272  45.523  50.353  1.00  0.00     0.070 A 
HETATM    4  C   UNL     1      23.801  44.266  49.924  1.00  0.00     0.095 A 
HETATM    5  C   UNL     1      24.320  43.106  50.499  1.00  0.00     0.041 A 
HETATM    6  C   UNL     1      25.287  43.189  51.508  1.00  0.00     0.032 A 
ENDROOT
BRANCH   1   7
HETATM    7  N   UNL     1      26.716  44.593  52.962  1.00  0.00    -0.322 N 
HETATM    8  C   UNL     1      28.026  44.159  52.961  1.00  0.00     0.274 C 
HETATM    9  O   UNL     1      28.553  43.496  52.074  1.00  0.00    -0.266 OA
HETATM   10  H   UNL     1      26.370  44.978  53.832  1.00  0.00     0.169 HD
BRANCH   8  11
HETATM   11  C   UNL     1      28.761  44.501  54.154  1.00  0.00     0.120 A 
HETATM   12  N   UNL     1      28.521  45.666  54.831  1.00  0.00    -0.273 N 
HETATM   13  N   UNL     1      29.293  45.842  55.914  1.00  0.00    -0.179 NA
HETATM   14  H   UNL     1      27.843  46.383  54.587  1.00  0.00     0.189 HD
HETATM   15  C   UNL     1      30.037  44.731  55.966  1.00  0.00     0.056 A 
HETATM   16  C   UNL     1      29.745  43.863  54.885  1.00  0.00     0.065 A 
BRANCH  15  17
HETATM   17  C   UNL     1      31.008  44.519  57.078  1.00  0.00     0.056 C 
HETATM   18  C   UNL     1      31.544  43.097  57.126  1.00  0.00     0.011 C 
ENDBRANCH  15  17
ENDBRANCH   8  11
ENDBRANCH   1   7
BRANCH   3  19
HETATM   19  N   UNL     1      23.668  46.663  49.775  1.00  0.00    -0.320 N 
HETATM   20  C   UNL     1      24.199  47.929  49.636  1.00  0.00     0.256 C 
HETATM   21  O   UNL     1      25.363  48.256  49.829  1.00  0.00    -0.267 OA
HETATM   22  H   UNL     1      22.731  46.483  49.428  1.00  0.00     0.169 HD
BRANCH  20  23
HETATM   23  C   UNL     1      23.234  48.975  49.191  1.00  0.00     0.035 A 
HETATM   24  C   UNL     1      21.853  48.748  49.186  1.00  0.00     0.059 A 
HETATM   25  C   UNL     1      20.994  49.773  48.804  1.00  0.00     0.117 A 
HETATM   26  F   UNL     1      19.673  49.554  48.805  1.00  0.00    -0.206 F 
HETATM   27  C   UNL     1      21.480  51.022  48.434  1.00  0.00     0.042 A 
HETATM   28  C   UNL     1      22.853  51.258  48.451  1.00  0.00     0.004 A 
HETATM   29  C   UNL     1      23.728  50.238  48.832  1.00  0.00     0.017 A 
ENDBRANCH  20  23
ENDBRANCH   3  19
BRANCH   4  30
HETATM   30  O   UNL     1      22.830  44.300  48.950  1.00  0.00    -0.354 OA
HETATM   31  C   UNL     1      23.156  43.709  47.696  1.00  0.00     0.210 C 
ENDBRANCH   4  30
TORSDOF 6
ENDMDL
MODEL 6
REMARK VINA RESULT:      -8.8      1.883      2.134
REMARK  6 active torsions:
REMARK  status: ('A' for Active; 'I' for Inactive)
REMARK    1  A    between atoms: C_2  and  C_3 
REMARK    2  A    between atoms: C_7  and  C_8 
REMARK       I    between atoms: C_8  and  N_9 
REMARK    3  A    between atoms: N_9  and  C_10 
REMARK    4  A    between atoms: C_12  and  N_13 
REMARK       I    between atoms: N_13  and  C_14 
REMARK    5  A    between atoms: C_14  and  C_15 
REMARK    6  A    between atoms: C_23  and  O_24 
ROOT
HETATM    1  C   UNL     1      25.755  44.286  49.650  1.00  0.00     0.037 A 
HETATM    2  C   UNL     1      26.494  44.504  50.820  1.00  0.00     0.062 A 
HETATM    3  C   UNL     1      27.325  43.506  51.339  1.00  0.00     0.070 A 
HETATM    4  C   UNL     1      27.397  42.254  50.697  1.00  0.00     0.095 A 
HETATM    5  C   UNL     1      26.638  42.027  49.548  1.00  0.00     0.041 A 
HETATM    6  C   UNL     1      25.827  43.042  49.025  1.00  0.00     0.032 A 
ENDROOT
BRANCH   1   7
HETATM    7  N   UNL     1      24.973  45.360  49.176  1.00  0.00    -0.322 N 
HETATM    8  C   UNL     1      23.608  45.523  49.295  1.00  0.00     0.274 C 
HETATM    9  O   UNL     1      22.836  44.710  49.794  1.00  0.00    -0.266 OA
HETATM   10  H   UNL     1      25.457  46.029  48.591  1.00  0.00     0.169 HD
BRANCH   8  11
HETATM   11  C   UNL     1      23.108  46.746  48.715  1.00  0.00     0.120 A 
HETATM   12  N   UNL     1      22.095  46.739  47.795  1.00  0.00    -0.273 N 
HETATM   13  N   UNL     1      21.753  47.956  47.344  1.00  0.00    -0.179 NA
HETATM   14  H   UNL     1      21.608  45.924  47.433  1.00  0.00     0.189 HD
HETATM   15  C   UNL     1      22.548  48.789  48.026  1.00  0.00     0.056 A 
HETATM   16  C   UNL     1      23.416  48.081  48.893  1.00  0.00     0.065 A 
BRANCH  15  17
HETATM   17  C   UNL     1      22.436  50.265  47.840  1.00  0.00     0.056 C 
HETATM   18  C   UNL     1      23.070  51.048  48.979  1.00  0.00     0.011 C 
ENDBRANCH  15  17
ENDBRANCH   8  11
ENDBRANCH   1   7
BRANCH   3  19
HETATM   19  N   UNL     1      28.159  43.695  52.465  1.00  0.00    -0.320 N 
HETATM   20  C   UNL     1      27.812  43.642  53.799  1.00  0.00     0.256 C 
HETATM   21  O   UNL     1      26.749  43.244  54.259  1.00  0.00    -0.267 OA
HETATM   22  H   UNL     1      29.124  43.887  52.216  1.00  0.00     0.169 HD
BRANCH  20  23
HETATM   23  C   UNL     1      28.865  44.109  54.747  1.00  0.00     0.035 A 
HETATM   24  C   UNL     1      29.915  43.276  55.146  1.00  0.00     0.059 A 
HETATM   25  C   UNL     1      30.895  43.775  55.997  1.00  0.00     0.117 A 
HETATM   26  F   UNL     1      31.903  42.978  56.375  1.00  0.00    -0.206 F 
HETATM   27  C   UNL     1      30.856  45.088  56.453  1.00  0.00     0.042 A 
HETATM   28  C   UNL     1      29.819  45.926  56.046  1.00  0.00     0.004 A 
HETATM   29  C   UNL     1      28.827  45.439  55.191  1.00  0.00     0.017 A 
ENDBRANCH  20  23
ENDBRANCH   3  19
BRANCH   4  30
HETATM   30  O   UNL     1      28.246  41.339  51.277  1.00  0.00    -0.354 OA
HETATM   31  C   UNL     1      28.390  40.086  50.617  1.00  0.00     0.210 C 
ENDBRANCH   4  30
TORSDOF 6
ENDMDL
MODEL 7
REMARK VINA RESULT:      -8.6      3.945      6.926
REMARK  6 active torsions:
REMARK  status: ('A' for Active; 'I' for Inactive)
REMARK    1  A    between atoms: C_2  and  C_3 
REMARK    2  A    between atoms: C_7  and  C_8 
REMARK       I    between atoms: C_8  and  N_9 
REMARK    3  A    between atoms: N_9  and  C_10 
REMARK    4  A    between atoms: C_12  and  N_13 
REMARK       I    between atoms: N_13  and  C_14 
REMARK    5  A    between atoms: C_14  and  C_15 
REMARK    6  A    between atoms: C_23  and  O_24 
ROOT
HETATM    1  C   UNL     1      25.899  42.124  51.069  1.00  0.00     0.037 A 
HETATM    2  C   UNL     1      26.876  42.458  52.015  1.00  0.00     0.062 A 
HETATM    3  C   UNL     1      26.833  43.682  52.689  1.00  0.00     0.070 A 
HETATM    4  C   UNL     1      25.812  44.608  52.390  1.00  0.00     0.095 A 
HETATM    5  C   UNL     1      24.855  44.287  51.427  1.00  0.00     0.041 A 
HETATM    6  C   UNL     1      24.896  43.048  50.776  1.00  0.00     0.032 A 
ENDROOT
BRANCH   1   7
HETATM    7  N   UNL     1      25.997  40.853  50.466  1.00  0.00    -0.322 N 
HETATM    8  C   UNL     1      26.769  40.495  49.379  1.00  0.00     0.274 C 
HETATM    9  O   UNL     1      27.461  41.261  48.717  1.00  0.00    -0.266 OA
HETATM   10  H   UNL     1      25.347  40.156  50.806  1.00  0.00     0.169 HD
BRANCH   8  11
HETATM   11  C   UNL     1      26.661  39.104  49.014  1.00  0.00     0.120 A 
HETATM   12  N   UNL     1      26.614  38.118  49.962  1.00  0.00    -0.273 N 
HETATM   13  N   UNL     1      26.524  36.876  49.461  1.00  0.00    -0.179 NA
HETATM   14  H   UNL     1      26.650  38.241  50.970  1.00  0.00     0.189 HD
HETATM   15  C   UNL     1      26.472  37.064  48.137  1.00  0.00     0.056 A 
HETATM   16  C   UNL     1      26.559  38.439  47.807  1.00  0.00     0.065 A 
BRANCH  15  17
HETATM   17  C   UNL     1      26.318  35.904  47.212  1.00  0.00     0.056 C 
HETATM   18  C   UNL     1      24.932  35.283  47.277  1.00  0.00     0.011 C 
ENDBRANCH  15  17
ENDBRANCH   8  11
ENDBRANCH   1   7
BRANCH   3  19
HETATM   19  N   UNL     1      27.739  44.041  53.713  1.00  0.00    -0.320 N 
HETATM   20  C   UNL     1      29.096  43.798  53.771  1.00  0.00     0.256 C 
HETATM   21  O   UNL     1      29.801  43.382  52.860  1.00  0.00    -0.267 OA
HETATM   22  H   UNL     1      27.296  44.539  54.478  1.00  0.00     0.169 HD
BRANCH  20  23
HETATM   23  C   UNL     1      29.738  44.097  55.084  1.00  0.00     0.035 A 
HETATM   24  C   UNL     1      30.741  43.279  55.614  1.00  0.00     0.059 A 
HETATM   25  C   UNL     1      31.338  43.627  56.821  1.00  0.00     0.117 A 
HETATM   26  F   UNL     1      32.301  42.845  57.326  1.00  0.00    -0.206 F 
HETATM   27  C   UNL     1      30.962  44.777  57.507  1.00  0.00     0.042 A 
HETATM   28  C   UNL     1      29.974  45.603  56.976  1.00  0.00     0.004 A 
HETATM   29  C   UNL     1      29.366  45.266  55.764  1.00  0.00     0.017 A 
ENDBRANCH  20  23
ENDBRANCH   3  19
BRANCH   4  30
HETATM   30  O   UNL     1      25.848  45.781  53.109  1.00  0.00    -0.354 OA
HETATM   31  C   UNL     1      25.880  46.992  52.361  1.00  0.00     0.210 C 
ENDBRANCH   4  30
TORSDOF 6
ENDMDL
MODEL 8
REMARK VINA RESULT:      -8.6      3.808      9.045
REMARK  6 active torsions:
REMARK  status: ('A' for Active; 'I' for Inactive)
REMARK    1  A    between atoms: C_2  and  C_3 
REMARK    2  A    between atoms: C_7  and  C_8 
REMARK       I    between atoms: C_8  and  N_9 
REMARK    3  A    between atoms: N_9  and  C_10 
REMARK    4  A    between atoms: C_12  and  N_13 
REMARK       I    between atoms: N_13  and  C_14 
REMARK    5  A    between atoms: C_14  and  C_15 
REMARK    6  A    between atoms: C_23  and  O_24 
ROOT
HETATM    1  C   UNL     1      26.747  43.421  52.448  1.00  0.00     0.037 A 
HETATM    2  C   UNL     1      26.322  44.461  51.611  1.00  0.00     0.062 A 
HETATM    3  C   UNL     1      25.918  45.689  52.143  1.00  0.00     0.070 A 
HETATM    4  C   UNL     1      25.906  45.876  53.540  1.00  0.00     0.095 A 
HETATM    5  C   UNL     1      26.302  44.830  54.375  1.00  0.00     0.041 A 
HETATM    6  C   UNL     1      26.726  43.613  53.829  1.00  0.00     0.032 A 
ENDROOT
BRANCH   1   7
HETATM    7  N   UNL     1      27.174  42.230  51.826  1.00  0.00    -0.322 N 
HETATM    8  C   UNL     1      28.394  41.601  51.962  1.00  0.00     0.274 C 
HETATM    9  O   UNL     1      29.341  42.022  52.617  1.00  0.00    -0.266 OA
HETATM   10  H   UNL     1      26.551  41.858  51.121  1.00  0.00     0.169 HD
BRANCH   8  11
HETATM   11  C   UNL     1      28.515  40.381  51.201  1.00  0.00     0.120 A 
HETATM   12  N   UNL     1      29.444  39.428  51.521  1.00  0.00    -0.273 N 
HETATM   13  N   UNL     1      29.437  38.358  50.711  1.00  0.00    -0.179 NA
HETATM   14  H   UNL     1      30.117  39.466  52.281  1.00  0.00     0.189 HD
HETATM   15  C   UNL     1      28.439  38.607  49.855  1.00  0.00     0.056 A 
HETATM   16  C   UNL     1      27.835  39.861  50.117  1.00  0.00     0.065 A 
BRANCH  15  17
HETATM   17  C   UNL     1      28.074  37.611  48.807  1.00  0.00     0.056 C 
HETATM   18  C   UNL     1      26.818  36.828  49.154  1.00  0.00     0.011 C 
ENDBRANCH  15  17
ENDBRANCH   8  11
ENDBRANCH   1   7
BRANCH   3  19
HETATM   19  N   UNL     1      25.561  46.803  51.347  1.00  0.00    -0.320 N 
HETATM   20  C   UNL     1      24.633  46.856  50.327  1.00  0.00     0.256 C 
HETATM   21  O   UNL     1      23.817  45.990  50.039  1.00  0.00    -0.267 OA
HETATM   22  H   UNL     1      26.070  47.645  51.593  1.00  0.00     0.169 HD
BRANCH  20  23
HETATM   23  C   UNL     1      24.645  48.115  49.526  1.00  0.00     0.035 A 
HETATM   24  C   UNL     1      25.841  48.731  49.144  1.00  0.00     0.059 A 
HETATM   25  C   UNL     1      25.796  49.879  48.359  1.00  0.00     0.117 A 
HETATM   26  F   UNL     1      26.942  50.465  47.990  1.00  0.00    -0.206 F 
HETATM   27  C   UNL     1      24.586  50.421  47.941  1.00  0.00     0.042 A 
HETATM   28  C   UNL     1      23.392  49.802  48.308  1.00  0.00     0.004 A 
HETATM   29  C   UNL     1      23.421  48.649  49.095  1.00  0.00     0.017 A 
ENDBRANCH  20  23
ENDBRANCH   3  19
BRANCH   4  30
HETATM   30  O   UNL     1      25.500  47.119  53.968  1.00  0.00    -0.354 OA
HETATM   31  C   UNL     1      26.385  47.822  54.832  1.00  0.00     0.210 C 
ENDBRANCH   4  30
TORSDOF 6
ENDMDL
MODEL 9
REMARK VINA RESULT:      -8.5      4.172      9.737
REMARK  6 active torsions:
REMARK  status: ('A' for Active; 'I' for Inactive)
REMARK    1  A    between atoms: C_2  and  C_3 
REMARK    2  A    between atoms: C_7  and  C_8 
REMARK       I    between atoms: C_8  and  N_9 
REMARK    3  A    between atoms: N_9  and  C_10 
REMARK    4  A    between atoms: C_12  and  N_13 
REMARK       I    between atoms: N_13  and  C_14 
REMARK    5  A    between atoms: C_14  and  C_15 
REMARK    6  A    between atoms: C_23  and  O_24 
ROOT
HETATM    1  C   UNL     1      25.423  45.260  50.779  1.00  0.00     0.037 A 
HETATM    2  C   UNL     1      24.514  46.293  50.515  1.00  0.00     0.062 A 
HETATM    3  C   UNL     1      23.616  46.203  49.448  1.00  0.00     0.070 A 
HETATM    4  C   UNL     1      23.645  45.074  48.604  1.00  0.00     0.095 A 
HETATM    5  C   UNL     1      24.570  44.058  48.849  1.00  0.00     0.041 A 
HETATM    6  C   UNL     1      25.448  44.149  49.936  1.00  0.00     0.032 A 
ENDROOT
BRANCH   1   7
HETATM    7  N   UNL     1      26.266  45.416  51.899  1.00  0.00    -0.322 N 
HETATM    8  C   UNL     1      26.026  45.008  53.195  1.00  0.00     0.274 C 
HETATM    9  O   UNL     1      24.992  44.484  53.595  1.00  0.00    -0.266 OA
HETATM   10  H   UNL     1      27.088  45.986  51.751  1.00  0.00     0.169 HD
BRANCH   8  11
HETATM   11  C   UNL     1      27.100  45.302  54.112  1.00  0.00     0.120 A 
HETATM   12  N   UNL     1      27.044  46.377  54.957  1.00  0.00    -0.273 N 
HETATM   13  N   UNL     1      28.125  46.519  55.739  1.00  0.00    -0.179 NA
HETATM   14  H   UNL     1      26.290  47.054  55.030  1.00  0.00     0.189 HD
HETATM   15  C   UNL     1      28.897  45.474  55.419  1.00  0.00     0.056 A 
HETATM   16  C   UNL     1      28.302  44.685  54.404  1.00  0.00     0.065 A 
BRANCH  15  17
HETATM   17  C   UNL     1      30.193  45.245  56.120  1.00  0.00     0.056 C 
HETATM   18  C   UNL     1      30.732  43.839  55.911  1.00  0.00     0.011 C 
ENDBRANCH  15  17
ENDBRANCH   8  11
ENDBRANCH   1   7
BRANCH   3  19
HETATM   19  N   UNL     1      22.621  47.172  49.183  1.00  0.00    -0.320 N 
HETATM   20  C   UNL     1      22.722  48.544  49.281  1.00  0.00     0.256 C 
HETATM   21  O   UNL     1      23.751  49.188  49.445  1.00  0.00    -0.267 OA
HETATM   22  H   UNL     1      21.741  46.764  48.883  1.00  0.00     0.169 HD
BRANCH  20  23
HETATM   23  C   UNL     1      21.434  49.285  49.156  1.00  0.00     0.035 A 
HETATM   24  C   UNL     1      21.398  50.643  48.821  1.00  0.00     0.059 A 
HETATM   25  C   UNL     1      20.168  51.276  48.674  1.00  0.00     0.117 A 
HETATM   26  F   UNL     1      20.135  52.575  48.349  1.00  0.00    -0.206 F 
HETATM   27  C   UNL     1      18.974  50.584  48.844  1.00  0.00     0.042 A 
HETATM   28  C   UNL     1      19.005  49.227  49.163  1.00  0.00     0.004 A 
HETATM   29  C   UNL     1      20.233  48.578  49.314  1.00  0.00     0.017 A 
ENDBRANCH  20  23
ENDBRANCH   3  19
BRANCH   4  30
HETATM   30  O   UNL     1      22.720  45.072  47.586  1.00  0.00    -0.354 OA
HETATM   31  C   UNL     1      21.913  43.907  47.452  1.00  0.00     0.210 C 
ENDBRANCH   4  30
TORSDOF 6
ENDMDL
MODEL 10
REMARK VINA RESULT:      -8.5      3.522      5.749
REMARK  6 active torsions:
REMARK  status: ('A' for Active; 'I' for Inactive)
REMARK    1  A    between atoms: C_2  and  C_3 
REMARK    2  A    between atoms: C_7  and  C_8 
REMARK       I    between atoms: C_8  and  N_9 
REMARK    3  A    between atoms: N_9  and  C_10 
REMARK    4  A    between atoms: C_12  and  N_13 
REMARK       I    between atoms: N_13  and  C_14 
REMARK    5  A    between atoms: C_14  and  C_15 
REMARK    6  A    between atoms: C_23  and  O_24 
ROOT
HETATM    1  C   UNL     1      26.275  43.922  50.410  1.00  0.00     0.037 A 
HETATM    2  C   UNL     1      27.287  44.021  51.374  1.00  0.00     0.062 A 
HETATM    3  C   UNL     1      27.077  44.727  52.563  1.00  0.00     0.070 A 
HETATM    4  C   UNL     1      25.845  45.376  52.782  1.00  0.00     0.095 A 
HETATM    5  C   UNL     1      24.848  45.302  51.808  1.00  0.00     0.041 A 
HETATM    6  C   UNL     1      25.062  44.572  50.633  1.00  0.00     0.032 A 
ENDROOT
BRANCH   1   7
HETATM    7  N   UNL     1      26.559  43.159  49.258  1.00  0.00    -0.322 N 
HETATM    8  C   UNL     1      26.357  41.806  49.076  1.00  0.00     0.274 C 
HETATM    9  O   UNL     1      25.944  41.028  49.929  1.00  0.00    -0.266 OA
HETATM   10  H   UNL     1      27.064  43.642  48.527  1.00  0.00     0.169 HD
BRANCH   8  11
HETATM   11  C   UNL     1      26.736  41.326  47.769  1.00  0.00     0.120 A 
HETATM   12  N   UNL     1      25.835  41.268  46.740  1.00  0.00    -0.273 N 
HETATM   13  N   UNL     1      26.341  40.789  45.593  1.00  0.00    -0.179 NA
HETATM   14  H   UNL     1      24.856  41.536  46.774  1.00  0.00     0.189 HD
HETATM   15  C   UNL     1      27.629  40.564  45.876  1.00  0.00     0.056 A 
HETATM   16  C   UNL     1      27.925  40.879  47.224  1.00  0.00     0.065 A 
BRANCH  15  17
HETATM   17  C   UNL     1      28.560  40.063  44.823  1.00  0.00     0.056 C 
HETATM   18  C   UNL     1      28.621  40.980  43.611  1.00  0.00     0.011 C 
ENDBRANCH  15  17
ENDBRANCH   8  11
ENDBRANCH   1   7
BRANCH   3  19
HETATM   19  N   UNL     1      28.027  44.790  53.609  1.00  0.00    -0.320 N 
HETATM   20  C   UNL     1      29.089  43.942  53.846  1.00  0.00     0.256 C 
HETATM   21  O   UNL     1      29.513  43.077  53.089  1.00  0.00    -0.267 OA
HETATM   22  H   UNL     1      27.874  45.573  54.236  1.00  0.00     0.169 HD
BRANCH  20  23
HETATM   23  C   UNL     1      29.774  44.136  55.156  1.00  0.00     0.035 A 
HETATM   24  C   UNL     1      30.727  43.227  55.628  1.00  0.00     0.059 A 
HETATM   25  C   UNL     1      31.369  43.478  56.836  1.00  0.00     0.117 A 
HETATM   26  F   UNL     1      32.285  42.609  57.283  1.00  0.00    -0.206 F 
HETATM   27  C   UNL     1      31.088  44.618  57.580  1.00  0.00     0.042 A 
HETATM   28  C   UNL     1      30.149  45.534  57.107  1.00  0.00     0.004 A 
HETATM   29  C   UNL     1      29.497  45.295  55.895  1.00  0.00     0.017 A 
ENDBRANCH  20  23
ENDBRANCH   3  19
BRANCH   4  30
HETATM   30  O   UNL     1      25.731  46.038  53.982  1.00  0.00    -0.354 OA
HETATM   31  C   UNL     1      25.845  47.457  53.948  1.00  0.00     0.210 C 
ENDBRANCH   4  30
TORSDOF 6
ENDMDL
