MODEL 1
REMARK VINA RESULT:      -8.6      0.000      0.000
REMARK  9 active torsions:
REMARK  status: ('A' for Active; 'I' for Inactive)
REMARK    1  A    between atoms: C_2  and  O_3 
REMARK    2  A    between atoms: O_3  and  C_4 
REMARK    3  A    between atoms: C_4  and  C_5 
REMARK    4  A    between atoms: C_8  and  N_9 
REMARK       I    between atoms: N_9  and  C_10 
REMARK    5  A    between atoms: C_10  and  C_11 
REMARK       I    between atoms: C_11  and  N_12 
REMARK    6  A    between atoms: N_12  and  C_13 
REMARK    7  A    between atoms: C_13  and  C_14 
REMARK    8  A    between atoms: C_14  and  C_15 
REMARK    9  A    between atoms: C_18  and  O_19 
ROOT
HETATM    1  C   UNL     1      24.223  48.273  49.585  1.00  0.00     0.309 C 
HETATM    2  N   UNL     1      23.943  47.137  50.305  1.00  0.00    -0.352 N 
HETATM    3  O   UNL     1      25.317  48.810  49.467  1.00  0.00    -0.262 OA
HETATM    4  H   UNL     1      22.971  46.835  50.313  1.00  0.00     0.162 HD
ENDROOT
BRANCH   1   5
HETATM    5  C   UNL     1      22.985  48.912  48.919  1.00  0.00     0.313 C 
HETATM    6  N   UNL     1      22.284  49.702  49.804  1.00  0.00    -0.319 N 
HETATM    7  H   UNL     1      22.705  49.764  50.730  1.00  0.00     0.169 HD
HETATM    8  O   UNL     1      22.747  48.655  47.748  1.00  0.00    -0.262 OA
BRANCH   6   9
HETATM    9  C   UNL     1      21.066  50.368  49.591  1.00  0.00     0.035 A 
HETATM   10  C   UNL     1      20.899  51.398  48.664  1.00  0.00     0.030 A 
HETATM   11  C   UNL     1      19.642  51.989  48.482  1.00  0.00     0.020 A 
HETATM   12  C   UNL     1      18.538  51.559  49.227  1.00  0.00     0.039 A 
HETATM   13  C   UNL     1      18.708  50.536  50.167  1.00  0.00     0.020 A 
HETATM   14  C   UNL     1      19.966  49.946  50.345  1.00  0.00     0.030 A 
BRANCH  12  15
HETATM   15  C   UNL     1      17.222  52.205  48.974  1.00  0.00     0.293 C 
HETATM   16  O   UNL     1      16.792  52.443  47.856  1.00  0.00    -0.259 OA
BRANCH  15  17
HETATM   17  O   UNL     1      16.589  52.469  50.144  1.00  0.00    -0.318 OA
BRANCH  17  18
HETATM   18  C   UNL     1      15.624  53.531  50.104  1.00  0.00     0.174 C 
HETATM   19  C   UNL     1      14.267  53.029  50.562  1.00  0.00     0.034 C 
ENDBRANCH  17  18
ENDBRANCH  15  17
ENDBRANCH  12  15
ENDBRANCH   6   9
ENDBRANCH   1   5
BRANCH   2  20
HETATM   20  C   UNL     1      24.933  46.443  51.103  1.00  0.00     0.137 C 
BRANCH  20  21
HETATM   21  C   UNL     1      25.096  44.933  50.782  1.00  0.00     0.003 C 
HETATM   22  C   UNL     1      23.772  44.129  50.865  1.00  0.00     0.016 C 
HETATM   23  C   UNL     1      24.049  42.842  50.087  1.00  0.00     0.001 C 
HETATM   24  C   UNL     1      25.101  43.215  49.043  1.00  0.00     0.001 C 
HETATM   25  C   UNL     1      25.410  44.694  49.282  1.00  0.00     0.016 C 
BRANCH  21  26
HETATM   26  C   UNL     1      26.168  44.382  51.749  1.00  0.00    -0.048 A 
HETATM   27  C   UNL     1      25.863  44.170  53.106  1.00  0.00     0.011 A 
HETATM   28  C   UNL     1      26.823  43.690  54.003  1.00  0.00     0.037 A 
HETATM   29  C   UNL     1      28.123  43.428  53.581  1.00  0.00     0.068 A 
HETATM   30  C   UNL     1      28.456  43.659  52.250  1.00  0.00     0.037 A 
HETATM   31  C   UNL     1      27.493  44.136  51.349  1.00  0.00     0.011 A 
BRANCH  29  32
HETATM   32  O   UNL     1      28.963  42.965  54.556  1.00  0.00    -0.356 OA
HETATM   33  C   UNL     1      29.840  43.912  55.151  1.00  0.00     0.210 C 
ENDBRANCH  29  32
ENDBRANCH  21  26
ENDBRANCH  20  21
ENDBRANCH   2  20
TORSDOF 9
ENDMDL
MODEL 2
REMARK VINA RESULT:      -8.6      2.351     11.121
REMARK  9 active torsions:
REMARK  status: ('A' for Active; 'I' for Inactive)
REMARK    1  A    between atoms: C_2  and  O_3 
REMARK    2  A    between atoms: O_3  and  C_4 
REMARK    3  A    between atoms: C_4  and  C_5 
REMARK    4  A    between atoms: C_8  and  N_9 
REMARK       I    between atoms: N_9  and  C_10 
REMARK    5  A    between atoms: C_10  and  C_11 
REMARK       I    between atoms: C_11  and  N_12 
REMARK    6  A    between atoms: N_12  and  C_13 
REMARK    7  A    between atoms: C_13  and  C_14 
REMARK    8  A    between atoms: C_14  and  C_15 
REMARK    9  A    between atoms: C_18  and  O_19 
ROOT
HETATM    1  C   UNL     1      22.933  48.218  48.720  1.00  0.00     0.309 C 
HETATM    2  N   UNL     1      21.752  48.077  49.407  1.00  0.00    -0.352 N 
HETATM    3  O   UNL     1      23.058  48.420  47.519  1.00  0.00    -0.262 OA
HETATM    4  H   UNL     1      21.828  47.894  50.405  1.00  0.00     0.162 HD
ENDROOT
BRANCH   1   5
HETATM    5  C   UNL     1      24.192  48.051  49.599  1.00  0.00     0.313 C 
HETATM    6  N   UNL     1      24.171  46.861  50.294  1.00  0.00    -0.319 N 
HETATM    7  H   UNL     1      23.360  46.277  50.094  1.00  0.00     0.169 HD
HETATM    8  O   UNL     1      25.025  48.945  49.612  1.00  0.00    -0.262 OA
BRANCH   6   9
HETATM    9  C   UNL     1      25.089  46.403  51.252  1.00  0.00     0.035 A 
HETATM   10  C   UNL     1      25.401  47.100  52.421  1.00  0.00     0.030 A 
HETATM   11  C   UNL     1      26.301  46.559  53.347  1.00  0.00     0.020 A 
HETATM   12  C   UNL     1      26.901  45.316  53.116  1.00  0.00     0.039 A 
HETATM   13  C   UNL     1      26.600  44.623  51.938  1.00  0.00     0.020 A 
HETATM   14  C   UNL     1      25.698  45.166  51.014  1.00  0.00     0.030 A 
BRANCH  12  15
HETATM   15  C   UNL     1      27.829  44.778  54.147  1.00  0.00     0.293 C 
HETATM   16  O   UNL     1      28.432  45.481  54.943  1.00  0.00    -0.259 OA
BRANCH  15  17
HETATM   17  O   UNL     1      27.890  43.425  54.073  1.00  0.00    -0.318 OA
BRANCH  17  18
HETATM   18  C   UNL     1      29.186  42.847  54.294  1.00  0.00     0.174 C 
HETATM   19  C   UNL     1      30.005  42.887  53.017  1.00  0.00     0.034 C 
ENDBRANCH  17  18
ENDBRANCH  15  17
ENDBRANCH  12  15
ENDBRANCH   6   9
ENDBRANCH   1   5
BRANCH   2  20
HETATM   20  C   UNL     1      20.456  48.081  48.760  1.00  0.00     0.137 C 
BRANCH  20  21
HETATM   21  C   UNL     1      19.694  49.432  48.819  1.00  0.00     0.003 C 
HETATM   22  C   UNL     1      19.664  50.072  50.233  1.00  0.00     0.016 C 
HETATM   23  C   UNL     1      19.310  51.540  49.988  1.00  0.00     0.001 C 
HETATM   24  C   UNL     1      19.848  51.862  48.594  1.00  0.00     0.001 C 
HETATM   25  C   UNL     1      20.463  50.559  48.080  1.00  0.00     0.016 C 
BRANCH  21  26
HETATM   26  C   UNL     1      18.273  49.171  48.272  1.00  0.00    -0.048 A 
HETATM   27  C   UNL     1      17.410  48.275  48.930  1.00  0.00     0.011 A 
HETATM   28  C   UNL     1      16.126  48.009  48.442  1.00  0.00     0.037 A 
HETATM   29  C   UNL     1      15.670  48.610  47.272  1.00  0.00     0.068 A 
HETATM   30  C   UNL     1      16.518  49.476  46.589  1.00  0.00     0.037 A 
HETATM   31  C   UNL     1      17.804  49.747  47.080  1.00  0.00     0.011 A 
BRANCH  29  32
HETATM   32  O   UNL     1      14.400  48.264  46.904  1.00  0.00    -0.356 OA
HETATM   33  C   UNL     1      13.938  48.754  45.653  1.00  0.00     0.210 C 
ENDBRANCH  29  32
ENDBRANCH  21  26
ENDBRANCH  20  21
ENDBRANCH   2  20
TORSDOF 9
ENDMDL
MODEL 3
REMARK VINA RESULT:      -8.4      2.937     10.050
REMARK  9 active torsions:
REMARK  status: ('A' for Active; 'I' for Inactive)
REMARK    1  A    between atoms: C_2  and  O_3 
REMARK    2  A    between atoms: O_3  and  C_4 
REMARK    3  A    between atoms: C_4  and  C_5 
REMARK    4  A    between atoms: C_8  and  N_9 
REMARK       I    between atoms: N_9  and  C_10 
REMARK    5  A    between atoms: C_10  and  C_11 
REMARK       I    between atoms: C_11  and  N_12 
REMARK    6  A    between atoms: N_12  and  C_13 
REMARK    7  A    between atoms: C_13  and  C_14 
REMARK    8  A    between atoms: C_14  and  C_15 
REMARK    9  A    between atoms: C_18  and  O_19 
ROOT
HETATM    1  C   UNL     1      25.252  49.723  48.282  1.00  0.00     0.309 C 
HETATM    2  N   UNL     1      23.944  49.811  48.695  1.00  0.00    -0.352 N 
HETATM    3  O   UNL     1      25.741  50.257  47.295  1.00  0.00    -0.262 OA
HETATM    4  H   UNL     1      23.698  49.286  49.533  1.00  0.00     0.162 HD
ENDROOT
BRANCH   1   5
HETATM    5  C   UNL     1      26.128  48.811  49.169  1.00  0.00     0.313 C 
HETATM    6  N   UNL     1      25.402  47.760  49.687  1.00  0.00    -0.319 N 
HETATM    7  H   UNL     1      24.431  47.734  49.381  1.00  0.00     0.169 HD
HETATM    8  O   UNL     1      27.303  49.103  49.335  1.00  0.00    -0.262 OA
BRANCH   6   9
HETATM    9  C   UNL     1      25.829  46.783  50.600  1.00  0.00     0.035 A 
HETATM   10  C   UNL     1      25.548  46.823  51.967  1.00  0.00     0.030 A 
HETATM   11  C   UNL     1      25.977  45.790  52.809  1.00  0.00     0.020 A 
HETATM   12  C   UNL     1      26.695  44.703  52.294  1.00  0.00     0.039 A 
HETATM   13  C   UNL     1      26.990  44.669  50.927  1.00  0.00     0.020 A 
HETATM   14  C   UNL     1      26.558  45.703  50.088  1.00  0.00     0.030 A 
BRANCH  12  15
HETATM   15  C   UNL     1      27.103  43.621  53.230  1.00  0.00     0.293 C 
HETATM   16  O   UNL     1      26.931  43.675  54.438  1.00  0.00    -0.259 OA
BRANCH  15  17
HETATM   17  O   UNL     1      27.670  42.594  52.551  1.00  0.00    -0.318 OA
BRANCH  17  18
HETATM   18  C   UNL     1      28.835  42.014  53.158  1.00  0.00     0.174 C 
HETATM   19  C   UNL     1      30.044  42.904  52.936  1.00  0.00     0.034 C 
ENDBRANCH  17  18
ENDBRANCH  15  17
ENDBRANCH  12  15
ENDBRANCH   6   9
ENDBRANCH   1   5
BRANCH   2  20
HETATM   20  C   UNL     1      22.924  50.517  47.947  1.00  0.00     0.137 C 
BRANCH  20  21
HETATM   21  C   UNL     1      21.502  50.470  48.566  1.00  0.00     0.003 C 
HETATM   22  C   UNL     1      21.481  50.677  50.104  1.00  0.00     0.016 C 
HETATM   23  C   UNL     1      20.035  51.057  50.425  1.00  0.00     0.001 C 
HETATM   24  C   UNL     1      19.505  51.745  49.168  1.00  0.00     0.001 C 
HETATM   25  C   UNL     1      20.656  51.707  48.163  1.00  0.00     0.016 C 
BRANCH  21  26
HETATM   26  C   UNL     1      20.879  49.116  48.157  1.00  0.00    -0.048 A 
HETATM   27  C   UNL     1      19.986  49.042  47.072  1.00  0.00     0.011 A 
HETATM   28  C   UNL     1      19.396  47.831  46.696  1.00  0.00     0.037 A 
HETATM   29  C   UNL     1      19.659  46.661  47.401  1.00  0.00     0.068 A 
HETATM   30  C   UNL     1      20.516  46.716  48.496  1.00  0.00     0.037 A 
HETATM   31  C   UNL     1      21.112  47.929  48.871  1.00  0.00     0.011 A 
BRANCH  29  32
HETATM   32  O   UNL     1      19.018  45.548  46.932  1.00  0.00    -0.356 OA
HETATM   33  C   UNL     1      19.805  44.377  46.762  1.00  0.00     0.210 C 
ENDBRANCH  29  32
ENDBRANCH  21  26
ENDBRANCH  20  21
ENDBRANCH   2  20
TORSDOF 9
ENDMDL
MODEL 4
REMARK VINA RESULT:      -8.3      2.060     10.960
REMARK  9 active torsions:
REMARK  status: ('A' for Active; 'I' for Inactive)
REMARK    1  A    between atoms: C_2  and  O_3 
REMARK    2  A    between atoms: O_3  and  C_4 
REMARK    3  A    between atoms: C_4  and  C_5 
REMARK    4  A    between atoms: C_8  and  N_9 
REMARK       I    between atoms: N_9  and  C_10 
REMARK    5  A    between atoms: C_10  and  C_11 
REMARK       I    between atoms: C_11  and  N_12 
REMARK    6  A    between atoms: N_12  and  C_13 
REMARK    7  A    between atoms: C_13  and  C_14 
REMARK    8  A    between atoms: C_14  and  C_15 
REMARK    9  A    between atoms: C_18  and  O_19 
ROOT
HETATM    1  C   UNL     1      24.206  49.656  48.454  1.00  0.00     0.309 C 
HETATM    2  N   UNL     1      23.060  49.953  49.152  1.00  0.00    -0.352 N 
HETATM    3  O   UNL     1      24.491  50.037  47.326  1.00  0.00    -0.262 OA
HETATM    4  H   UNL     1      22.973  49.535  50.076  1.00  0.00     0.162 HD
ENDROOT
BRANCH   1   5
HETATM    5  C   UNL     1      25.167  48.708  49.203  1.00  0.00     0.313 C 
HETATM    6  N   UNL     1      24.480  47.756  49.925  1.00  0.00    -0.319 N 
HETATM    7  H   UNL     1      23.467  47.808  49.823  1.00  0.00     0.169 HD
HETATM    8  O   UNL     1      26.371  48.894  49.109  1.00  0.00    -0.262 OA
BRANCH   6   9
HETATM    9  C   UNL     1      25.003  46.786  50.795  1.00  0.00     0.035 A 
HETATM   10  C   UNL     1      25.198  45.450  50.439  1.00  0.00     0.030 A 
HETATM   11  C   UNL     1      25.761  44.550  51.352  1.00  0.00     0.020 A 
HETATM   12  C   UNL     1      26.134  44.974  52.633  1.00  0.00     0.039 A 
HETATM   13  C   UNL     1      25.926  46.309  52.995  1.00  0.00     0.020 A 
HETATM   14  C   UNL     1      25.364  47.207  52.079  1.00  0.00     0.030 A 
BRANCH  12  15
HETATM   15  C   UNL     1      26.751  43.980  53.553  1.00  0.00     0.293 C 
HETATM   16  O   UNL     1      26.351  43.774  54.688  1.00  0.00    -0.259 OA
BRANCH  15  17
HETATM   17  O   UNL     1      27.789  43.351  52.947  1.00  0.00    -0.318 OA
BRANCH  17  18
HETATM   18  C   UNL     1      29.098  43.748  53.383  1.00  0.00     0.174 C 
HETATM   19  C   UNL     1      30.094  42.628  53.148  1.00  0.00     0.034 C 
ENDBRANCH  17  18
ENDBRANCH  15  17
ENDBRANCH  12  15
ENDBRANCH   6   9
ENDBRANCH   1   5
BRANCH   2  20
HETATM   20  C   UNL     1      21.972  50.728  48.593  1.00  0.00     0.137 C 
BRANCH  20  21
HETATM   21  C   UNL     1      20.550  50.218  48.946  1.00  0.00     0.003 C 
HETATM   22  C   UNL     1      20.452  48.674  49.071  1.00  0.00     0.016 C 
HETATM   23  C   UNL     1      19.161  48.429  49.854  1.00  0.00     0.001 C 
HETATM   24  C   UNL     1      18.976  49.665  50.733  1.00  0.00     0.001 C 
HETATM   25  C   UNL     1      20.150  50.585  50.400  1.00  0.00     0.016 C 
BRANCH  21  26
HETATM   26  C   UNL     1      19.593  50.773  47.867  1.00  0.00    -0.048 A 
HETATM   27  C   UNL     1      18.834  51.932  48.116  1.00  0.00     0.011 A 
HETATM   28  C   UNL     1      17.947  52.440  47.161  1.00  0.00     0.037 A 
HETATM   29  C   UNL     1      17.772  51.800  45.938  1.00  0.00     0.068 A 
HETATM   30  C   UNL     1      18.490  50.635  45.683  1.00  0.00     0.037 A 
HETATM   31  C   UNL     1      19.383  50.126  46.638  1.00  0.00     0.011 A 
BRANCH  29  32
HETATM   32  O   UNL     1      16.877  52.398  45.097  1.00  0.00    -0.356 OA
HETATM   33  C   UNL     1      17.154  52.324  43.705  1.00  0.00     0.210 C 
ENDBRANCH  29  32
ENDBRANCH  21  26
ENDBRANCH  20  21
ENDBRANCH   2  20
TORSDOF 9
ENDMDL
MODEL 5
REMARK VINA RESULT:      -8.0      2.662     11.140
REMARK  9 active torsions:
REMARK  status: ('A' for Active; 'I' for Inactive)
REMARK    1  A    between atoms: C_2  and  O_3 
REMARK    2  A    between atoms: O_3  and  C_4 
REMARK    3  A    between atoms: C_4  and  C_5 
REMARK    4  A    between atoms: C_8  and  N_9 
REMARK       I    between atoms: N_9  and  C_10 
REMARK    5  A    between atoms: C_10  and  C_11 
REMARK       I    between atoms: C_11  and  N_12 
REMARK    6  A    between atoms: N_12  and  C_13 
REMARK    7  A    between atoms: C_13  and  C_14 
REMARK    8  A    between atoms: C_14  and  C_15 
REMARK    9  A    between atoms: C_18  and  O_19 
ROOT
HETATM    1  C   UNL     1      23.580  48.977  49.067  1.00  0.00     0.309 C 
HETATM    2  N   UNL     1      22.290  49.084  48.606  1.00  0.00    -0.352 N 
HETATM    3  O   UNL     1      24.406  49.877  49.134  1.00  0.00    -0.262 OA
HETATM    4  H   UNL     1      21.739  48.228  48.600  1.00  0.00     0.162 HD
ENDROOT
BRANCH   1   5
HETATM    5  C   UNL     1      23.977  47.545  49.487  1.00  0.00     0.313 C 
HETATM    6  N   UNL     1      25.151  47.536  50.210  1.00  0.00    -0.319 N 
HETATM    7  H   UNL     1      25.543  48.461  50.377  1.00  0.00     0.169 HD
HETATM    8  O   UNL     1      23.269  46.611  49.140  1.00  0.00    -0.262 OA
BRANCH   6   9
HETATM    9  C   UNL     1      25.866  46.424  50.682  1.00  0.00     0.035 A 
HETATM   10  C   UNL     1      26.605  45.572  49.858  1.00  0.00     0.030 A 
HETATM   11  C   UNL     1      27.324  44.504  50.409  1.00  0.00     0.020 A 
HETATM   12  C   UNL     1      27.312  44.274  51.790  1.00  0.00     0.039 A 
HETATM   13  C   UNL     1      26.561  45.119  52.614  1.00  0.00     0.020 A 
HETATM   14  C   UNL     1      25.844  46.187  52.060  1.00  0.00     0.030 A 
BRANCH  12  15
HETATM   15  C   UNL     1      28.115  43.140  52.323  1.00  0.00     0.293 C 
HETATM   16  O   UNL     1      27.625  42.096  52.721  1.00  0.00    -0.259 OA
BRANCH  15  17
HETATM   17  O   UNL     1      29.438  43.437  52.289  1.00  0.00    -0.318 OA
BRANCH  17  18
HETATM   18  C   UNL     1      30.252  42.769  53.265  1.00  0.00     0.174 C 
HETATM   19  C   UNL     1      30.065  43.404  54.630  1.00  0.00     0.034 C 
ENDBRANCH  17  18
ENDBRANCH  15  17
ENDBRANCH  12  15
ENDBRANCH   6   9
ENDBRANCH   1   5
BRANCH   2  20
HETATM   20  C   UNL     1      21.746  50.308  48.054  1.00  0.00     0.137 C 
BRANCH  20  21
HETATM   21  C   UNL     1      20.243  50.554  48.353  1.00  0.00     0.003 C 
HETATM   22  C   UNL     1      19.780  50.003  49.727  1.00  0.00     0.016 C 
HETATM   23  C   UNL     1      18.468  50.735  50.017  1.00  0.00     0.001 C 
HETATM   24  C   UNL     1      18.584  52.079  49.300  1.00  0.00     0.001 C 
HETATM   25  C   UNL     1      19.944  52.056  48.601  1.00  0.00     0.016 C 
BRANCH  21  26
HETATM   26  C   UNL     1      19.446  49.935  47.183  1.00  0.00    -0.048 A 
HETATM   27  C   UNL     1      19.139  48.562  47.179  1.00  0.00     0.011 A 
HETATM   28  C   UNL     1      18.435  47.976  46.121  1.00  0.00     0.037 A 
HETATM   29  C   UNL     1      18.035  48.734  45.025  1.00  0.00     0.068 A 
HETATM   30  C   UNL     1      18.354  50.089  44.994  1.00  0.00     0.037 A 
HETATM   31  C   UNL     1      19.056  50.678  46.056  1.00  0.00     0.011 A 
BRANCH  29  32
HETATM   32  O   UNL     1      17.357  48.042  44.061  1.00  0.00    -0.356 OA
HETATM   33  C   UNL     1      17.288  46.630  44.213  1.00  0.00     0.210 C 
ENDBRANCH  29  32
ENDBRANCH  21  26
ENDBRANCH  20  21
ENDBRANCH   2  20
TORSDOF 9
ENDMDL
MODEL 6
REMARK VINA RESULT:      -7.9      2.187     10.468
REMARK  9 active torsions:
REMARK  status: ('A' for Active; 'I' for Inactive)
REMARK    1  A    between atoms: C_2  and  O_3 
REMARK    2  A    between atoms: O_3  and  C_4 
REMARK    3  A    between atoms: C_4  and  C_5 
REMARK    4  A    between atoms: C_8  and  N_9 
REMARK       I    between atoms: N_9  and  C_10 
REMARK    5  A    between atoms: C_10  and  C_11 
REMARK       I    between atoms: C_11  and  N_12 
REMARK    6  A    between atoms: N_12  and  C_13 
REMARK    7  A    between atoms: C_13  and  C_14 
REMARK    8  A    between atoms: C_14  and  C_15 
REMARK    9  A    between atoms: C_18  and  O_19 
ROOT
HETATM    1  C   UNL     1      23.453  48.706  49.250  1.00  0.00     0.309 C 
HETATM    2  N   UNL     1      22.806  47.915  48.332  1.00  0.00    -0.352 N 
HETATM    3  O   UNL     1      23.198  49.873  49.514  1.00  0.00    -0.262 OA
HETATM    4  H   UNL     1      23.160  46.966  48.223  1.00  0.00     0.162 HD
ENDROOT
BRANCH   1   5
HETATM    5  C   UNL     1      24.636  48.007  49.955  1.00  0.00     0.313 C 
HETATM    6  N   UNL     1      24.213  46.938  50.715  1.00  0.00    -0.319 N 
HETATM    7  H   UNL     1      23.210  46.763  50.666  1.00  0.00     0.169 HD
HETATM    8  O   UNL     1      25.763  48.453  49.798  1.00  0.00    -0.262 OA
BRANCH   6   9
HETATM    9  C   UNL     1      24.980  46.122  51.562  1.00  0.00     0.035 A 
HETATM   10  C   UNL     1      25.084  44.737  51.419  1.00  0.00     0.030 A 
HETATM   11  C   UNL     1      25.900  43.996  52.282  1.00  0.00     0.020 A 
HETATM   12  C   UNL     1      26.622  44.630  53.300  1.00  0.00     0.039 A 
HETATM   13  C   UNL     1      26.507  46.016  53.454  1.00  0.00     0.020 A 
HETATM   14  C   UNL     1      25.691  46.754  52.588  1.00  0.00     0.030 A 
BRANCH  12  15
HETATM   15  C   UNL     1      27.493  43.796  54.172  1.00  0.00     0.293 C 
HETATM   16  O   UNL     1      27.120  42.765  54.708  1.00  0.00    -0.259 OA
BRANCH  15  17
HETATM   17  O   UNL     1      28.732  44.339  54.264  1.00  0.00    -0.318 OA
BRANCH  17  18
HETATM   18  C   UNL     1      29.808  43.408  54.460  1.00  0.00     0.174 C 
HETATM   19  C   UNL     1      30.237  42.813  53.132  1.00  0.00     0.034 C 
ENDBRANCH  17  18
ENDBRANCH  15  17
ENDBRANCH  12  15
ENDBRANCH   6   9
ENDBRANCH   1   5
BRANCH   2  20
HETATM   20  C   UNL     1      21.744  48.404  47.476  1.00  0.00     0.137 C 
BRANCH  20  21
HETATM   21  C   UNL     1      20.361  47.734  47.696  1.00  0.00     0.003 C 
HETATM   22  C   UNL     1      19.690  47.239  46.387  1.00  0.00     0.016 C 
HETATM   23  C   UNL     1      18.630  46.238  46.848  1.00  0.00     0.001 C 
HETATM   24  C   UNL     1      19.161  45.654  48.156  1.00  0.00     0.001 C 
HETATM   25  C   UNL     1      20.491  46.364  48.412  1.00  0.00     0.016 C 
BRANCH  21  26
HETATM   26  C   UNL     1      19.480  48.759  48.445  1.00  0.00    -0.048 A 
HETATM   27  C   UNL     1      18.720  49.703  47.730  1.00  0.00     0.011 A 
HETATM   28  C   UNL     1      17.931  50.652  48.388  1.00  0.00     0.037 A 
HETATM   29  C   UNL     1      17.890  50.704  49.778  1.00  0.00     0.068 A 
HETATM   30  C   UNL     1      18.657  49.799  50.506  1.00  0.00     0.037 A 
HETATM   31  C   UNL     1      19.445  48.845  49.847  1.00  0.00     0.011 A 
BRANCH  29  32
HETATM   32  O   UNL     1      17.083  51.678  50.295  1.00  0.00    -0.356 OA
HETATM   33  C   UNL     1      16.923  52.859  49.520  1.00  0.00     0.210 C 
ENDBRANCH  29  32
ENDBRANCH  21  26
ENDBRANCH  20  21
ENDBRANCH   2  20
TORSDOF 9
ENDMDL
MODEL 7
REMARK VINA RESULT:      -7.8      2.347      3.073
REMARK  9 active torsions:
REMARK  status: ('A' for Active; 'I' for Inactive)
REMARK    1  A    between atoms: C_2  and  O_3 
REMARK    2  A    between atoms: O_3  and  C_4 
REMARK    3  A    between atoms: C_4  and  C_5 
REMARK    4  A    between atoms: C_8  and  N_9 
REMARK       I    between atoms: N_9  and  C_10 
REMARK    5  A    between atoms: C_10  and  C_11 
REMARK       I    between atoms: C_11  and  N_12 
REMARK    6  A    between atoms: N_12  and  C_13 
REMARK    7  A    between atoms: C_13  and  C_14 
REMARK    8  A    between atoms: C_14  and  C_15 
REMARK    9  A    between atoms: C_18  and  O_19 
ROOT
HETATM    1  C   UNL     1      22.234  44.146  49.372  1.00  0.00     0.309 C 
HETATM    2  N   UNL     1      23.010  44.845  50.265  1.00  0.00    -0.352 N 
HETATM    3  O   UNL     1      22.370  42.973  49.051  1.00  0.00    -0.262 OA
HETATM    4  H   UNL     1      22.770  45.824  50.404  1.00  0.00     0.162 HD
ENDROOT
BRANCH   1   5
HETATM    5  C   UNL     1      21.125  44.993  48.711  1.00  0.00     0.313 C 
HETATM    6  N   UNL     1      21.314  46.340  48.936  1.00  0.00    -0.319 N 
HETATM    7  H   UNL     1      22.158  46.559  49.464  1.00  0.00     0.169 HD
HETATM    8  O   UNL     1      20.228  44.423  48.107  1.00  0.00    -0.262 OA
BRANCH   6   9
HETATM    9  C   UNL     1      20.473  47.403  48.572  1.00  0.00     0.035 A 
HETATM   10  C   UNL     1      20.600  48.119  47.379  1.00  0.00     0.030 A 
HETATM   11  C   UNL     1      19.698  49.144  47.070  1.00  0.00     0.020 A 
HETATM   12  C   UNL     1      18.658  49.468  47.950  1.00  0.00     0.039 A 
HETATM   13  C   UNL     1      18.539  48.761  49.152  1.00  0.00     0.020 A 
HETATM   14  C   UNL     1      19.442  47.736  49.457  1.00  0.00     0.030 A 
BRANCH  12  15
HETATM   15  C   UNL     1      17.714  50.549  47.558  1.00  0.00     0.293 C 
HETATM   16  O   UNL     1      16.524  50.363  47.358  1.00  0.00    -0.259 OA
BRANCH  15  17
HETATM   17  O   UNL     1      18.360  51.737  47.471  1.00  0.00    -0.318 OA
BRANCH  17  18
HETATM   18  C   UNL     1      18.838  52.279  48.712  1.00  0.00     0.174 C 
HETATM   19  C   UNL     1      17.675  52.575  49.640  1.00  0.00     0.034 C 
ENDBRANCH  17  18
ENDBRANCH  15  17
ENDBRANCH  12  15
ENDBRANCH   6   9
ENDBRANCH   1   5
BRANCH   2  20
HETATM   20  C   UNL     1      24.176  44.277  50.912  1.00  0.00     0.137 C 
BRANCH  20  21
HETATM   21  C   UNL     1      25.425  45.197  50.942  1.00  0.00     0.003 C 
HETATM   22  C   UNL     1      26.016  45.496  49.538  1.00  0.00     0.016 C 
HETATM   23  C   UNL     1      26.891  46.734  49.740  1.00  0.00     0.001 C 
HETATM   24  C   UNL     1      26.257  47.496  50.904  1.00  0.00     0.001 C 
HETATM   25  C   UNL     1      25.062  46.650  51.346  1.00  0.00     0.016 C 
BRANCH  21  26
HETATM   26  C   UNL     1      26.458  44.521  51.871  1.00  0.00    -0.048 A 
HETATM   27  C   UNL     1      26.374  44.683  53.267  1.00  0.00     0.011 A 
HETATM   28  C   UNL     1      27.309  44.097  54.126  1.00  0.00     0.037 A 
HETATM   29  C   UNL     1      28.369  43.349  53.622  1.00  0.00     0.068 A 
HETATM   30  C   UNL     1      28.489  43.201  52.243  1.00  0.00     0.037 A 
HETATM   31  C   UNL     1      27.550  43.785  51.381  1.00  0.00     0.011 A 
BRANCH  29  32
HETATM   32  O   UNL     1      29.211  42.833  54.567  1.00  0.00    -0.356 OA
HETATM   33  C   UNL     1      30.122  43.736  55.179  1.00  0.00     0.210 C 
ENDBRANCH  29  32
ENDBRANCH  21  26
ENDBRANCH  20  21
ENDBRANCH   2  20
TORSDOF 9
ENDMDL
MODEL 8
REMARK VINA RESULT:      -7.6      1.722     11.042
REMARK  9 active torsions:
REMARK  status: ('A' for Active; 'I' for Inactive)
REMARK    1  A    between atoms: C_2  and  O_3 
REMARK    2  A    between atoms: O_3  and  C_4 
REMARK    3  A    between atoms: C_4  and  C_5 
REMARK    4  A    between atoms: C_8  and  N_9 
REMARK       I    between atoms: N_9  and  C_10 
REMARK    5  A    between atoms: C_10  and  C_11 
REMARK       I    between atoms: C_11  and  N_12 
REMARK    6  A    between atoms: N_12  and  C_13 
REMARK    7  A    between atoms: C_13  and  C_14 
REMARK    8  A    between atoms: C_14  and  C_15 
REMARK    9  A    between atoms: C_18  and  O_19 
ROOT
HETATM    1  C   UNL     1      22.546  46.402  48.222  1.00  0.00     0.309 C 
HETATM    2  N   UNL     1      21.972  47.285  49.105  1.00  0.00    -0.352 N 
HETATM    3  O   UNL     1      22.306  46.310  47.025  1.00  0.00    -0.262 OA
HETATM    4  H   UNL     1      22.273  47.215  50.075  1.00  0.00     0.162 HD
ENDROOT
BRANCH   1   5
HETATM    5  C   UNL     1      23.551  45.429  48.876  1.00  0.00     0.313 C 
HETATM    6  N   UNL     1      23.900  45.837  50.145  1.00  0.00    -0.319 N 
HETATM    7  H   UNL     1      23.423  46.682  50.456  1.00  0.00     0.169 HD
HETATM    8  O   UNL     1      23.934  44.460  48.237  1.00  0.00    -0.262 OA
BRANCH   6   9
HETATM    9  C   UNL     1      24.848  45.264  51.007  1.00  0.00     0.035 A 
HETATM   10  C   UNL     1      25.766  46.006  51.753  1.00  0.00     0.030 A 
HETATM   11  C   UNL     1      26.657  45.363  52.621  1.00  0.00     0.020 A 
HETATM   12  C   UNL     1      26.642  43.969  52.753  1.00  0.00     0.039 A 
HETATM   13  C   UNL     1      25.732  43.224  51.995  1.00  0.00     0.020 A 
HETATM   14  C   UNL     1      24.842  43.870  51.129  1.00  0.00     0.030 A 
BRANCH  12  15
HETATM   15  C   UNL     1      27.593  43.341  53.709  1.00  0.00     0.293 C 
HETATM   16  O   UNL     1      27.325  42.354  54.376  1.00  0.00    -0.259 OA
BRANCH  15  17
HETATM   17  O   UNL     1      28.772  44.011  53.717  1.00  0.00    -0.318 OA
BRANCH  17  18
HETATM   18  C   UNL     1      29.951  43.197  53.804  1.00  0.00     0.174 C 
HETATM   19  C   UNL     1      30.622  43.384  55.152  1.00  0.00     0.034 C 
ENDBRANCH  17  18
ENDBRANCH  15  17
ENDBRANCH  12  15
ENDBRANCH   6   9
ENDBRANCH   1   5
BRANCH   2  20
HETATM   20  C   UNL     1      20.920  48.208  48.729  1.00  0.00     0.137 C 
BRANCH  20  21
HETATM   21  C   UNL     1      21.333  49.703  48.708  1.00  0.00     0.003 C 
HETATM   22  C   UNL     1      22.302  50.102  49.853  1.00  0.00     0.016 C 
HETATM   23  C   UNL     1      22.928  51.418  49.392  1.00  0.00     0.001 C 
HETATM   24  C   UNL     1      22.919  51.361  47.865  1.00  0.00     0.001 C 
HETATM   25  C   UNL     1      22.260  50.029  47.508  1.00  0.00     0.016 C 
BRANCH  21  26
HETATM   26  C   UNL     1      20.028  50.530  48.742  1.00  0.00    -0.048 A 
HETATM   27  C   UNL     1      19.280  50.728  47.567  1.00  0.00     0.011 A 
HETATM   28  C   UNL     1      18.106  51.489  47.570  1.00  0.00     0.037 A 
HETATM   29  C   UNL     1      17.651  52.093  48.739  1.00  0.00     0.068 A 
HETATM   30  C   UNL     1      18.392  51.934  49.907  1.00  0.00     0.037 A 
HETATM   31  C   UNL     1      19.567  51.169  49.905  1.00  0.00     0.011 A 
BRANCH  29  32
HETATM   32  O   UNL     1      16.494  52.808  48.606  1.00  0.00    -0.356 OA
HETATM   33  C   UNL     1      15.382  52.380  49.380  1.00  0.00     0.210 C 
ENDBRANCH  29  32
ENDBRANCH  21  26
ENDBRANCH  20  21
ENDBRANCH   2  20
TORSDOF 9
ENDMDL
MODEL 9
REMARK VINA RESULT:      -7.5      2.925      9.934
REMARK  9 active torsions:
REMARK  status: ('A' for Active; 'I' for Inactive)
REMARK    1  A    between atoms: C_2  and  O_3 
REMARK    2  A    between atoms: O_3  and  C_4 
REMARK    3  A    between atoms: C_4  and  C_5 
REMARK    4  A    between atoms: C_8  and  N_9 
REMARK       I    between atoms: N_9  and  C_10 
REMARK    5  A    between atoms: C_10  and  C_11 
REMARK       I    between atoms: C_11  and  N_12 
REMARK    6  A    between atoms: N_12  and  C_13 
REMARK    7  A    between atoms: C_13  and  C_14 
REMARK    8  A    between atoms: C_14  and  C_15 
REMARK    9  A    between atoms: C_18  and  O_19 
ROOT
HETATM    1  C   UNL     1      22.628  49.615  49.363  1.00  0.00     0.309 C 
HETATM    2  N   UNL     1      21.478  48.903  49.609  1.00  0.00    -0.352 N 
HETATM    3  O   UNL     1      22.704  50.808  49.100  1.00  0.00    -0.262 OA
HETATM    4  H   UNL     1      21.593  47.909  49.794  1.00  0.00     0.162 HD
ENDROOT
BRANCH   1   5
HETATM    5  C   UNL     1      23.912  48.758  49.392  1.00  0.00     0.313 C 
HETATM    6  N   UNL     1      23.764  47.651  50.201  1.00  0.00    -0.319 N 
HETATM    7  H   UNL     1      22.838  47.560  50.615  1.00  0.00     0.169 HD
HETATM    8  O   UNL     1      24.885  49.130  48.753  1.00  0.00    -0.262 OA
BRANCH   6   9
HETATM    9  C   UNL     1      24.734  46.696  50.544  1.00  0.00     0.035 A 
HETATM   10  C   UNL     1      25.336  46.620  51.802  1.00  0.00     0.030 A 
HETATM   11  C   UNL     1      26.269  45.614  52.080  1.00  0.00     0.020 A 
HETATM   12  C   UNL     1      26.613  44.672  51.103  1.00  0.00     0.039 A 
HETATM   13  C   UNL     1      26.021  44.755  49.839  1.00  0.00     0.020 A 
HETATM   14  C   UNL     1      25.087  45.762  49.564  1.00  0.00     0.030 A 
BRANCH  12  15
HETATM   15  C   UNL     1      27.591  43.609  51.463  1.00  0.00     0.293 C 
HETATM   16  O   UNL     1      27.651  42.529  50.895  1.00  0.00    -0.259 OA
BRANCH  15  17
HETATM   17  O   UNL     1      28.386  44.019  52.481  1.00  0.00    -0.318 OA
BRANCH  17  18
HETATM   18  C   UNL     1      28.800  42.996  53.399  1.00  0.00     0.174 C 
HETATM   19  C   UNL     1      30.289  42.736  53.263  1.00  0.00     0.034 C 
ENDBRANCH  17  18
ENDBRANCH  15  17
ENDBRANCH  12  15
ENDBRANCH   6   9
ENDBRANCH   1   5
BRANCH   2  20
HETATM   20  C   UNL     1      20.154  49.484  49.517  1.00  0.00     0.137 C 
BRANCH  20  21
HETATM   21  C   UNL     1      19.392  49.181  48.199  1.00  0.00     0.003 C 
HETATM   22  C   UNL     1      17.889  49.563  48.243  1.00  0.00     0.016 C 
HETATM   23  C   UNL     1      17.462  49.631  46.776  1.00  0.00     0.001 C 
HETATM   24  C   UNL     1      18.722  50.018  46.002  1.00  0.00     0.001 C 
HETATM   25  C   UNL     1      19.830  50.127  47.050  1.00  0.00     0.016 C 
BRANCH  21  26
HETATM   26  C   UNL     1      19.599  47.680  47.897  1.00  0.00    -0.048 A 
HETATM   27  C   UNL     1      20.546  47.269  46.941  1.00  0.00     0.011 A 
HETATM   28  C   UNL     1      20.736  45.917  46.637  1.00  0.00     0.037 A 
HETATM   29  C   UNL     1      19.974  44.933  47.260  1.00  0.00     0.068 A 
HETATM   30  C   UNL     1      19.010  45.319  48.187  1.00  0.00     0.037 A 
HETATM   31  C   UNL     1      18.822  46.674  48.495  1.00  0.00     0.011 A 
BRANCH  29  32
HETATM   32  O   UNL     1      20.257  43.654  46.873  1.00  0.00    -0.356 OA
HETATM   33  C   UNL     1      19.798  43.254  45.589  1.00  0.00     0.210 C 
ENDBRANCH  29  32
ENDBRANCH  21  26
ENDBRANCH  20  21
ENDBRANCH   2  20
TORSDOF 9
ENDMDL
MODEL 10
REMARK VINA RESULT:      -7.5      2.648     11.052
REMARK  9 active torsions:
REMARK  status: ('A' for Active; 'I' for Inactive)
REMARK    1  A    between atoms: C_2  and  O_3 
REMARK    2  A    between atoms: O_3  and  C_4 
REMARK    3  A    between atoms: C_4  and  C_5 
REMARK    4  A    between atoms: C_8  and  N_9 
REMARK       I    between atoms: N_9  and  C_10 
REMARK    5  A    between atoms: C_10  and  C_11 
REMARK       I    between atoms: C_11  and  N_12 
REMARK    6  A    between atoms: N_12  and  C_13 
REMARK    7  A    between atoms: C_13  and  C_14 
REMARK    8  A    between atoms: C_14  and  C_15 
REMARK    9  A    between atoms: C_18  and  O_19 
ROOT
HETATM    1  C   UNL     1      22.164  46.690  47.738  1.00  0.00     0.309 C 
HETATM    2  N   UNL     1      21.558  47.813  48.249  1.00  0.00    -0.352 N 
HETATM    3  O   UNL     1      22.191  46.349  46.563  1.00  0.00    -0.262 OA
HETATM    4  H   UNL     1      21.615  47.937  49.258  1.00  0.00     0.162 HD
ENDROOT
BRANCH   1   5
HETATM    5  C   UNL     1      22.820  45.791  48.808  1.00  0.00     0.313 C 
HETATM    6  N   UNL     1      24.032  46.298  49.223  1.00  0.00    -0.319 N 
HETATM    7  H   UNL     1      24.282  47.186  48.789  1.00  0.00     0.169 HD
HETATM    8  O   UNL     1      22.247  44.767  49.149  1.00  0.00    -0.262 OA
BRANCH   6   9
HETATM    9  C   UNL     1      24.954  45.720  50.110  1.00  0.00     0.035 A 
HETATM   10  C   UNL     1      24.657  45.403  51.437  1.00  0.00     0.030 A 
HETATM   11  C   UNL     1      25.620  44.792  52.250  1.00  0.00     0.020 A 
HETATM   12  C   UNL     1      26.891  44.492  51.747  1.00  0.00     0.039 A 
HETATM   13  C   UNL     1      27.194  44.823  50.422  1.00  0.00     0.020 A 
HETATM   14  C   UNL     1      26.228  45.432  49.611  1.00  0.00     0.030 A 
BRANCH  12  15
HETATM   15  C   UNL     1      27.866  43.819  52.649  1.00  0.00     0.293 C 
HETATM   16  O   UNL     1      28.718  43.038  52.256  1.00  0.00    -0.259 OA
BRANCH  15  17
HETATM   17  O   UNL     1      27.670  44.206  53.933  1.00  0.00    -0.318 OA
BRANCH  17  18
HETATM   18  C   UNL     1      28.804  44.799  54.585  1.00  0.00     0.174 C 
HETATM   19  C   UNL     1      28.405  46.098  55.261  1.00  0.00     0.034 C 
ENDBRANCH  17  18
ENDBRANCH  15  17
ENDBRANCH  12  15
ENDBRANCH   6   9
ENDBRANCH   1   5
BRANCH   2  20
HETATM   20  C   UNL     1      20.786  48.733  47.439  1.00  0.00     0.137 C 
BRANCH  20  21
HETATM   21  C   UNL     1      19.825  49.660  48.231  1.00  0.00     0.003 C 
HETATM   22  C   UNL     1      20.090  49.677  49.759  1.00  0.00     0.016 C 
HETATM   23  C   UNL     1      19.395  50.945  50.260  1.00  0.00     0.001 C 
HETATM   24  C   UNL     1      19.420  51.916  49.080  1.00  0.00     0.001 C 
HETATM   25  C   UNL     1      20.099  51.158  47.938  1.00  0.00     0.016 C 
BRANCH  21  26
HETATM   26  C   UNL     1      18.387  49.203  47.899  1.00  0.00    -0.048 A 
HETATM   27  C   UNL     1      17.694  49.764  46.809  1.00  0.00     0.011 A 
HETATM   28  C   UNL     1      16.385  49.380  46.502  1.00  0.00     0.037 A 
HETATM   29  C   UNL     1      15.716  48.442  47.282  1.00  0.00     0.068 A 
HETATM   30  C   UNL     1      16.371  47.895  48.382  1.00  0.00     0.037 A 
HETATM   31  C   UNL     1      17.686  48.277  48.689  1.00  0.00     0.011 A 
BRANCH  29  32
HETATM   32  O   UNL     1      14.443  48.156  46.876  1.00  0.00    -0.356 OA
HETATM   33  C   UNL     1      13.937  48.900  45.776  1.00  0.00     0.210 C 
ENDBRANCH  29  32
ENDBRANCH  21  26
ENDBRANCH  20  21
ENDBRANCH   2  20
TORSDOF 9
ENDMDL
