MODEL 1
REMARK VINA RESULT:      -9.0      0.000      0.000
REMARK  6 active torsions:
REMARK  status: ('A' for Active; 'I' for Inactive)
REMARK    1  A    between atoms: C_2  and  O_3 
REMARK    2  A    between atoms: C_2  and  C_4 
REMARK    3  A    between atoms: C_7  and  N_8 
REMARK       I    between atoms: N_8  and  C_9 
REMARK    4  A    between atoms: C_9  and  C_10 
REMARK    5  A    between atoms: C_15  and  C_16 
REMARK    6  A    between atoms: C_22  and  C_23 
ROOT
HETATM    1  C   UNL     1      24.915  44.684  51.867  1.00  0.00     0.148 A 
HETATM    2  N   UNL     1      23.980  43.787  51.470  1.00  0.00    -0.165 NA
HETATM    3  N   UNL     1      23.552  44.293  50.298  1.00  0.00    -0.240 N 
HETATM    4  C   UNL     1      24.093  45.505  49.981  1.00  0.00     0.123 A 
HETATM    5  N   UNL     1      23.649  46.209  48.922  1.00  0.00    -0.364 N 
HETATM    6  C   UNL     1      22.357  45.933  48.277  1.00  0.00     0.143 C 
HETATM    7  C   UNL     1      21.563  44.840  49.032  1.00  0.00     0.068 C 
HETATM    8  C   UNL     1      22.460  43.706  49.546  1.00  0.00     0.221 C 
HETATM    9  C   UNL     1      25.048  45.748  50.929  1.00  0.00     0.089 A 
HETATM   10  H   UNL     1      24.059  47.111  48.682  1.00  0.00     0.162 HD
ENDROOT
BRANCH   1  11
HETATM   11  C   UNL     1      25.616  44.570  53.159  1.00  0.00     0.276 C 
HETATM   12  N   UNL     1      26.951  44.907  53.052  1.00  0.00    -0.322 N 
HETATM   13  H   UNL     1      27.209  45.252  52.131  1.00  0.00     0.169 HD
HETATM   14  O   UNL     1      25.035  44.182  54.166  1.00  0.00    -0.266 OA
BRANCH  12  15
HETATM   15  C   UNL     1      27.966  44.746  54.009  1.00  0.00     0.035 A 
HETATM   16  C   UNL     1      28.834  43.654  54.043  1.00  0.00     0.030 A 
HETATM   17  C   UNL     1      29.865  43.593  54.988  1.00  0.00     0.012 A 
HETATM   18  C   UNL     1      30.046  44.622  55.921  1.00  0.00    -0.030 A 
HETATM   19  C   UNL     1      29.152  45.701  55.905  1.00  0.00     0.012 A 
HETATM   20  C   UNL     1      28.129  45.765  54.953  1.00  0.00     0.030 A 
BRANCH  18  21
HETATM   21  C   UNL     1      31.172  44.544  56.927  1.00  0.00     0.147 C 
HETATM   22  C   UNL     1      31.691  43.124  57.101  1.00  0.00     0.044 C 
BRANCH  21  23
HETATM   23  O   UNL     1      30.741  45.037  58.196  1.00  0.00    -0.391 OA
HETATM   24  H   UNL     1      31.265  45.837  58.378  1.00  0.00     0.210 HD
ENDBRANCH  21  23
ENDBRANCH  18  21
ENDBRANCH  12  15
ENDBRANCH   1  11
BRANCH   8  25
HETATM   25  C   UNL     1      22.998  42.830  48.439  1.00  0.00     0.409 C 
HETATM   26  F   UNL     1      24.258  43.167  48.086  1.00  0.00    -0.169 F 
HETATM   27  F   UNL     1      23.050  41.540  48.864  1.00  0.00    -0.169 F 
HETATM   28  F   UNL     1      22.241  42.836  47.323  1.00  0.00    -0.169 F 
ENDBRANCH   8  25
BRANCH   6  29
HETATM   29  C   UNL     1      21.502  47.161  48.164  1.00  0.00     0.075 A 
HETATM   30  O   UNL     1      21.691  48.134  49.102  1.00  0.00    -0.325 OA
HETATM   31  C   UNL     1      20.831  49.142  48.803  1.00  0.00     0.142 A 
HETATM   32  C   UNL     1      20.095  48.835  47.682  1.00  0.00     0.027 A 
HETATM   33  C   UNL     1      20.529  47.554  47.266  1.00  0.00     0.037 A 
ENDBRANCH   6  29
TORSDOF 6
ENDMDL
MODEL 2
REMARK VINA RESULT:      -9.0      2.468      9.487
REMARK  6 active torsions:
REMARK  status: ('A' for Active; 'I' for Inactive)
REMARK    1  A    between atoms: C_2  and  O_3 
REMARK    2  A    between atoms: C_2  and  C_4 
REMARK    3  A    between atoms: C_7  and  N_8 
REMARK       I    between atoms: N_8  and  C_9 
REMARK    4  A    between atoms: C_9  and  C_10 
REMARK    5  A    between atoms: C_15  and  C_16 
REMARK    6  A    between atoms: C_22  and  C_23 
ROOT
HETATM    1  C   UNL     1      25.309  46.693  50.658  1.00  0.00     0.148 A 
HETATM    2  N   UNL     1      26.008  45.734  50.004  1.00  0.00    -0.165 NA
HETATM    3  N   UNL     1      26.404  44.916  50.996  1.00  0.00    -0.240 N 
HETATM    4  C   UNL     1      26.077  45.355  52.247  1.00  0.00     0.123 A 
HETATM    5  N   UNL     1      26.539  44.728  53.346  1.00  0.00    -0.364 N 
HETATM    6  C   UNL     1      27.680  43.802  53.306  1.00  0.00     0.143 C 
HETATM    7  C   UNL     1      28.320  43.745  51.898  1.00  0.00     0.068 C 
HETATM    8  C   UNL     1      27.278  43.782  50.772  1.00  0.00     0.221 C 
HETATM    9  C   UNL     1      25.289  46.457  52.063  1.00  0.00     0.089 A 
HETATM   10  H   UNL     1      26.288  45.053  54.279  1.00  0.00     0.162 HD
ENDROOT
BRANCH   1  11
HETATM   11  C   UNL     1      24.735  47.861  49.963  1.00  0.00     0.276 C 
HETATM   12  N   UNL     1      23.354  47.849  49.991  1.00  0.00    -0.322 N 
HETATM   13  H   UNL     1      22.967  47.091  50.549  1.00  0.00     0.169 HD
HETATM   14  O   UNL     1      25.451  48.690  49.415  1.00  0.00    -0.266 OA
BRANCH  12  15
HETATM   15  C   UNL     1      22.465  48.679  49.290  1.00  0.00     0.035 A 
HETATM   16  C   UNL     1      21.576  48.217  48.318  1.00  0.00     0.030 A 
HETATM   17  C   UNL     1      20.672  49.094  47.706  1.00  0.00     0.012 A 
HETATM   18  C   UNL     1      20.643  50.451  48.051  1.00  0.00    -0.030 A 
HETATM   19  C   UNL     1      21.559  50.917  49.003  1.00  0.00     0.012 A 
HETATM   20  C   UNL     1      22.455  50.037  49.621  1.00  0.00     0.030 A 
BRANCH  18  21
HETATM   21  C   UNL     1      19.652  51.381  47.387  1.00  0.00     0.147 C 
HETATM   22  C   UNL     1      19.025  52.355  48.373  1.00  0.00     0.044 C 
BRANCH  21  23
HETATM   23  O   UNL     1      18.614  50.632  46.754  1.00  0.00    -0.391 OA
HETATM   24  H   UNL     1      18.196  50.092  47.447  1.00  0.00     0.210 HD
ENDBRANCH  21  23
ENDBRANCH  18  21
ENDBRANCH  12  15
ENDBRANCH   1  11
BRANCH   8  25
HETATM   25  C   UNL     1      26.471  42.508  50.673  1.00  0.00     0.409 C 
HETATM   26  F   UNL     1      25.206  42.669  51.119  1.00  0.00    -0.169 F 
HETATM   27  F   UNL     1      26.375  42.131  49.370  1.00  0.00    -0.169 F 
HETATM   28  F   UNL     1      27.013  41.467  51.335  1.00  0.00    -0.169 F 
ENDBRANCH   8  25
BRANCH   6  29
HETATM   29  C   UNL     1      28.740  44.160  54.306  1.00  0.00     0.075 A 
HETATM   30  O   UNL     1      28.590  45.343  54.968  1.00  0.00    -0.325 OA
HETATM   31  C   UNL     1      29.644  45.456  55.818  1.00  0.00     0.142 A 
HETATM   32  C   UNL     1      30.467  44.358  55.717  1.00  0.00     0.027 A 
HETATM   33  C   UNL     1      29.884  43.518  54.740  1.00  0.00     0.037 A 
ENDBRANCH   6  29
TORSDOF 6
ENDMDL
MODEL 3
REMARK VINA RESULT:      -8.8      2.764      9.502
REMARK  6 active torsions:
REMARK  status: ('A' for Active; 'I' for Inactive)
REMARK    1  A    between atoms: C_2  and  O_3 
REMARK    2  A    between atoms: C_2  and  C_4 
REMARK    3  A    between atoms: C_7  and  N_8 
REMARK       I    between atoms: N_8  and  C_9 
REMARK    4  A    between atoms: C_9  and  C_10 
REMARK    5  A    between atoms: C_15  and  C_16 
REMARK    6  A    between atoms: C_22  and  C_23 
ROOT
HETATM    1  C   UNL     1      26.809  45.138  51.098  1.00  0.00     0.148 A 
HETATM    2  N   UNL     1      27.662  44.163  50.700  1.00  0.00    -0.165 NA
HETATM    3  N   UNL     1      27.994  43.559  51.856  1.00  0.00    -0.240 N 
HETATM    4  C   UNL     1      27.476  44.157  52.969  1.00  0.00     0.123 A 
HETATM    5  N   UNL     1      27.844  43.765  54.204  1.00  0.00    -0.364 N 
HETATM    6  C   UNL     1      29.054  42.966  54.450  1.00  0.00     0.143 C 
HETATM    7  C   UNL     1      29.870  42.749  53.154  1.00  0.00     0.068 C 
HETATM    8  C   UNL     1      28.980  42.499  51.929  1.00  0.00     0.221 C 
HETATM    9  C   UNL     1      26.630  45.129  52.512  1.00  0.00     0.089 A 
HETATM   10  H   UNL     1      27.451  44.207  55.034  1.00  0.00     0.162 HD
ENDROOT
BRANCH   1  11
HETATM   11  C   UNL     1      26.234  46.115  50.154  1.00  0.00     0.276 C 
HETATM   12  N   UNL     1      24.910  46.385  50.436  1.00  0.00    -0.322 N 
HETATM   13  H   UNL     1      24.576  45.935  51.286  1.00  0.00     0.169 HD
HETATM   14  O   UNL     1      26.895  46.570  49.228  1.00  0.00    -0.266 OA
BRANCH  12  15
HETATM   15  C   UNL     1      23.987  47.108  49.663  1.00  0.00     0.035 A 
HETATM   16  C   UNL     1      22.968  46.516  48.916  1.00  0.00     0.030 A 
HETATM   17  C   UNL     1      22.045  47.305  48.220  1.00  0.00     0.012 A 
HETATM   18  C   UNL     1      22.126  48.703  48.254  1.00  0.00    -0.030 A 
HETATM   19  C   UNL     1      23.170  49.293  48.978  1.00  0.00     0.012 A 
HETATM   20  C   UNL     1      24.086  48.503  49.681  1.00  0.00     0.030 A 
BRANCH  18  21
HETATM   21  C   UNL     1      21.113  49.539  47.504  1.00  0.00     0.147 C 
HETATM   22  C   UNL     1      20.791  50.839  48.227  1.00  0.00     0.044 C 
BRANCH  21  23
HETATM   23  O   UNL     1      19.904  48.804  47.315  1.00  0.00    -0.391 OA
HETATM   24  H   UNL     1      19.850  48.593  46.366  1.00  0.00     0.210 HD
ENDBRANCH  21  23
ENDBRANCH  18  21
ENDBRANCH  12  15
ENDBRANCH   1  11
BRANCH   8  25
HETATM   25  C   UNL     1      28.299  41.150  51.959  1.00  0.00     0.409 C 
HETATM   26  F   UNL     1      27.706  40.850  50.783  1.00  0.00    -0.169 F 
HETATM   27  F   UNL     1      29.224  40.179  52.184  1.00  0.00    -0.169 F 
HETATM   28  F   UNL     1      27.373  41.030  52.932  1.00  0.00    -0.169 F 
ENDBRANCH   8  25
BRANCH   6  29
HETATM   29  C   UNL     1      29.945  43.585  55.486  1.00  0.00     0.075 A 
HETATM   30  O   UNL     1      29.680  44.877  55.836  1.00  0.00    -0.325 OA
HETATM   31  C   UNL     1      30.591  45.224  56.782  1.00  0.00     0.142 A 
HETATM   32  C   UNL     1      31.435  44.171  57.051  1.00  0.00     0.027 A 
HETATM   33  C   UNL     1      31.018  43.110  56.214  1.00  0.00     0.037 A 
ENDBRANCH   6  29
TORSDOF 6
ENDMDL
MODEL 4
REMARK VINA RESULT:      -8.5      3.609     10.193
REMARK  6 active torsions:
REMARK  status: ('A' for Active; 'I' for Inactive)
REMARK    1  A    between atoms: C_2  and  O_3 
REMARK    2  A    between atoms: C_2  and  C_4 
REMARK    3  A    between atoms: C_7  and  N_8 
REMARK       I    between atoms: N_8  and  C_9 
REMARK    4  A    between atoms: C_9  and  C_10 
REMARK    5  A    between atoms: C_15  and  C_16 
REMARK    6  A    between atoms: C_22  and  C_23 
ROOT
HETATM    1  C   UNL     1      22.998  47.967  49.129  1.00  0.00     0.148 A 
HETATM    2  N   UNL     1      24.039  48.754  49.493  1.00  0.00    -0.165 NA
HETATM    3  N   UNL     1      25.010  47.865  49.773  1.00  0.00    -0.240 N 
HETATM    4  C   UNL     1      24.613  46.562  49.699  1.00  0.00     0.123 A 
HETATM    5  N   UNL     1      25.424  45.564  50.102  1.00  0.00    -0.364 N 
HETATM    6  C   UNL     1      26.592  45.796  50.964  1.00  0.00     0.143 C 
HETATM    7  C   UNL     1      26.683  47.272  51.418  1.00  0.00     0.068 C 
HETATM    8  C   UNL     1      26.299  48.259  50.307  1.00  0.00     0.221 C 
HETATM    9  C   UNL     1      23.341  46.586  49.198  1.00  0.00     0.089 A 
HETATM   10  H   UNL     1      25.128  44.590  50.039  1.00  0.00     0.162 HD
ENDROOT
BRANCH   1  11
HETATM   11  C   UNL     1      21.671  48.519  48.797  1.00  0.00     0.276 C 
HETATM   12  N   UNL     1      21.460  49.746  49.394  1.00  0.00    -0.322 N 
HETATM   13  H   UNL     1      22.274  50.100  49.892  1.00  0.00     0.169 HD
HETATM   14  O   UNL     1      20.881  47.897  48.097  1.00  0.00    -0.266 OA
BRANCH  12  15
HETATM   15  C   UNL     1      20.267  50.484  49.463  1.00  0.00     0.035 A 
HETATM   16  C   UNL     1      20.051  51.675  48.769  1.00  0.00     0.030 A 
HETATM   17  C   UNL     1      18.812  52.322  48.835  1.00  0.00     0.012 A 
HETATM   18  C   UNL     1      17.765  51.793  49.602  1.00  0.00    -0.030 A 
HETATM   19  C   UNL     1      17.997  50.615  50.323  1.00  0.00     0.012 A 
HETATM   20  C   UNL     1      19.233  49.964  50.248  1.00  0.00     0.030 A 
BRANCH  18  21
HETATM   21  C   UNL     1      16.430  52.501  49.652  1.00  0.00     0.147 C 
HETATM   22  C   UNL     1      15.501  52.060  48.531  1.00  0.00     0.044 C 
BRANCH  21  23
HETATM   23  O   UNL     1      16.613  53.914  49.572  1.00  0.00    -0.391 OA
HETATM   24  H   UNL     1      17.502  54.102  49.919  1.00  0.00     0.210 HD
ENDBRANCH  21  23
ENDBRANCH  18  21
ENDBRANCH  12  15
ENDBRANCH   1  11
BRANCH   8  25
HETATM   25  C   UNL     1      27.326  48.330  49.200  1.00  0.00     0.409 C 
HETATM   26  F   UNL     1      26.843  48.935  48.093  1.00  0.00    -0.169 F 
HETATM   27  F   UNL     1      28.388  49.071  49.612  1.00  0.00    -0.169 F 
HETATM   28  F   UNL     1      27.815  47.128  48.834  1.00  0.00    -0.169 F 
ENDBRANCH   8  25
BRANCH   6  29
HETATM   29  C   UNL     1      26.588  44.915  52.178  1.00  0.00     0.075 A 
HETATM   30  O   UNL     1      25.515  45.019  53.014  1.00  0.00    -0.325 OA
HETATM   31  C   UNL     1      25.716  44.135  54.026  1.00  0.00     0.142 A 
HETATM   32  C   UNL     1      26.900  43.458  53.849  1.00  0.00     0.027 A 
HETATM   33  C   UNL     1      27.466  43.960  52.654  1.00  0.00     0.037 A 
ENDBRANCH   6  29
TORSDOF 6
ENDMDL
MODEL 5
REMARK VINA RESULT:      -8.2      2.010      2.343
REMARK  6 active torsions:
REMARK  status: ('A' for Active; 'I' for Inactive)
REMARK    1  A    between atoms: C_2  and  O_3 
REMARK    2  A    between atoms: C_2  and  C_4 
REMARK    3  A    between atoms: C_7  and  N_8 
REMARK       I    between atoms: N_8  and  C_9 
REMARK    4  A    between atoms: C_9  and  C_10 
REMARK    5  A    between atoms: C_15  and  C_16 
REMARK    6  A    between atoms: C_22  and  C_23 
ROOT
HETATM    1  C   UNL     1      25.724  43.673  51.250  1.00  0.00     0.148 A 
HETATM    2  N   UNL     1      25.271  42.457  50.861  1.00  0.00    -0.165 NA
HETATM    3  N   UNL     1      24.815  42.686  49.616  1.00  0.00    -0.240 N 
HETATM    4  C   UNL     1      24.866  43.996  49.234  1.00  0.00     0.123 A 
HETATM    5  N   UNL     1      24.303  44.406  48.081  1.00  0.00    -0.364 N 
HETATM    6  C   UNL     1      23.308  43.600  47.358  1.00  0.00     0.143 C 
HETATM    7  C   UNL     1      22.931  42.320  48.141  1.00  0.00     0.068 C 
HETATM    8  C   UNL     1      24.138  41.672  48.833  1.00  0.00     0.221 C 
HETATM    9  C   UNL     1      25.532  44.651  50.232  1.00  0.00     0.089 A 
HETATM   10  H   UNL     1      24.348  45.383  47.794  1.00  0.00     0.162 HD
ENDROOT
BRANCH   1  11
HETATM   11  C   UNL     1      26.261  43.918  52.602  1.00  0.00     0.276 C 
HETATM   12  N   UNL     1      27.637  44.030  52.597  1.00  0.00    -0.322 N 
HETATM   13  H   UNL     1      28.042  44.008  51.664  1.00  0.00     0.169 HD
HETATM   14  O   UNL     1      25.523  43.970  53.579  1.00  0.00    -0.266 OA
BRANCH  12  15
HETATM   15  C   UNL     1      28.508  44.078  53.698  1.00  0.00     0.035 A 
HETATM   16  C   UNL     1      29.449  43.089  53.986  1.00  0.00     0.030 A 
HETATM   17  C   UNL     1      30.328  43.236  55.065  1.00  0.00     0.012 A 
HETATM   18  C   UNL     1      30.282  44.375  55.879  1.00  0.00    -0.030 A 
HETATM   19  C   UNL     1      29.314  45.350  55.606  1.00  0.00     0.012 A 
HETATM   20  C   UNL     1      28.442  45.206  54.521  1.00  0.00     0.030 A 
BRANCH  18  21
HETATM   21  C   UNL     1      31.248  44.521  57.034  1.00  0.00     0.147 C 
HETATM   22  C   UNL     1      32.029  43.242  57.296  1.00  0.00     0.044 C 
BRANCH  21  23
HETATM   23  O   UNL     1      30.550  44.889  58.223  1.00  0.00    -0.391 OA
HETATM   24  H   UNL     1      29.729  45.329  57.942  1.00  0.00     0.210 HD
ENDBRANCH  21  23
ENDBRANCH  18  21
ENDBRANCH  12  15
ENDBRANCH   1  11
BRANCH   8  25
HETATM   25  C   UNL     1      25.101  41.030  47.860  1.00  0.00     0.409 C 
HETATM   26  F   UNL     1      24.683  41.139  46.580  1.00  0.00    -0.169 F 
HETATM   27  F   UNL     1      26.303  41.662  47.928  1.00  0.00    -0.169 F 
HETATM   28  F   UNL     1      25.338  39.727  48.109  1.00  0.00    -0.169 F 
ENDBRANCH   8  25
BRANCH   6  29
HETATM   29  C   UNL     1      22.057  44.373  47.060  1.00  0.00     0.075 A 
HETATM   30  O   UNL     1      20.935  44.023  47.753  1.00  0.00    -0.325 OA
HETATM   31  C   UNL     1      19.940  44.849  47.336  1.00  0.00     0.142 A 
HETATM   32  C   UNL     1      20.408  45.730  46.388  1.00  0.00     0.027 A 
HETATM   33  C   UNL     1      21.777  45.424  46.208  1.00  0.00     0.037 A 
ENDBRANCH   6  29
TORSDOF 6
ENDMDL
MODEL 6
REMARK VINA RESULT:      -8.0      3.852      5.472
REMARK  6 active torsions:
REMARK  status: ('A' for Active; 'I' for Inactive)
REMARK    1  A    between atoms: C_2  and  O_3 
REMARK    2  A    between atoms: C_2  and  C_4 
REMARK    3  A    between atoms: C_7  and  N_8 
REMARK       I    between atoms: N_8  and  C_9 
REMARK    4  A    between atoms: C_9  and  C_10 
REMARK    5  A    between atoms: C_15  and  C_16 
REMARK    6  A    between atoms: C_22  and  C_23 
ROOT
HETATM    1  C   UNL     1      23.575  47.904  49.562  1.00  0.00     0.148 A 
HETATM    2  N   UNL     1      23.333  49.237  49.523  1.00  0.00    -0.165 NA
HETATM    3  N   UNL     1      22.043  49.300  49.142  1.00  0.00    -0.240 N 
HETATM    4  C   UNL     1      21.487  48.089  48.847  1.00  0.00     0.123 A 
HETATM    5  N   UNL     1      20.258  48.003  48.303  1.00  0.00    -0.364 N 
HETATM    6  C   UNL     1      19.597  49.148  47.660  1.00  0.00     0.143 C 
HETATM    7  C   UNL     1      20.527  50.383  47.598  1.00  0.00     0.068 C 
HETATM    8  C   UNL     1      21.370  50.554  48.869  1.00  0.00     0.221 C 
HETATM    9  C   UNL     1      22.422  47.153  49.193  1.00  0.00     0.089 A 
HETATM   10  H   UNL     1      19.841  47.097  48.089  1.00  0.00     0.162 HD
ENDROOT
BRANCH   1  11
HETATM   11  C   UNL     1      24.909  47.355  49.871  1.00  0.00     0.276 C 
HETATM   12  N   UNL     1      24.832  46.246  50.691  1.00  0.00    -0.322 N 
HETATM   13  H   UNL     1      23.878  45.946  50.878  1.00  0.00     0.169 HD
HETATM   14  O   UNL     1      25.929  47.887  49.449  1.00  0.00    -0.266 OA
BRANCH  12  15
HETATM   15  C   UNL     1      25.880  45.573  51.340  1.00  0.00     0.035 A 
HETATM   16  C   UNL     1      26.174  45.721  52.696  1.00  0.00     0.030 A 
HETATM   17  C   UNL     1      27.193  44.968  53.290  1.00  0.00     0.012 A 
HETATM   18  C   UNL     1      27.941  44.053  52.537  1.00  0.00    -0.030 A 
HETATM   19  C   UNL     1      27.664  43.931  51.170  1.00  0.00     0.012 A 
HETATM   20  C   UNL     1      26.638  44.678  50.580  1.00  0.00     0.030 A 
BRANCH  18  21
HETATM   21  C   UNL     1      29.031  43.239  53.199  1.00  0.00     0.147 C 
HETATM   22  C   UNL     1      29.470  43.837  54.528  1.00  0.00     0.044 C 
BRANCH  21  23
HETATM   23  O   UNL     1      30.167  43.138  52.340  1.00  0.00    -0.391 OA
HETATM   24  H   UNL     1      30.666  42.354  52.627  1.00  0.00     0.210 HD
ENDBRANCH  21  23
ENDBRANCH  18  21
ENDBRANCH  12  15
ENDBRANCH   1  11
BRANCH   8  25
HETATM   25  C   UNL     1      20.554  50.983  50.066  1.00  0.00     0.409 C 
HETATM   26  F   UNL     1      21.328  51.418  51.084  1.00  0.00    -0.169 F 
HETATM   27  F   UNL     1      19.752  52.025  49.720  1.00  0.00    -0.169 F 
HETATM   28  F   UNL     1      19.743  50.018  50.546  1.00  0.00    -0.169 F 
ENDBRANCH   8  25
BRANCH   6  29
HETATM   29  C   UNL     1      19.123  48.828  46.273  1.00  0.00     0.075 A 
HETATM   30  O   UNL     1      18.676  49.871  45.517  1.00  0.00    -0.325 OA
HETATM   31  C   UNL     1      18.312  49.358  44.313  1.00  0.00     0.142 A 
HETATM   32  C   UNL     1      18.524  47.999  44.281  1.00  0.00     0.027 A 
HETATM   33  C   UNL     1      19.050  47.654  45.549  1.00  0.00     0.037 A 
ENDBRANCH   6  29
TORSDOF 6
ENDMDL
MODEL 7
REMARK VINA RESULT:      -8.0     17.806     19.834
REMARK  6 active torsions:
REMARK  status: ('A' for Active; 'I' for Inactive)
REMARK    1  A    between atoms: C_2  and  O_3 
REMARK    2  A    between atoms: C_2  and  C_4 
REMARK    3  A    between atoms: C_7  and  N_8 
REMARK       I    between atoms: N_8  and  C_9 
REMARK    4  A    between atoms: C_9  and  C_10 
REMARK    5  A    between atoms: C_15  and  C_16 
REMARK    6  A    between atoms: C_22  and  C_23 
ROOT
HETATM    1  C   UNL     1      38.246  41.440  63.860  1.00  0.00     0.148 A 
HETATM    2  N   UNL     1      37.569  41.432  65.035  1.00  0.00    -0.165 NA
HETATM    3  N   UNL     1      36.831  42.556  64.969  1.00  0.00    -0.240 N 
HETATM    4  C   UNL     1      37.074  43.320  63.865  1.00  0.00     0.123 A 
HETATM    5  N   UNL     1      36.531  44.546  63.735  1.00  0.00    -0.364 N 
HETATM    6  C   UNL     1      35.970  45.285  64.875  1.00  0.00     0.143 C 
HETATM    7  C   UNL     1      36.191  44.533  66.209  1.00  0.00     0.068 C 
HETATM    8  C   UNL     1      36.009  43.016  66.070  1.00  0.00     0.221 C 
HETATM    9  C   UNL     1      37.919  42.586  63.079  1.00  0.00     0.089 A 
HETATM   10  H   UNL     1      36.708  45.113  62.906  1.00  0.00     0.162 HD
ENDROOT
BRANCH   1  11
HETATM   11  C   UNL     1      39.248  40.413  63.522  1.00  0.00     0.276 C 
HETATM   12  N   UNL     1      39.918  39.958  64.641  1.00  0.00    -0.322 N 
HETATM   13  H   UNL     1      39.558  40.342  65.511  1.00  0.00     0.169 HD
HETATM   14  O   UNL     1      39.441  40.071  62.361  1.00  0.00    -0.266 OA
BRANCH  12  15
HETATM   15  C   UNL     1      41.050  39.130  64.698  1.00  0.00     0.035 A 
HETATM   16  C   UNL     1      41.043  37.780  64.346  1.00  0.00     0.030 A 
HETATM   17  C   UNL     1      42.226  37.032  64.366  1.00  0.00     0.012 A 
HETATM   18  C   UNL     1      43.440  37.620  64.742  1.00  0.00    -0.030 A 
HETATM   19  C   UNL     1      43.438  38.967  65.126  1.00  0.00     0.012 A 
HETATM   20  C   UNL     1      42.256  39.716  65.096  1.00  0.00     0.030 A 
BRANCH  18  21
HETATM   21  C   UNL     1      44.710  36.799  64.747  1.00  0.00     0.147 C 
HETATM   22  C   UNL     1      45.911  37.593  64.256  1.00  0.00     0.044 C 
BRANCH  21  23
HETATM   23  O   UNL     1      44.556  35.640  63.928  1.00  0.00    -0.391 OA
HETATM   24  H   UNL     1      44.641  35.935  63.005  1.00  0.00     0.210 HD
ENDBRANCH  21  23
ENDBRANCH  18  21
ENDBRANCH  12  15
ENDBRANCH   1  11
BRANCH   8  25
HETATM   25  C   UNL     1      34.568  42.612  65.853  1.00  0.00     0.409 C 
HETATM   26  F   UNL     1      33.958  42.256  67.004  1.00  0.00    -0.169 F 
HETATM   27  F   UNL     1      33.870  43.668  65.357  1.00  0.00    -0.169 F 
HETATM   28  F   UNL     1      34.413  41.602  64.973  1.00  0.00    -0.169 F 
ENDBRANCH   8  25
BRANCH   6  29
HETATM   29  C   UNL     1      36.545  46.666  64.997  1.00  0.00     0.075 A 
HETATM   30  O   UNL     1      36.940  47.063  66.240  1.00  0.00    -0.325 OA
HETATM   31  C   UNL     1      37.431  48.324  66.114  1.00  0.00     0.142 A 
HETATM   32  C   UNL     1      37.362  48.742  64.805  1.00  0.00     0.027 A 
HETATM   33  C   UNL     1      36.790  47.670  64.080  1.00  0.00     0.037 A 
ENDBRANCH   6  29
TORSDOF 6
ENDMDL
MODEL 8
REMARK VINA RESULT:      -7.9      2.353      3.419
REMARK  6 active torsions:
REMARK  status: ('A' for Active; 'I' for Inactive)
REMARK    1  A    between atoms: C_2  and  O_3 
REMARK    2  A    between atoms: C_2  and  C_4 
REMARK    3  A    between atoms: C_7  and  N_8 
REMARK       I    between atoms: N_8  and  C_9 
REMARK    4  A    between atoms: C_9  and  C_10 
REMARK    5  A    between atoms: C_15  and  C_16 
REMARK    6  A    between atoms: C_22  and  C_23 
ROOT
HETATM    1  C   UNL     1      23.219  44.883  49.748  1.00  0.00     0.148 A 
HETATM    2  N   UNL     1      21.946  44.541  49.432  1.00  0.00    -0.165 NA
HETATM    3  N   UNL     1      21.542  45.561  48.653  1.00  0.00    -0.240 N 
HETATM    4  C   UNL     1      22.452  46.572  48.538  1.00  0.00     0.123 A 
HETATM    5  N   UNL     1      22.133  47.727  47.923  1.00  0.00    -0.364 N 
HETATM    6  C   UNL     1      20.742  48.131  47.674  1.00  0.00     0.143 C 
HETATM    7  C   UNL     1      19.737  47.134  48.298  1.00  0.00     0.068 C 
HETATM    8  C   UNL     1      20.185  45.673  48.155  1.00  0.00     0.221 C 
HETATM    9  C   UNL     1      23.586  46.127  49.160  1.00  0.00     0.089 A 
HETATM   10  H   UNL     1      22.816  48.479  47.832  1.00  0.00     0.162 HD
ENDROOT
BRANCH   1  11
HETATM   11  C   UNL     1      24.048  44.073  50.660  1.00  0.00     0.276 C 
HETATM   12  N   UNL     1      25.090  44.806  51.195  1.00  0.00    -0.322 N 
HETATM   13  H   UNL     1      25.066  45.790  50.939  1.00  0.00     0.169 HD
HETATM   14  O   UNL     1      23.811  42.887  50.852  1.00  0.00    -0.266 OA
BRANCH  12  15
HETATM   15  C   UNL     1      26.182  44.341  51.947  1.00  0.00     0.035 A 
HETATM   16  C   UNL     1      26.133  44.105  53.321  1.00  0.00     0.030 A 
HETATM   17  C   UNL     1      27.242  43.580  53.993  1.00  0.00     0.012 A 
HETATM   18  C   UNL     1      28.425  43.284  53.303  1.00  0.00    -0.030 A 
HETATM   19  C   UNL     1      28.481  43.552  51.930  1.00  0.00     0.012 A 
HETATM   20  C   UNL     1      27.368  44.068  51.258  1.00  0.00     0.030 A 
BRANCH  18  21
HETATM   21  C   UNL     1      29.610  42.706  54.045  1.00  0.00     0.147 C 
HETATM   22  C   UNL     1      30.120  43.639  55.133  1.00  0.00     0.044 C 
BRANCH  21  23
HETATM   23  O   UNL     1      30.677  42.427  53.138  1.00  0.00    -0.391 OA
HETATM   24  H   UNL     1      31.497  42.420  53.662  1.00  0.00     0.210 HD
ENDBRANCH  21  23
ENDBRANCH  18  21
ENDBRANCH  12  15
ENDBRANCH   1  11
BRANCH   8  25
HETATM   25  C   UNL     1      20.106  45.168  46.733  1.00  0.00     0.409 C 
HETATM   26  F   UNL     1      19.753  43.865  46.672  1.00  0.00    -0.169 F 
HETATM   27  F   UNL     1      19.148  45.858  46.058  1.00  0.00    -0.169 F 
HETATM   28  F   UNL     1      21.250  45.320  46.036  1.00  0.00    -0.169 F 
ENDBRANCH   8  25
BRANCH   6  29
HETATM   29  C   UNL     1      20.446  49.507  48.193  1.00  0.00     0.075 A 
HETATM   30  O   UNL     1      20.272  49.635  49.540  1.00  0.00    -0.325 OA
HETATM   31  C   UNL     1      20.028  50.949  49.784  1.00  0.00     0.142 A 
HETATM   32  C   UNL     1      20.049  51.671  48.612  1.00  0.00     0.027 A 
HETATM   33  C   UNL     1      20.320  50.740  47.582  1.00  0.00     0.037 A 
ENDBRANCH   6  29
TORSDOF 6
ENDMDL
MODEL 9
REMARK VINA RESULT:      -7.9      2.920      9.737
REMARK  6 active torsions:
REMARK  status: ('A' for Active; 'I' for Inactive)
REMARK    1  A    between atoms: C_2  and  O_3 
REMARK    2  A    between atoms: C_2  and  C_4 
REMARK    3  A    between atoms: C_7  and  N_8 
REMARK       I    between atoms: N_8  and  C_9 
REMARK    4  A    between atoms: C_9  and  C_10 
REMARK    5  A    between atoms: C_15  and  C_16 
REMARK    6  A    between atoms: C_22  and  C_23 
ROOT
HETATM    1  C   UNL     1      26.458  44.482  51.006  1.00  0.00     0.148 A 
HETATM    2  N   UNL     1      27.416  43.587  50.661  1.00  0.00    -0.165 NA
HETATM    3  N   UNL     1      27.863  43.145  51.851  1.00  0.00    -0.240 N 
HETATM    4  C   UNL     1      27.310  43.779  52.927  1.00  0.00     0.123 A 
HETATM    5  N   UNL     1      27.768  43.558  54.174  1.00  0.00    -0.364 N 
HETATM    6  C   UNL     1      29.078  42.946  54.437  1.00  0.00     0.143 C 
HETATM    7  C   UNL     1      29.871  42.709  53.130  1.00  0.00     0.068 C 
HETATM    8  C   UNL     1      28.980  42.231  51.975  1.00  0.00     0.221 C 
HETATM    9  C   UNL     1      26.330  44.588  52.421  1.00  0.00     0.089 A 
HETATM   10  H   UNL     1      27.349  44.027  54.977  1.00  0.00     0.162 HD
ENDROOT
BRANCH   1  11
HETATM   11  C   UNL     1      25.730  45.282  50.004  1.00  0.00     0.276 C 
HETATM   12  N   UNL     1      24.400  44.918  49.923  1.00  0.00    -0.322 N 
HETATM   13  H   UNL     1      24.127  44.224  50.615  1.00  0.00     0.169 HD
HETATM   14  O   UNL     1      26.302  46.130  49.330  1.00  0.00    -0.266 OA
BRANCH  12  15
HETATM   15  C   UNL     1      23.448  45.316  48.971  1.00  0.00     0.035 A 
HETATM   16  C   UNL     1      23.062  46.642  48.768  1.00  0.00     0.030 A 
HETATM   17  C   UNL     1      22.154  46.972  47.755  1.00  0.00     0.012 A 
HETATM   18  C   UNL     1      21.610  45.981  46.928  1.00  0.00    -0.030 A 
HETATM   19  C   UNL     1      21.975  44.648  47.156  1.00  0.00     0.012 A 
HETATM   20  C   UNL     1      22.891  44.321  48.162  1.00  0.00     0.030 A 
BRANCH  18  21
HETATM   21  C   UNL     1      20.639  46.358  45.831  1.00  0.00     0.147 C 
HETATM   22  C   UNL     1      19.415  45.454  45.810  1.00  0.00     0.044 C 
BRANCH  21  23
HETATM   23  O   UNL     1      21.279  46.300  44.557  1.00  0.00    -0.391 OA
HETATM   24  H   UNL     1      22.231  46.422  44.716  1.00  0.00     0.210 HD
ENDBRANCH  21  23
ENDBRANCH  18  21
ENDBRANCH  12  15
ENDBRANCH   1  11
BRANCH   8  25
HETATM   25  C   UNL     1      28.482  40.816  52.162  1.00  0.00     0.409 C 
HETATM   26  F   UNL     1      28.854  40.295  53.352  1.00  0.00    -0.169 F 
HETATM   27  F   UNL     1      27.122  40.808  52.147  1.00  0.00    -0.169 F 
HETATM   28  F   UNL     1      28.882  39.966  51.195  1.00  0.00    -0.169 F 
ENDBRANCH   8  25
BRANCH   6  29
HETATM   29  C   UNL     1      29.916  43.771  55.370  1.00  0.00     0.075 A 
HETATM   30  O   UNL     1      29.524  45.061  55.574  1.00  0.00    -0.325 OA
HETATM   31  C   UNL     1      30.409  45.608  56.449  1.00  0.00     0.142 A 
HETATM   32  C   UNL     1      31.361  44.685  56.814  1.00  0.00     0.027 A 
HETATM   33  C   UNL     1      31.044  43.495  56.118  1.00  0.00     0.037 A 
ENDBRANCH   6  29
TORSDOF 6
ENDMDL
MODEL 10
REMARK VINA RESULT:      -7.9     13.566     14.414
REMARK  6 active torsions:
REMARK  status: ('A' for Active; 'I' for Inactive)
REMARK    1  A    between atoms: C_2  and  O_3 
REMARK    2  A    between atoms: C_2  and  C_4 
REMARK    3  A    between atoms: C_7  and  N_8 
REMARK       I    between atoms: N_8  and  C_9 
REMARK    4  A    between atoms: C_9  and  C_10 
REMARK    5  A    between atoms: C_15  and  C_16 
REMARK    6  A    between atoms: C_22  and  C_23 
ROOT
HETATM    1  C   UNL     1      32.016  51.420  42.302  1.00  0.00     0.148 A 
HETATM    2  N   UNL     1      31.846  52.127  41.158  1.00  0.00    -0.165 NA
HETATM    3  N   UNL     1      30.749  51.568  40.615  1.00  0.00    -0.240 N 
HETATM    4  C   UNL     1      30.273  50.488  41.302  1.00  0.00     0.123 A 
HETATM    5  N   UNL     1      29.279  49.730  40.801  1.00  0.00    -0.364 N 
HETATM    6  C   UNL     1      28.899  49.763  39.382  1.00  0.00     0.143 C 
HETATM    7  C   UNL     1      29.844  50.670  38.558  1.00  0.00     0.068 C 
HETATM    8  C   UNL     1      30.244  51.946  39.310  1.00  0.00     0.221 C 
HETATM    9  C   UNL     1      31.015  50.418  42.449  1.00  0.00     0.089 A 
HETATM   10  H   UNL     1      28.920  48.928  41.319  1.00  0.00     0.162 HD
ENDROOT
BRANCH   1  11
HETATM   11  C   UNL     1      33.161  51.645  43.204  1.00  0.00     0.276 C 
HETATM   12  N   UNL     1      34.357  51.699  42.515  1.00  0.00    -0.322 N 
HETATM   13  H   UNL     1      34.244  51.657  41.505  1.00  0.00     0.169 HD
HETATM   14  O   UNL     1      33.008  51.730  44.417  1.00  0.00    -0.266 OA
BRANCH  12  15
HETATM   15  C   UNL     1      35.660  51.712  43.037  1.00  0.00     0.035 A 
HETATM   16  C   UNL     1      36.095  52.610  44.014  1.00  0.00     0.030 A 
HETATM   17  C   UNL     1      37.391  52.522  44.534  1.00  0.00     0.012 A 
HETATM   18  C   UNL     1      38.280  51.537  44.085  1.00  0.00    -0.030 A 
HETATM   19  C   UNL     1      37.850  50.659  43.082  1.00  0.00     0.012 A 
HETATM   20  C   UNL     1      36.551  50.742  42.570  1.00  0.00     0.030 A 
BRANCH  18  21
HETATM   21  C   UNL     1      39.673  51.451  44.668  1.00  0.00     0.147 C 
HETATM   22  C   UNL     1      40.298  50.079  44.466  1.00  0.00     0.044 C 
BRANCH  21  23
HETATM   23  O   UNL     1      39.647  51.747  46.064  1.00  0.00    -0.391 OA
HETATM   24  H   UNL     1      38.864  52.302  46.219  1.00  0.00     0.210 HD
ENDBRANCH  21  23
ENDBRANCH  18  21
ENDBRANCH  12  15
ENDBRANCH   1  11
BRANCH   8  25
HETATM   25  C   UNL     1      29.104  52.928  39.454  1.00  0.00     0.409 C 
HETATM   26  F   UNL     1      28.235  52.565  40.422  1.00  0.00    -0.169 F 
HETATM   27  F   UNL     1      29.595  54.144  39.814  1.00  0.00    -0.169 F 
HETATM   28  F   UNL     1      28.403  53.118  38.318  1.00  0.00    -0.169 F 
ENDBRANCH   8  25
BRANCH   6  29
HETATM   29  C   UNL     1      28.881  48.395  38.765  1.00  0.00     0.075 A 
HETATM   30  O   UNL     1      27.701  47.978  38.221  1.00  0.00    -0.325 OA
HETATM   31  C   UNL     1      27.916  46.734  37.718  1.00  0.00     0.142 A 
HETATM   32  C   UNL     1      29.220  46.347  37.925  1.00  0.00     0.027 A 
HETATM   33  C   UNL     1      29.846  47.420  38.602  1.00  0.00     0.037 A 
ENDBRANCH   6  29
TORSDOF 6
ENDMDL
