MODEL 1
REMARK VINA RESULT:      -7.8      0.000      0.000
REMARK  6 active torsions:
REMARK  status: ('A' for Active; 'I' for Inactive)
REMARK    1  A    between atoms: C_2  and  O_3 
REMARK    2  A    between atoms: O_3  and  C_4 
REMARK    3  A    between atoms: C_7  and  N_8 
REMARK    4  A    between atoms: C_9  and  C_11 
REMARK    5  A    between atoms: C_9  and  O_10 
REMARK       I    between atoms: C_11  and  N_12 
REMARK    6  A    between atoms: N_12  and  C_13 
ROOT
HETATM    1  N   UNL     1      27.143  42.698  50.757  1.00  0.00    -0.254 N 
HETATM    2  C   UNL     1      26.368  43.867  50.307  1.00  0.00     0.256 C 
HETATM    3  C   UNL     1      25.315  43.571  49.257  1.00  0.00     0.035 A 
HETATM    4  C   UNL     1      25.290  42.319  48.660  1.00  0.00     0.048 A 
HETATM    5  N   UNL     1      26.201  41.360  49.067  1.00  0.00    -0.308 N 
HETATM    6  C   UNL     1      27.082  41.483  50.096  1.00  0.00     0.330 C 
HETATM    7  O   UNL     1      27.787  40.506  50.349  1.00  0.00    -0.246 OA
HETATM    8  C   UNL     1      24.378  44.533  48.834  1.00  0.00     0.034 A 
HETATM    9  C   UNL     1      23.435  44.215  47.855  1.00  0.00     0.011 A 
HETATM   10 BR   UNL     1      22.159  45.507  47.328  1.00  0.00    -0.051 Br
HETATM   11  C   UNL     1      23.424  42.955  47.266  1.00  0.00     0.021 A 
HETATM   12  C   UNL     1      24.362  42.004  47.665  1.00  0.00     0.031 A 
HETATM   13  H   UNL     1      26.199  40.444  48.637  1.00  0.00     0.170 HD
ENDROOT
BRANCH   1  14
HETATM   14  C   UNL     1      27.890  42.790  51.986  1.00  0.00     0.043 A 
HETATM   15  C   UNL     1      27.372  42.347  53.210  1.00  0.00     0.032 A 
HETATM   16  C   UNL     1      28.154  42.376  54.370  1.00  0.00     0.039 A 
HETATM   17  C   UNL     1      29.478  42.810  54.327  1.00  0.00     0.068 A 
HETATM   18  C   UNL     1      29.999  43.272  53.122  1.00  0.00     0.039 A 
HETATM   19  C   UNL     1      29.207  43.270  51.967  1.00  0.00     0.032 A 
BRANCH  17  20
HETATM   20  O   UNL     1      30.148  42.750  55.516  1.00  0.00    -0.352 OA
BRANCH  20  21
HETATM   21  C   UNL     1      30.953  43.885  55.841  1.00  0.00     0.171 C 
HETATM   22  C   UNL     1      31.787  43.533  57.060  1.00  0.00     0.034 C 
ENDBRANCH  20  21
ENDBRANCH  17  20
ENDBRANCH   1  14
BRANCH   2  23
HETATM   23  C   UNL     1      25.646  44.529  51.560  1.00  0.00     0.279 C 
HETATM   24  N   UNL     1      26.215  45.745  51.925  1.00  0.00    -0.352 N 
HETATM   25  H   UNL     1      26.990  46.076  51.357  1.00  0.00     0.163 HD
HETATM   26  O   UNL     1      24.699  44.017  52.153  1.00  0.00    -0.268 OA
BRANCH  24  27
HETATM   27  C   UNL     1      25.827  46.470  53.088  1.00  0.00     0.084 A 
HETATM   28  C   UNL     1      26.239  46.021  54.464  1.00  0.00     0.027 A 
HETATM   29  C   UNL     1      26.854  47.249  53.865  1.00  0.00     0.027 A 
ENDBRANCH  24  27
ENDBRANCH   2  23
BRANCH   2  30
HETATM   30  O   UNL     1      27.289  44.753  49.666  1.00  0.00    -0.359 OA
HETATM   31  H   UNL     1      28.050  44.756  50.272  1.00  0.00     0.213 HD
ENDBRANCH   2  30
TORSDOF 6
ENDMDL
MODEL 2
REMARK VINA RESULT:      -7.8      1.872      4.211
REMARK  6 active torsions:
REMARK  status: ('A' for Active; 'I' for Inactive)
REMARK    1  A    between atoms: C_2  and  O_3 
REMARK    2  A    between atoms: O_3  and  C_4 
REMARK    3  A    between atoms: C_7  and  N_8 
REMARK    4  A    between atoms: C_9  and  C_11 
REMARK    5  A    between atoms: C_9  and  O_10 
REMARK       I    between atoms: C_11  and  N_12 
REMARK    6  A    between atoms: N_12  and  C_13 
ROOT
HETATM    1  N   UNL     1      25.440  45.473  51.722  1.00  0.00    -0.254 N 
HETATM    2  C   UNL     1      24.578  44.820  50.722  1.00  0.00     0.256 C 
HETATM    3  C   UNL     1      23.907  45.762  49.742  1.00  0.00     0.035 A 
HETATM    4  C   UNL     1      23.975  47.130  49.966  1.00  0.00     0.048 A 
HETATM    5  N   UNL     1      24.687  47.599  51.057  1.00  0.00    -0.308 N 
HETATM    6  C   UNL     1      25.438  46.845  51.903  1.00  0.00     0.330 C 
HETATM    7  O   UNL     1      26.045  47.440  52.794  1.00  0.00    -0.246 OA
HETATM    8  C   UNL     1      23.183  45.303  48.626  1.00  0.00     0.034 A 
HETATM    9  C   UNL     1      22.574  46.211  47.758  1.00  0.00     0.011 A 
HETATM   10 BR   UNL     1      21.639  45.578  46.242  1.00  0.00    -0.051 Br
HETATM   11  C   UNL     1      22.650  47.579  47.999  1.00  0.00     0.021 A 
HETATM   12  C   UNL     1      23.348  48.041  49.113  1.00  0.00     0.031 A 
HETATM   13  H   UNL     1      24.741  48.594  51.237  1.00  0.00     0.170 HD
ENDROOT
BRANCH   1  14
HETATM   14  C   UNL     1      26.396  44.672  52.445  1.00  0.00     0.043 A 
HETATM   15  C   UNL     1      27.708  44.485  51.992  1.00  0.00     0.032 A 
HETATM   16  C   UNL     1      28.634  43.768  52.760  1.00  0.00     0.039 A 
HETATM   17  C   UNL     1      28.283  43.258  54.008  1.00  0.00     0.068 A 
HETATM   18  C   UNL     1      26.977  43.419  54.462  1.00  0.00     0.039 A 
HETATM   19  C   UNL     1      26.043  44.111  53.681  1.00  0.00     0.032 A 
BRANCH  17  20
HETATM   20  O   UNL     1      29.287  42.616  54.677  1.00  0.00    -0.352 OA
BRANCH  20  21
HETATM   21  C   UNL     1      30.544  43.293  54.723  1.00  0.00     0.171 C 
HETATM   22  C   UNL     1      31.020  43.299  56.164  1.00  0.00     0.034 C 
ENDBRANCH  20  21
ENDBRANCH  17  20
ENDBRANCH   1  14
BRANCH   2  23
HETATM   23  C   UNL     1      25.441  43.773  49.891  1.00  0.00     0.279 C 
HETATM   24  N   UNL     1      25.140  42.454  50.214  1.00  0.00    -0.352 N 
HETATM   25  H   UNL     1      24.411  42.308  50.908  1.00  0.00     0.163 HD
HETATM   26  O   UNL     1      26.293  44.093  49.065  1.00  0.00    -0.268 OA
BRANCH  24  27
HETATM   27  C   UNL     1      25.862  41.340  49.699  1.00  0.00     0.084 A 
HETATM   28  C   UNL     1      27.281  41.066  50.116  1.00  0.00     0.027 A 
HETATM   29  C   UNL     1      26.179  40.171  50.593  1.00  0.00     0.027 A 
ENDBRANCH  24  27
ENDBRANCH   2  23
BRANCH   2  30
HETATM   30  O   UNL     1      23.504  44.207  51.438  1.00  0.00    -0.359 OA
HETATM   31  H   UNL     1      22.731  44.734  51.169  1.00  0.00     0.213 HD
ENDBRANCH   2  30
TORSDOF 6
ENDMDL
MODEL 3
REMARK VINA RESULT:      -7.7     11.872     13.851
REMARK  6 active torsions:
REMARK  status: ('A' for Active; 'I' for Inactive)
REMARK    1  A    between atoms: C_2  and  O_3 
REMARK    2  A    between atoms: O_3  and  C_4 
REMARK    3  A    between atoms: C_7  and  N_8 
REMARK    4  A    between atoms: C_9  and  C_11 
REMARK    5  A    between atoms: C_9  and  O_10 
REMARK       I    between atoms: C_11  and  N_12 
REMARK    6  A    between atoms: N_12  and  C_13 
ROOT
HETATM    1  N   UNL     1      28.374  51.082  39.546  1.00  0.00    -0.254 N 
HETATM    2  C   UNL     1      27.821  50.110  40.505  1.00  0.00     0.256 C 
HETATM    3  C   UNL     1      26.594  49.362  40.023  1.00  0.00     0.035 A 
HETATM    4  C   UNL     1      25.972  49.768  38.851  1.00  0.00     0.048 A 
HETATM    5  N   UNL     1      26.512  50.821  38.133  1.00  0.00    -0.308 N 
HETATM    6  C   UNL     1      27.683  51.454  38.406  1.00  0.00     0.330 C 
HETATM    7  O   UNL     1      28.034  52.342  37.627  1.00  0.00    -0.246 OA
HETATM    8  C   UNL     1      26.033  48.287  40.739  1.00  0.00     0.034 A 
HETATM    9  C   UNL     1      24.895  47.636  40.259  1.00  0.00     0.011 A 
HETATM   10 BR   UNL     1      24.180  46.170  41.213  1.00  0.00    -0.051 Br
HETATM   11  C   UNL     1      24.284  48.058  39.083  1.00  0.00     0.021 A 
HETATM   12  C   UNL     1      24.820  49.135  38.379  1.00  0.00     0.031 A 
HETATM   13  H   UNL     1      26.067  51.132  37.278  1.00  0.00     0.170 HD
ENDROOT
BRANCH   1  14
HETATM   14  C   UNL     1      29.718  51.563  39.741  1.00  0.00     0.043 A 
HETATM   15  C   UNL     1      30.029  52.545  40.690  1.00  0.00     0.032 A 
HETATM   16  C   UNL     1      31.357  52.932  40.910  1.00  0.00     0.039 A 
HETATM   17  C   UNL     1      32.401  52.321  40.218  1.00  0.00     0.068 A 
HETATM   18  C   UNL     1      32.105  51.359  39.258  1.00  0.00     0.039 A 
HETATM   19  C   UNL     1      30.775  50.993  39.017  1.00  0.00     0.032 A 
BRANCH  17  20
HETATM   20  O   UNL     1      33.653  52.756  40.553  1.00  0.00    -0.352 OA
BRANCH  20  21
HETATM   21  C   UNL     1      34.716  51.822  40.354  1.00  0.00     0.171 C 
HETATM   22  C   UNL     1      34.989  51.134  41.680  1.00  0.00     0.034 C 
ENDBRANCH  20  21
ENDBRANCH  17  20
ENDBRANCH   1  14
BRANCH   2  23
HETATM   23  C   UNL     1      28.941  49.042  40.871  1.00  0.00     0.279 C 
HETATM   24  N   UNL     1      29.616  49.354  42.046  1.00  0.00    -0.352 N 
HETATM   25  H   UNL     1      29.316  50.192  42.536  1.00  0.00     0.163 HD
HETATM   26  O   UNL     1      29.195  48.054  40.183  1.00  0.00    -0.268 OA
BRANCH  24  27
HETATM   27  C   UNL     1      30.743  48.622  42.517  1.00  0.00     0.084 A 
HETATM   28  C   UNL     1      32.009  48.527  41.710  1.00  0.00     0.027 A 
HETATM   29  C   UNL     1      31.983  49.351  42.962  1.00  0.00     0.027 A 
ENDBRANCH  24  27
ENDBRANCH   2  23
BRANCH   2  30
HETATM   30  O   UNL     1      27.376  50.856  41.640  1.00  0.00    -0.359 OA
HETATM   31  H   UNL     1      26.689  50.283  42.025  1.00  0.00     0.213 HD
ENDBRANCH   2  30
TORSDOF 6
ENDMDL
MODEL 4
REMARK VINA RESULT:      -7.6     11.918     14.256
REMARK  6 active torsions:
REMARK  status: ('A' for Active; 'I' for Inactive)
REMARK    1  A    between atoms: C_2  and  O_3 
REMARK    2  A    between atoms: O_3  and  C_4 
REMARK    3  A    between atoms: C_7  and  N_8 
REMARK    4  A    between atoms: C_9  and  C_11 
REMARK    5  A    between atoms: C_9  and  O_10 
REMARK       I    between atoms: C_11  and  N_12 
REMARK    6  A    between atoms: N_12  and  C_13 
ROOT
HETATM    1  N   UNL     1      29.023  48.084  40.269  1.00  0.00    -0.254 N 
HETATM    2  C   UNL     1      29.258  48.960  41.430  1.00  0.00     0.256 C 
HETATM    3  C   UNL     1      30.713  49.297  41.693  1.00  0.00     0.035 A 
HETATM    4  C   UNL     1      31.700  48.624  40.987  1.00  0.00     0.048 A 
HETATM    5  N   UNL     1      31.329  47.691  40.034  1.00  0.00    -0.308 N 
HETATM    6  C   UNL     1      30.059  47.428  39.627  1.00  0.00     0.330 C 
HETATM    7  O   UNL     1      29.919  46.597  38.729  1.00  0.00    -0.246 OA
HETATM    8  C   UNL     1      31.108  50.245  42.655  1.00  0.00     0.034 A 
HETATM    9  C   UNL     1      32.461  50.513  42.868  1.00  0.00     0.011 A 
HETATM   10 BR   UNL     1      32.972  51.817  44.137  1.00  0.00    -0.051 Br
HETATM   11  C   UNL     1      33.438  49.827  42.153  1.00  0.00     0.021 A 
HETATM   12  C   UNL     1      33.056  48.872  41.212  1.00  0.00     0.031 A 
HETATM   13  H   UNL     1      32.038  47.189  39.514  1.00  0.00     0.170 HD
ENDROOT
BRANCH   1  14
HETATM   14  C   UNL     1      27.694  48.006  39.715  1.00  0.00     0.043 A 
HETATM   15  C   UNL     1      26.640  47.376  40.389  1.00  0.00     0.032 A 
HETATM   16  C   UNL     1      25.344  47.389  39.861  1.00  0.00     0.039 A 
HETATM   17  C   UNL     1      25.065  48.062  38.673  1.00  0.00     0.068 A 
HETATM   18  C   UNL     1      26.106  48.676  37.983  1.00  0.00     0.039 A 
HETATM   19  C   UNL     1      27.408  48.638  38.497  1.00  0.00     0.032 A 
BRANCH  17  20
HETATM   20  O   UNL     1      23.755  48.038  38.285  1.00  0.00    -0.352 OA
BRANCH  20  21
HETATM   21  C   UNL     1      23.213  49.277  37.825  1.00  0.00     0.171 C 
HETATM   22  C   UNL     1      22.813  50.093  39.041  1.00  0.00     0.034 C 
ENDBRANCH  20  21
ENDBRANCH  17  20
ENDBRANCH   1  14
BRANCH   2  23
HETATM   23  C   UNL     1      28.463  50.322  41.227  1.00  0.00     0.279 C 
HETATM   24  N   UNL     1      28.995  51.107  40.209  1.00  0.00    -0.352 N 
HETATM   25  H   UNL     1      29.794  50.728  39.710  1.00  0.00     0.163 HD
HETATM   26  O   UNL     1      27.493  50.655  41.905  1.00  0.00    -0.268 OA
BRANCH  24  27
HETATM   27  C   UNL     1      28.537  52.424  39.919  1.00  0.00     0.084 A 
HETATM   28  C   UNL     1      29.488  53.587  39.853  1.00  0.00     0.027 A 
HETATM   29  C   UNL     1      28.867  53.061  38.595  1.00  0.00     0.027 A 
ENDBRANCH  24  27
ENDBRANCH   2  23
BRANCH   2  30
HETATM   30  O   UNL     1      28.833  48.237  42.587  1.00  0.00    -0.359 OA
HETATM   31  H   UNL     1      28.169  48.827  42.984  1.00  0.00     0.213 HD
ENDBRANCH   2  30
TORSDOF 6
ENDMDL
MODEL 5
REMARK VINA RESULT:      -7.5     12.593     13.605
REMARK  6 active torsions:
REMARK  status: ('A' for Active; 'I' for Inactive)
REMARK    1  A    between atoms: C_2  and  O_3 
REMARK    2  A    between atoms: O_3  and  C_4 
REMARK    3  A    between atoms: C_7  and  N_8 
REMARK    4  A    between atoms: C_9  and  C_11 
REMARK    5  A    between atoms: C_9  and  O_10 
REMARK       I    between atoms: C_11  and  N_12 
REMARK    6  A    between atoms: N_12  and  C_13 
ROOT
HETATM    1  N   UNL     1      31.919  48.937  40.558  1.00  0.00    -0.254 N 
HETATM    2  C   UNL     1      30.838  49.446  39.695  1.00  0.00     0.256 C 
HETATM    3  C   UNL     1      29.839  48.402  39.236  1.00  0.00     0.035 A 
HETATM    4  C   UNL     1      30.109  47.061  39.470  1.00  0.00     0.048 A 
HETATM    5  N   UNL     1      31.263  46.715  40.152  1.00  0.00    -0.308 N 
HETATM    6  C   UNL     1      32.140  47.582  40.726  1.00  0.00     0.330 C 
HETATM    7  O   UNL     1      33.091  47.093  41.337  1.00  0.00    -0.246 OA
HETATM    8  C   UNL     1      28.659  48.735  38.545  1.00  0.00     0.034 A 
HETATM    9  C   UNL     1      27.776  47.736  38.133  1.00  0.00     0.011 A 
HETATM   10 BR   UNL     1      26.177  48.206  37.242  1.00  0.00    -0.051 Br
HETATM   11  C   UNL     1      28.063  46.396  38.375  1.00  0.00     0.021 A 
HETATM   12  C   UNL     1      29.240  46.056  39.040  1.00  0.00     0.031 A 
HETATM   13  H   UNL     1      31.476  45.741  40.326  1.00  0.00     0.170 HD
ENDROOT
BRANCH   1  14
HETATM   14  C   UNL     1      32.686  49.876  41.337  1.00  0.00     0.043 A 
HETATM   15  C   UNL     1      32.357  50.191  42.662  1.00  0.00     0.032 A 
HETATM   16  C   UNL     1      33.171  51.044  43.417  1.00  0.00     0.039 A 
HETATM   17  C   UNL     1      34.346  51.568  42.881  1.00  0.00     0.068 A 
HETATM   18  C   UNL     1      34.674  51.280  41.560  1.00  0.00     0.039 A 
HETATM   19  C   UNL     1      33.845  50.449  40.795  1.00  0.00     0.032 A 
BRANCH  17  20
HETATM   20  O   UNL     1      35.073  52.351  43.732  1.00  0.00    -0.352 OA
BRANCH  20  21
HETATM   21  C   UNL     1      36.440  52.564  43.375  1.00  0.00     0.171 C 
HETATM   22  C   UNL     1      37.058  53.482  44.415  1.00  0.00     0.034 C 
ENDBRANCH  20  21
ENDBRANCH  17  20
ENDBRANCH   1  14
BRANCH   2  23
HETATM   23  C   UNL     1      30.043  50.585  40.471  1.00  0.00     0.279 C 
HETATM   24  N   UNL     1      30.390  51.864  40.049  1.00  0.00    -0.352 N 
HETATM   25  H   UNL     1      31.076  51.928  39.302  1.00  0.00     0.163 HD
HETATM   26  O   UNL     1      29.221  50.362  41.358  1.00  0.00    -0.268 OA
BRANCH  24  27
HETATM   27  C   UNL     1      29.909  53.050  40.674  1.00  0.00     0.084 A 
HETATM   28  C   UNL     1      30.739  54.304  40.715  1.00  0.00     0.027 A 
HETATM   29  C   UNL     1      29.527  54.240  39.836  1.00  0.00     0.027 A 
ENDBRANCH  24  27
ENDBRANCH   2  23
BRANCH   2  30
HETATM   30  O   UNL     1      31.453  49.920  38.496  1.00  0.00    -0.359 OA
HETATM   31  H   UNL     1      30.834  50.604  38.185  1.00  0.00     0.213 HD
ENDBRANCH   2  30
TORSDOF 6
ENDMDL
MODEL 6
REMARK VINA RESULT:      -7.4      1.704      3.974
REMARK  6 active torsions:
REMARK  status: ('A' for Active; 'I' for Inactive)
REMARK    1  A    between atoms: C_2  and  O_3 
REMARK    2  A    between atoms: O_3  and  C_4 
REMARK    3  A    between atoms: C_7  and  N_8 
REMARK    4  A    between atoms: C_9  and  C_11 
REMARK    5  A    between atoms: C_9  and  O_10 
REMARK       I    between atoms: C_11  and  N_12 
REMARK    6  A    between atoms: N_12  and  C_13 
ROOT
HETATM    1  N   UNL     1      26.069  43.953  51.225  1.00  0.00    -0.254 N 
HETATM    2  C   UNL     1      25.240  42.852  50.705  1.00  0.00     0.256 C 
HETATM    3  C   UNL     1      24.428  43.190  49.470  1.00  0.00     0.035 A 
HETATM    4  C   UNL     1      24.356  44.510  49.049  1.00  0.00     0.048 A 
HETATM    5  N   UNL     1      25.061  45.478  49.745  1.00  0.00    -0.308 N 
HETATM    6  C   UNL     1      25.926  45.252  50.769  1.00  0.00     0.330 C 
HETATM    7  O   UNL     1      26.503  46.233  51.240  1.00  0.00    -0.246 OA
HETATM    8  C   UNL     1      23.709  42.218  48.749  1.00  0.00     0.034 A 
HETATM    9  C   UNL     1      22.967  42.581  47.624  1.00  0.00     0.011 A 
HETATM   10 BR   UNL     1      22.040  41.256  46.644  1.00  0.00    -0.051 Br
HETATM   11  C   UNL     1      22.905  43.909  47.216  1.00  0.00     0.021 A 
HETATM   12  C   UNL     1      23.597  44.881  47.937  1.00  0.00     0.031 A 
HETATM   13  H   UNL     1      25.014  46.446  49.453  1.00  0.00     0.170 HD
ENDROOT
BRANCH   1  14
HETATM   14  C   UNL     1      27.137  43.646  52.143  1.00  0.00     0.043 A 
HETATM   15  C   UNL     1      28.467  43.513  51.723  1.00  0.00     0.032 A 
HETATM   16  C   UNL     1      29.492  43.295  52.652  1.00  0.00     0.039 A 
HETATM   17  C   UNL     1      29.217  43.243  54.018  1.00  0.00     0.068 A 
HETATM   18  C   UNL     1      27.897  43.353  54.447  1.00  0.00     0.039 A 
HETATM   19  C   UNL     1      26.869  43.542  53.515  1.00  0.00     0.032 A 
BRANCH  17  20
HETATM   20  O   UNL     1      30.306  43.068  54.823  1.00  0.00    -0.352 OA
BRANCH  20  21
HETATM   21  C   UNL     1      30.560  44.107  55.771  1.00  0.00     0.171 C 
HETATM   22  C   UNL     1      31.424  43.530  56.877  1.00  0.00     0.034 C 
ENDBRANCH  20  21
ENDBRANCH  17  20
ENDBRANCH   1  14
BRANCH   2  23
HETATM   23  C   UNL     1      26.174  41.612  50.361  1.00  0.00     0.279 C 
HETATM   24  N   UNL     1      26.939  41.818  49.218  1.00  0.00    -0.352 N 
HETATM   25  H   UNL     1      26.835  42.717  48.754  1.00  0.00     0.163 HD
HETATM   26  O   UNL     1      26.207  40.576  51.023  1.00  0.00    -0.268 OA
BRANCH  24  27
HETATM   27  C   UNL     1      27.759  40.810  48.635  1.00  0.00     0.084 A 
HETATM   28  C   UNL     1      27.187  39.778  47.701  1.00  0.00     0.027 A 
HETATM   29  C   UNL     1      28.078  40.857  47.164  1.00  0.00     0.027 A 
ENDBRANCH  24  27
ENDBRANCH   2  23
BRANCH   2  30
HETATM   30  O   UNL     1      24.271  42.553  51.713  1.00  0.00    -0.359 OA
HETATM   31  H   UNL     1      24.106  43.419  52.125  1.00  0.00     0.213 HD
ENDBRANCH   2  30
TORSDOF 6
ENDMDL
MODEL 7
REMARK VINA RESULT:      -7.3     12.980     15.230
REMARK  6 active torsions:
REMARK  status: ('A' for Active; 'I' for Inactive)
REMARK    1  A    between atoms: C_2  and  O_3 
REMARK    2  A    between atoms: O_3  and  C_4 
REMARK    3  A    between atoms: C_7  and  N_8 
REMARK    4  A    between atoms: C_9  and  C_11 
REMARK    5  A    between atoms: C_9  and  O_10 
REMARK       I    between atoms: C_11  and  N_12 
REMARK    6  A    between atoms: N_12  and  C_13 
ROOT
HETATM    1  N   UNL     1      32.164  49.119  40.808  1.00  0.00    -0.254 N 
HETATM    2  C   UNL     1      32.292  50.547  40.469  1.00  0.00     0.256 C 
HETATM    3  C   UNL     1      33.717  51.051  40.345  1.00  0.00     0.035 A 
HETATM    4  C   UNL     1      34.760  50.230  40.747  1.00  0.00     0.048 A 
HETATM    5  N   UNL     1      34.475  48.958  41.212  1.00  0.00    -0.308 N 
HETATM    6  C   UNL     1      33.250  48.368  41.222  1.00  0.00     0.330 C 
HETATM    7  O   UNL     1      33.191  47.207  41.628  1.00  0.00    -0.246 OA
HETATM    8  C   UNL     1      34.025  52.340  39.871  1.00  0.00     0.034 A 
HETATM    9  C   UNL     1      35.352  52.762  39.786  1.00  0.00     0.011 A 
HETATM   10 BR   UNL     1      35.750  54.482  39.110  1.00  0.00    -0.051 Br
HETATM   11  C   UNL     1      36.387  51.926  40.195  1.00  0.00     0.021 A 
HETATM   12  C   UNL     1      36.089  50.656  40.685  1.00  0.00     0.031 A 
HETATM   13  H   UNL     1      35.226  48.348  41.513  1.00  0.00     0.170 HD
ENDROOT
BRANCH   1  14
HETATM   14  C   UNL     1      30.900  48.463  40.588  1.00  0.00     0.043 A 
HETATM   15  C   UNL     1      29.835  48.571  41.491  1.00  0.00     0.032 A 
HETATM   16  C   UNL     1      28.595  47.987  41.207  1.00  0.00     0.039 A 
HETATM   17  C   UNL     1      28.380  47.320  40.002  1.00  0.00     0.068 A 
HETATM   18  C   UNL     1      29.435  47.187  39.105  1.00  0.00     0.039 A 
HETATM   19  C   UNL     1      30.684  47.746  39.402  1.00  0.00     0.032 A 
BRANCH  17  20
HETATM   20  O   UNL     1      27.116  46.832  39.826  1.00  0.00    -0.352 OA
BRANCH  20  21
HETATM   21  C   UNL     1      26.048  47.712  40.181  1.00  0.00     0.171 C 
HETATM   22  C   UNL     1      25.740  48.585  38.978  1.00  0.00     0.034 C 
ENDBRANCH  20  21
ENDBRANCH  17  20
ENDBRANCH   1  14
BRANCH   2  23
HETATM   23  C   UNL     1      31.547  50.826  39.091  1.00  0.00     0.279 C 
HETATM   24  N   UNL     1      30.320  51.458  39.264  1.00  0.00    -0.352 N 
HETATM   25  H   UNL     1      30.052  51.683  40.219  1.00  0.00     0.163 HD
HETATM   26  O   UNL     1      31.997  50.505  37.993  1.00  0.00    -0.268 OA
BRANCH  24  27
HETATM   27  C   UNL     1      29.410  51.702  38.196  1.00  0.00     0.084 A 
HETATM   28  C   UNL     1      27.921  51.679  38.415  1.00  0.00     0.027 A 
HETATM   29  C   UNL     1      28.618  52.981  38.160  1.00  0.00     0.027 A 
ENDBRANCH  24  27
ENDBRANCH   2  23
BRANCH   2  30
HETATM   30  O   UNL     1      31.734  51.284  41.559  1.00  0.00    -0.359 OA
HETATM   31  H   UNL     1      32.470  51.331  42.193  1.00  0.00     0.213 HD
ENDBRANCH   2  30
TORSDOF 6
ENDMDL
MODEL 8
REMARK VINA RESULT:      -7.3     14.490     16.784
REMARK  6 active torsions:
REMARK  status: ('A' for Active; 'I' for Inactive)
REMARK    1  A    between atoms: C_2  and  O_3 
REMARK    2  A    between atoms: O_3  and  C_4 
REMARK    3  A    between atoms: C_7  and  N_8 
REMARK    4  A    between atoms: C_9  and  C_11 
REMARK    5  A    between atoms: C_9  and  O_10 
REMARK       I    between atoms: C_11  and  N_12 
REMARK    6  A    between atoms: N_12  and  C_13 
ROOT
HETATM    1  N   UNL     1      34.376  52.237  39.889  1.00  0.00    -0.254 N 
HETATM    2  C   UNL     1      35.099  51.105  40.496  1.00  0.00     0.256 C 
HETATM    3  C   UNL     1      36.314  51.488  41.318  1.00  0.00     0.035 A 
HETATM    4  C   UNL     1      36.771  52.798  41.277  1.00  0.00     0.048 A 
HETATM    5  N   UNL     1      36.083  53.728  40.518  1.00  0.00    -0.308 N 
HETATM    6  C   UNL     1      34.908  53.515  39.868  1.00  0.00     0.330 C 
HETATM    7  O   UNL     1      34.411  54.476  39.279  1.00  0.00    -0.246 OA
HETATM    8  C   UNL     1      37.023  50.556  42.098  1.00  0.00     0.034 A 
HETATM    9  C   UNL     1      38.143  50.956  42.829  1.00  0.00     0.011 A 
HETATM   10 BR   UNL     1      39.060  49.699  43.903  1.00  0.00    -0.051 Br
HETATM   11  C   UNL     1      38.589  52.272  42.776  1.00  0.00     0.021 A 
HETATM   12  C   UNL     1      37.904  53.197  41.989  1.00  0.00     0.031 A 
HETATM   13  H   UNL     1      36.407  54.686  40.474  1.00  0.00     0.170 HD
ENDROOT
BRANCH   1  14
HETATM   14  C   UNL     1      33.032  52.029  39.413  1.00  0.00     0.043 A 
HETATM   15  C   UNL     1      31.914  52.536  40.088  1.00  0.00     0.032 A 
HETATM   16  C   UNL     1      30.628  52.385  39.556  1.00  0.00     0.039 A 
HETATM   17  C   UNL     1      30.435  51.762  38.324  1.00  0.00     0.068 A 
HETATM   18  C   UNL     1      31.534  51.236  37.652  1.00  0.00     0.039 A 
HETATM   19  C   UNL     1      32.817  51.361  38.199  1.00  0.00     0.032 A 
BRANCH  17  20
HETATM   20  O   UNL     1      29.139  51.715  37.894  1.00  0.00    -0.352 OA
BRANCH  20  21
HETATM   21  C   UNL     1      28.210  51.071  38.767  1.00  0.00     0.171 C 
HETATM   22  C   UNL     1      28.410  49.572  38.638  1.00  0.00     0.034 C 
ENDBRANCH  20  21
ENDBRANCH  17  20
ENDBRANCH   1  14
BRANCH   2  23
HETATM   23  C   UNL     1      34.103  50.292  41.432  1.00  0.00     0.279 C 
HETATM   24  N   UNL     1      33.660  49.111  40.845  1.00  0.00    -0.352 N 
HETATM   25  H   UNL     1      34.025  48.895  39.921  1.00  0.00     0.163 HD
HETATM   26  O   UNL     1      33.750  50.670  42.547  1.00  0.00    -0.268 OA
BRANCH  24  27
HETATM   27  C   UNL     1      32.669  48.272  41.430  1.00  0.00     0.084 A 
HETATM   28  C   UNL     1      31.214  48.654  41.418  1.00  0.00     0.027 A 
HETATM   29  C   UNL     1      31.697  47.531  40.552  1.00  0.00     0.027 A 
ENDBRANCH  24  27
ENDBRANCH   2  23
BRANCH   2  30
HETATM   30  O   UNL     1      35.615  50.319  39.420  1.00  0.00    -0.359 OA
HETATM   31  H   UNL     1      36.292  50.897  39.029  1.00  0.00     0.213 HD
ENDBRANCH   2  30
TORSDOF 6
ENDMDL
MODEL 9
REMARK VINA RESULT:      -7.2      3.229      7.532
REMARK  6 active torsions:
REMARK  status: ('A' for Active; 'I' for Inactive)
REMARK    1  A    between atoms: C_2  and  O_3 
REMARK    2  A    between atoms: O_3  and  C_4 
REMARK    3  A    between atoms: C_7  and  N_8 
REMARK    4  A    between atoms: C_9  and  C_11 
REMARK    5  A    between atoms: C_9  and  O_10 
REMARK       I    between atoms: C_11  and  N_12 
REMARK    6  A    between atoms: N_12  and  C_13 
ROOT
HETATM    1  N   UNL     1      26.957  44.949  52.530  1.00  0.00    -0.254 N 
HETATM    2  C   UNL     1      28.128  44.150  52.930  1.00  0.00     0.256 C 
HETATM    3  C   UNL     1      28.746  44.541  54.258  1.00  0.00     0.035 A 
HETATM    4  C   UNL     1      28.322  45.704  54.884  1.00  0.00     0.048 A 
HETATM    5  N   UNL     1      27.319  46.457  54.299  1.00  0.00    -0.308 N 
HETATM    6  C   UNL     1      26.607  46.113  53.192  1.00  0.00     0.330 C 
HETATM    7  O   UNL     1      25.714  46.884  52.840  1.00  0.00    -0.246 OA
HETATM    8  C   UNL     1      29.765  43.786  54.870  1.00  0.00     0.034 A 
HETATM    9  C   UNL     1      30.310  44.193  56.088  1.00  0.00     0.011 A 
HETATM   10 BR   UNL     1      31.649  43.145  56.914  1.00  0.00    -0.051 Br
HETATM   11  C   UNL     1      29.874  45.363  56.702  1.00  0.00     0.021 A 
HETATM   12  C   UNL     1      28.880  46.127  56.093  1.00  0.00     0.031 A 
HETATM   13  H   UNL     1      27.002  47.310  54.742  1.00  0.00     0.170 HD
ENDROOT
BRANCH   1  14
HETATM   14  C   UNL     1      26.086  44.440  51.501  1.00  0.00     0.043 A 
HETATM   15  C   UNL     1      26.385  44.569  50.138  1.00  0.00     0.032 A 
HETATM   16  C   UNL     1      25.559  43.991  49.167  1.00  0.00     0.039 A 
HETATM   17  C   UNL     1      24.443  43.242  49.535  1.00  0.00     0.068 A 
HETATM   18  C   UNL     1      24.123  43.122  50.884  1.00  0.00     0.039 A 
HETATM   19  C   UNL     1      24.933  43.725  51.854  1.00  0.00     0.032 A 
BRANCH  17  20
HETATM   20  O   UNL     1      23.743  42.695  48.496  1.00  0.00    -0.352 OA
BRANCH  20  21
HETATM   21  C   UNL     1      23.674  41.268  48.468  1.00  0.00     0.171 C 
HETATM   22  C   UNL     1      24.716  40.769  47.483  1.00  0.00     0.034 C 
ENDBRANCH  20  21
ENDBRANCH  17  20
ENDBRANCH   1  14
BRANCH   2  23
HETATM   23  C   UNL     1      27.713  42.617  53.008  1.00  0.00     0.279 C 
HETATM   24  N   UNL     1      28.004  41.923  51.838  1.00  0.00    -0.352 N 
HETATM   25  H   UNL     1      28.452  42.450  51.093  1.00  0.00     0.163 HD
HETATM   26  O   UNL     1      27.180  42.102  53.989  1.00  0.00    -0.268 OA
BRANCH  24  27
HETATM   27  C   UNL     1      27.616  40.571  51.615  1.00  0.00     0.084 A 
HETATM   28  C   UNL     1      26.408  40.230  50.786  1.00  0.00     0.027 A 
HETATM   29  C   UNL     1      27.780  39.956  50.251  1.00  0.00     0.027 A 
ENDBRANCH  24  27
ENDBRANCH   2  23
BRANCH   2  30
HETATM   30  O   UNL     1      29.150  44.399  51.961  1.00  0.00    -0.359 OA
HETATM   31  H   UNL     1      29.388  43.506  51.658  1.00  0.00     0.213 HD
ENDBRANCH   2  30
TORSDOF 6
ENDMDL
MODEL 10
REMARK VINA RESULT:      -7.2      3.017      4.971
REMARK  6 active torsions:
REMARK  status: ('A' for Active; 'I' for Inactive)
REMARK    1  A    between atoms: C_2  and  O_3 
REMARK    2  A    between atoms: O_3  and  C_4 
REMARK    3  A    between atoms: C_7  and  N_8 
REMARK    4  A    between atoms: C_9  and  C_11 
REMARK    5  A    between atoms: C_9  and  O_10 
REMARK       I    between atoms: C_11  and  N_12 
REMARK    6  A    between atoms: N_12  and  C_13 
ROOT
HETATM    1  N   UNL     1      25.978  42.767  51.627  1.00  0.00    -0.254 N 
HETATM    2  C   UNL     1      27.107  41.864  51.916  1.00  0.00     0.256 C 
HETATM    3  C   UNL     1      27.406  40.845  50.834  1.00  0.00     0.035 A 
HETATM    4  C   UNL     1      26.511  40.694  49.784  1.00  0.00     0.048 A 
HETATM    5  N   UNL     1      25.390  41.504  49.731  1.00  0.00    -0.308 N 
HETATM    6  C   UNL     1      25.114  42.538  50.570  1.00  0.00     0.330 C 
HETATM    7  O   UNL     1      24.091  43.184  50.344  1.00  0.00    -0.246 OA
HETATM    8  C   UNL     1      28.542  40.016  50.869  1.00  0.00     0.034 A 
HETATM    9  C   UNL     1      28.768  39.085  49.854  1.00  0.00     0.011 A 
HETATM   10 BR   UNL     1      30.320  38.007  49.897  1.00  0.00    -0.051 Br
HETATM   11  C   UNL     1      27.860  38.945  48.809  1.00  0.00     0.021 A 
HETATM   12  C   UNL     1      26.721  39.749  48.777  1.00  0.00     0.031 A 
HETATM   13  H   UNL     1      24.726  41.402  48.974  1.00  0.00     0.170 HD
ENDROOT
BRANCH   1  14
HETATM   14  C   UNL     1      25.846  43.981  52.391  1.00  0.00     0.043 A 
HETATM   15  C   UNL     1      25.628  43.973  53.774  1.00  0.00     0.032 A 
HETATM   16  C   UNL     1      25.585  45.170  54.499  1.00  0.00     0.039 A 
HETATM   17  C   UNL     1      25.798  46.394  53.867  1.00  0.00     0.068 A 
HETATM   18  C   UNL     1      25.996  46.419  52.490  1.00  0.00     0.039 A 
HETATM   19  C   UNL     1      26.010  45.223  51.760  1.00  0.00     0.032 A 
BRANCH  17  20
HETATM   20  O   UNL     1      25.775  47.485  54.690  1.00  0.00    -0.352 OA
BRANCH  20  21
HETATM   21  C   UNL     1      26.869  47.610  55.599  1.00  0.00     0.171 C 
HETATM   22  C   UNL     1      28.133  47.820  54.784  1.00  0.00     0.034 C 
ENDBRANCH  20  21
ENDBRANCH  17  20
ENDBRANCH   1  14
BRANCH   2  23
HETATM   23  C   UNL     1      28.419  42.729  52.158  1.00  0.00     0.279 C 
HETATM   24  N   UNL     1      28.947  42.555  53.433  1.00  0.00    -0.352 N 
HETATM   25  H   UNL     1      28.464  41.901  54.043  1.00  0.00     0.163 HD
HETATM   26  O   UNL     1      28.907  43.482  51.318  1.00  0.00    -0.268 OA
BRANCH  24  27
HETATM   27  C   UNL     1      30.045  43.312  53.933  1.00  0.00     0.084 A 
HETATM   28  C   UNL     1      29.852  44.374  54.982  1.00  0.00     0.027 A 
HETATM   29  C   UNL     1      30.535  43.089  55.339  1.00  0.00     0.027 A 
ENDBRANCH  24  27
ENDBRANCH   2  23
BRANCH   2  30
HETATM   30  O   UNL     1      26.735  41.090  53.058  1.00  0.00    -0.359 OA
HETATM   31  H   UNL     1      25.876  41.470  53.312  1.00  0.00     0.213 HD
ENDBRANCH   2  30
TORSDOF 6
ENDMDL
