MODEL 1
REMARK VINA RESULT:      -8.3      0.000      0.000
REMARK  11 active torsions:
REMARK  status: ('A' for Active; 'I' for Inactive)
REMARK    1  A    between atoms: C_2  and  O_3 
REMARK    2  A    between atoms: O_3  and  C_4 
REMARK    3  A    between atoms: C_5  and  C_6 
REMARK       I    between atoms: C_6  and  N_7 
REMARK    4  A    between atoms: N_7  and  C_8 
REMARK    5  A    between atoms: C_8  and  N_9 
REMARK    6  A    between atoms: N_9  and  C_10 
REMARK    7  A    between atoms: C_11  and  C_12 
REMARK       I    between atoms: C_12  and  N_13 
REMARK    8  A    between atoms: N_13  and  C_14 
REMARK    9  A    between atoms: C_14  and  C_15 
REMARK   10  A    between atoms: C_15  and  C_16 
REMARK   11  A    between atoms: C_16  and  O_17 
ROOT
HETATM    1  N   UNL     1      24.347  46.792  50.622  1.00  0.00    -0.332 N 
HETATM    2  H   UNL     1      23.722  47.115  51.366  1.00  0.00     0.168 HD
ENDROOT
BRANCH   1   3
HETATM    3  C   UNL     1      24.740  45.482  50.718  1.00  0.00     0.179 C 
HETATM    4  S   UNL     1      23.985  44.169  50.007  1.00  0.00    -0.040 SA
BRANCH   3   5
HETATM    5  N   UNL     1      25.845  45.237  51.499  1.00  0.00    -0.299 N 
HETATM    6  C   UNL     1      27.059  44.690  51.085  1.00  0.00     0.260 C 
HETATM    7  O   UNL     1      27.505  44.846  49.954  1.00  0.00    -0.267 OA
HETATM    8  H   UNL     1      25.634  45.224  52.486  1.00  0.00     0.171 HD
BRANCH   6   9
HETATM    9  C   UNL     1      27.799  43.925  52.139  1.00  0.00     0.065 A 
HETATM   10  C   UNL     1      27.944  44.413  53.444  1.00  0.00     0.084 A 
HETATM   11  C   UNL     1      28.615  43.657  54.413  1.00  0.00     0.038 A 
HETATM   12  C   UNL     1      29.196  42.435  54.077  1.00  0.00     0.003 A 
HETATM   13  C   UNL     1      29.106  41.963  52.771  1.00  0.00     0.001 A 
HETATM   14  C   UNL     1      28.416  42.703  51.806  1.00  0.00     0.020 A 
BRANCH  10  15
HETATM   15  O   UNL     1      27.385  45.596  53.845  1.00  0.00    -0.350 OA
BRANCH  15  16
HETATM   16  C   UNL     1      28.137  46.180  54.920  1.00  0.00     0.171 C 
HETATM   17  C   UNL     1      27.778  47.652  55.030  1.00  0.00     0.034 C 
ENDBRANCH  15  16
ENDBRANCH  10  15
ENDBRANCH   6   9
ENDBRANCH   3   5
ENDBRANCH   1   3
BRANCH   1  18
HETATM   18  C   UNL     1      24.763  47.778  49.697  1.00  0.00     0.050 A 
HETATM   19  C   UNL     1      23.817  48.530  48.977  1.00  0.00     0.058 A 
HETATM   20  C   UNL     1      24.220  49.634  48.211  1.00  0.00     0.019 A 
HETATM   21  C   UNL     1      25.567  49.980  48.135  1.00  0.00     0.001 A 
HETATM   22  C   UNL     1      26.514  49.220  48.816  1.00  0.00     0.002 A 
HETATM   23  C   UNL     1      26.116  48.131  49.595  1.00  0.00     0.030 A 
BRANCH  19  24
HETATM   24  C   UNL     1      22.394  48.121  48.837  1.00  0.00     0.253 C 
HETATM   25  N   UNL     1      21.480  49.153  48.929  1.00  0.00    -0.357 N 
HETATM   26  H   UNL     1      21.835  50.088  49.095  1.00  0.00     0.162 HD
HETATM   27  O   UNL     1      22.091  46.938  48.760  1.00  0.00    -0.268 OA
BRANCH  25  28
HETATM   28  C   UNL     1      20.074  48.903  49.165  1.00  0.00     0.125 C 
BRANCH  28  29
HETATM   29  C   UNL     1      19.551  49.539  50.444  1.00  0.00     0.046 C 
BRANCH  29  30
HETATM   30  C   UNL     1      18.608  48.617  51.203  1.00  0.00     0.165 C 
BRANCH  30  31
HETATM   31  O   UNL     1      18.734  48.843  52.601  1.00  0.00    -0.401 OA
HETATM   32  H   UNL     1      18.367  48.063  53.053  1.00  0.00     0.209 HD
ENDBRANCH  30  31
ENDBRANCH  29  30
ENDBRANCH  28  29
ENDBRANCH  25  28
ENDBRANCH  19  24
ENDBRANCH   1  18
TORSDOF 11
ENDMDL
MODEL 2
REMARK VINA RESULT:      -8.2      1.467      1.571
REMARK  11 active torsions:
REMARK  status: ('A' for Active; 'I' for Inactive)
REMARK    1  A    between atoms: C_2  and  O_3 
REMARK    2  A    between atoms: O_3  and  C_4 
REMARK    3  A    between atoms: C_5  and  C_6 
REMARK       I    between atoms: C_6  and  N_7 
REMARK    4  A    between atoms: N_7  and  C_8 
REMARK    5  A    between atoms: C_8  and  N_9 
REMARK    6  A    between atoms: N_9  and  C_10 
REMARK    7  A    between atoms: C_11  and  C_12 
REMARK       I    between atoms: C_12  and  N_13 
REMARK    8  A    between atoms: N_13  and  C_14 
REMARK    9  A    between atoms: C_14  and  C_15 
REMARK   10  A    between atoms: C_15  and  C_16 
REMARK   11  A    between atoms: C_16  and  O_17 
ROOT
HETATM    1  N   UNL     1      24.798  46.872  50.755  1.00  0.00    -0.332 N 
HETATM    2  H   UNL     1      23.846  46.496  50.726  1.00  0.00     0.168 HD
ENDROOT
BRANCH   1   3
HETATM    3  C   UNL     1      25.566  46.434  51.802  1.00  0.00     0.179 C 
HETATM    4  S   UNL     1      25.791  47.223  53.261  1.00  0.00    -0.040 SA
BRANCH   3   5
HETATM    5  N   UNL     1      26.231  45.245  51.611  1.00  0.00    -0.299 N 
HETATM    6  C   UNL     1      25.760  43.966  51.900  1.00  0.00     0.260 C 
HETATM    7  O   UNL     1      24.571  43.669  51.850  1.00  0.00    -0.267 OA
HETATM    8  H   UNL     1      27.226  45.367  51.492  1.00  0.00     0.171 HD
BRANCH   6   9
HETATM    9  C   UNL     1      26.821  42.965  52.244  1.00  0.00     0.065 A 
HETATM   10  C   UNL     1      27.626  43.101  53.383  1.00  0.00     0.084 A 
HETATM   11  C   UNL     1      28.587  42.130  53.691  1.00  0.00     0.038 A 
HETATM   12  C   UNL     1      28.793  41.046  52.839  1.00  0.00     0.003 A 
HETATM   13  C   UNL     1      28.037  40.927  51.677  1.00  0.00     0.001 A 
HETATM   14  C   UNL     1      27.060  41.881  51.377  1.00  0.00     0.020 A 
BRANCH  10  15
HETATM   15  O   UNL     1      27.465  44.132  54.270  1.00  0.00    -0.350 OA
BRANCH  15  16
HETATM   16  C   UNL     1      28.720  44.778  54.537  1.00  0.00     0.171 C 
HETATM   17  C   UNL     1      28.499  45.873  55.566  1.00  0.00     0.034 C 
ENDBRANCH  15  16
ENDBRANCH  10  15
ENDBRANCH   6   9
ENDBRANCH   3   5
ENDBRANCH   1   3
BRANCH   1  18
HETATM   18  C   UNL     1      25.107  47.840  49.771  1.00  0.00     0.050 A 
HETATM   19  C   UNL     1      24.084  48.466  49.035  1.00  0.00     0.058 A 
HETATM   20  C   UNL     1      24.372  49.557  48.203  1.00  0.00     0.019 A 
HETATM   21  C   UNL     1      25.681  50.018  48.079  1.00  0.00     0.001 A 
HETATM   22  C   UNL     1      26.705  49.382  48.777  1.00  0.00     0.002 A 
HETATM   23  C   UNL     1      26.421  48.305  49.620  1.00  0.00     0.030 A 
BRANCH  19  24
HETATM   24  C   UNL     1      22.701  47.925  48.949  1.00  0.00     0.253 C 
HETATM   25  N   UNL     1      21.700  48.875  49.008  1.00  0.00    -0.357 N 
HETATM   26  H   UNL     1      21.973  49.845  49.117  1.00  0.00     0.162 HD
HETATM   27  O   UNL     1      22.505  46.717  48.941  1.00  0.00    -0.268 OA
BRANCH  25  28
HETATM   28  C   UNL     1      20.326  48.514  49.288  1.00  0.00     0.125 C 
BRANCH  28  29
HETATM   29  C   UNL     1      19.679  49.379  50.359  1.00  0.00     0.046 C 
BRANCH  29  30
HETATM   30  C   UNL     1      18.606  48.631  51.135  1.00  0.00     0.165 C 
BRANCH  30  31
HETATM   31  O   UNL     1      18.750  48.885  52.526  1.00  0.00    -0.401 OA
HETATM   32  H   UNL     1      19.692  49.072  52.688  1.00  0.00     0.209 HD
ENDBRANCH  30  31
ENDBRANCH  29  30
ENDBRANCH  28  29
ENDBRANCH  25  28
ENDBRANCH  19  24
ENDBRANCH   1  18
TORSDOF 11
ENDMDL
MODEL 3
REMARK VINA RESULT:      -8.2      1.753      2.820
REMARK  11 active torsions:
REMARK  status: ('A' for Active; 'I' for Inactive)
REMARK    1  A    between atoms: C_2  and  O_3 
REMARK    2  A    between atoms: O_3  and  C_4 
REMARK    3  A    between atoms: C_5  and  C_6 
REMARK       I    between atoms: C_6  and  N_7 
REMARK    4  A    between atoms: N_7  and  C_8 
REMARK    5  A    between atoms: C_8  and  N_9 
REMARK    6  A    between atoms: N_9  and  C_10 
REMARK    7  A    between atoms: C_11  and  C_12 
REMARK       I    between atoms: C_12  and  N_13 
REMARK    8  A    between atoms: N_13  and  C_14 
REMARK    9  A    between atoms: C_14  and  C_15 
REMARK   10  A    between atoms: C_15  and  C_16 
REMARK   11  A    between atoms: C_16  and  O_17 
ROOT
HETATM    1  N   UNL     1      24.686  47.023  50.632  1.00  0.00    -0.332 N 
HETATM    2  H   UNL     1      24.047  47.463  51.301  1.00  0.00     0.168 HD
ENDROOT
BRANCH   1   3
HETATM    3  C   UNL     1      24.794  45.661  50.739  1.00  0.00     0.179 C 
HETATM    4  S   UNL     1      23.832  44.529  49.969  1.00  0.00    -0.040 SA
BRANCH   3   5
HETATM    5  N   UNL     1      25.774  45.195  51.585  1.00  0.00    -0.299 N 
HETATM    6  C   UNL     1      25.632  44.870  52.932  1.00  0.00     0.260 C 
HETATM    7  O   UNL     1      24.585  44.442  53.405  1.00  0.00    -0.267 OA
HETATM    8  H   UNL     1      26.706  45.361  51.234  1.00  0.00     0.171 HD
BRANCH   6   9
HETATM    9  C   UNL     1      26.870  45.046  53.758  1.00  0.00     0.065 A 
HETATM   10  C   UNL     1      27.741  43.981  54.022  1.00  0.00     0.084 A 
HETATM   11  C   UNL     1      28.906  44.188  54.772  1.00  0.00     0.038 A 
HETATM   12  C   UNL     1      29.184  45.443  55.312  1.00  0.00     0.003 A 
HETATM   13  C   UNL     1      28.300  46.496  55.102  1.00  0.00     0.001 A 
HETATM   14  C   UNL     1      27.148  46.300  54.335  1.00  0.00     0.020 A 
BRANCH  10  15
HETATM   15  O   UNL     1      27.537  42.728  53.510  1.00  0.00    -0.350 OA
BRANCH  15  16
HETATM   16  C   UNL     1      28.557  42.392  52.557  1.00  0.00     0.171 C 
HETATM   17  C   UNL     1      28.904  40.920  52.706  1.00  0.00     0.034 C 
ENDBRANCH  15  16
ENDBRANCH  10  15
ENDBRANCH   6   9
ENDBRANCH   3   5
ENDBRANCH   1   3
BRANCH   1  18
HETATM   18  C   UNL     1      25.405  47.908  49.796  1.00  0.00     0.050 A 
HETATM   19  C   UNL     1      24.729  48.852  49.001  1.00  0.00     0.058 A 
HETATM   20  C   UNL     1      25.442  49.853  48.325  1.00  0.00     0.019 A 
HETATM   21  C   UNL     1      26.831  49.905  48.413  1.00  0.00     0.001 A 
HETATM   22  C   UNL     1      27.511  48.953  49.168  1.00  0.00     0.002 A 
HETATM   23  C   UNL     1      26.805  47.965  49.859  1.00  0.00     0.030 A 
BRANCH  19  24
HETATM   24  C   UNL     1      23.278  48.757  48.688  1.00  0.00     0.253 C 
HETATM   25  N   UNL     1      22.756  49.843  48.013  1.00  0.00    -0.357 N 
HETATM   26  H   UNL     1      23.380  50.613  47.798  1.00  0.00     0.162 HD
HETATM   27  O   UNL     1      22.610  47.824  49.111  1.00  0.00    -0.268 OA
BRANCH  25  28
HETATM   28  C   UNL     1      21.330  50.078  47.940  1.00  0.00     0.125 C 
BRANCH  28  29
HETATM   29  C   UNL     1      20.869  51.275  48.757  1.00  0.00     0.046 C 
BRANCH  29  30
HETATM   30  C   UNL     1      20.673  50.930  50.226  1.00  0.00     0.165 C 
BRANCH  30  31
HETATM   31  O   UNL     1      21.926  50.950  50.898  1.00  0.00    -0.401 OA
HETATM   32  H   UNL     1      22.187  50.024  51.047  1.00  0.00     0.209 HD
ENDBRANCH  30  31
ENDBRANCH  29  30
ENDBRANCH  28  29
ENDBRANCH  25  28
ENDBRANCH  19  24
ENDBRANCH   1  18
TORSDOF 11
ENDMDL
MODEL 4
REMARK VINA RESULT:      -8.1      2.252      7.479
REMARK  11 active torsions:
REMARK  status: ('A' for Active; 'I' for Inactive)
REMARK    1  A    between atoms: C_2  and  O_3 
REMARK    2  A    between atoms: O_3  and  C_4 
REMARK    3  A    between atoms: C_5  and  C_6 
REMARK       I    between atoms: C_6  and  N_7 
REMARK    4  A    between atoms: N_7  and  C_8 
REMARK    5  A    between atoms: C_8  and  N_9 
REMARK    6  A    between atoms: N_9  and  C_10 
REMARK    7  A    between atoms: C_11  and  C_12 
REMARK       I    between atoms: C_12  and  N_13 
REMARK    8  A    between atoms: N_13  and  C_14 
REMARK    9  A    between atoms: C_14  and  C_15 
REMARK   10  A    between atoms: C_15  and  C_16 
REMARK   11  A    between atoms: C_16  and  O_17 
ROOT
HETATM    1  N   UNL     1      25.531  43.888  51.705  1.00  0.00    -0.332 N 
HETATM    2  H   UNL     1      24.760  44.035  52.363  1.00  0.00     0.168 HD
ENDROOT
BRANCH   1   3
HETATM    3  C   UNL     1      25.320  44.367  50.440  1.00  0.00     0.179 C 
HETATM    4  S   UNL     1      24.461  43.604  49.224  1.00  0.00    -0.040 SA
BRANCH   3   5
HETATM    5  N   UNL     1      25.898  45.581  50.147  1.00  0.00    -0.299 N 
HETATM    6  C   UNL     1      25.582  46.816  50.710  1.00  0.00     0.260 C 
HETATM    7  O   UNL     1      25.171  46.937  51.859  1.00  0.00    -0.267 OA
HETATM    8  H   UNL     1      26.401  45.575  49.272  1.00  0.00     0.171 HD
BRANCH   6   9
HETATM    9  C   UNL     1      25.818  47.996  49.817  1.00  0.00     0.065 A 
HETATM   10  C   UNL     1      24.769  48.637  49.144  1.00  0.00     0.084 A 
HETATM   11  C   UNL     1      25.022  49.757  48.342  1.00  0.00     0.038 A 
HETATM   12  C   UNL     1      26.326  50.213  48.158  1.00  0.00     0.003 A 
HETATM   13  C   UNL     1      27.383  49.553  48.777  1.00  0.00     0.001 A 
HETATM   14  C   UNL     1      27.134  48.449  49.598  1.00  0.00     0.020 A 
BRANCH  10  15
HETATM   15  O   UNL     1      23.465  48.252  49.294  1.00  0.00    -0.350 OA
BRANCH  15  16
HETATM   16  C   UNL     1      22.585  49.385  49.234  1.00  0.00     0.171 C 
HETATM   17  C   UNL     1      21.375  49.025  48.390  1.00  0.00     0.034 C 
ENDBRANCH  15  16
ENDBRANCH  10  15
ENDBRANCH   6   9
ENDBRANCH   3   5
ENDBRANCH   1   3
BRANCH   1  18
HETATM   18  C   UNL     1      26.622  43.135  52.199  1.00  0.00     0.050 A 
HETATM   19  C   UNL     1      27.194  43.435  53.449  1.00  0.00     0.058 A 
HETATM   20  C   UNL     1      28.141  42.574  54.023  1.00  0.00     0.019 A 
HETATM   21  C   UNL     1      28.544  41.425  53.348  1.00  0.00     0.001 A 
HETATM   22  C   UNL     1      28.009  41.138  52.094  1.00  0.00     0.002 A 
HETATM   23  C   UNL     1      27.053  41.982  51.526  1.00  0.00     0.030 A 
BRANCH  19  24
HETATM   24  C   UNL     1      26.978  44.730  54.148  1.00  0.00     0.253 C 
HETATM   25  N   UNL     1      28.133  45.399  54.504  1.00  0.00    -0.357 N 
HETATM   26  H   UNL     1      29.021  44.964  54.280  1.00  0.00     0.162 HD
HETATM   27  O   UNL     1      25.851  45.085  54.466  1.00  0.00    -0.268 OA
BRANCH  25  28
HETATM   28  C   UNL     1      28.121  46.470  55.477  1.00  0.00     0.125 C 
BRANCH  28  29
HETATM   29  C   UNL     1      27.778  47.827  54.882  1.00  0.00     0.046 C 
BRANCH  29  30
HETATM   30  C   UNL     1      26.473  48.384  55.428  1.00  0.00     0.165 C 
BRANCH  30  31
HETATM   31  O   UNL     1      25.451  48.270  54.446  1.00  0.00    -0.401 OA
HETATM   32  H   UNL     1      25.832  47.792  53.688  1.00  0.00     0.209 HD
ENDBRANCH  30  31
ENDBRANCH  29  30
ENDBRANCH  28  29
ENDBRANCH  25  28
ENDBRANCH  19  24
ENDBRANCH   1  18
TORSDOF 11
ENDMDL
MODEL 5
REMARK VINA RESULT:      -8.0      2.532      4.535
REMARK  11 active torsions:
REMARK  status: ('A' for Active; 'I' for Inactive)
REMARK    1  A    between atoms: C_2  and  O_3 
REMARK    2  A    between atoms: O_3  and  C_4 
REMARK    3  A    between atoms: C_5  and  C_6 
REMARK       I    between atoms: C_6  and  N_7 
REMARK    4  A    between atoms: N_7  and  C_8 
REMARK    5  A    between atoms: C_8  and  N_9 
REMARK    6  A    between atoms: N_9  and  C_10 
REMARK    7  A    between atoms: C_11  and  C_12 
REMARK       I    between atoms: C_12  and  N_13 
REMARK    8  A    between atoms: N_13  and  C_14 
REMARK    9  A    between atoms: C_14  and  C_15 
REMARK   10  A    between atoms: C_15  and  C_16 
REMARK   11  A    between atoms: C_16  and  O_17 
ROOT
HETATM    1  N   UNL     1      26.073  43.454  51.557  1.00  0.00    -0.332 N 
HETATM    2  H   UNL     1      25.963  43.980  52.428  1.00  0.00     0.168 HD
ENDROOT
BRANCH   1   3
HETATM    3  C   UNL     1      27.258  42.779  51.428  1.00  0.00     0.179 C 
HETATM    4  S   UNL     1      27.575  41.532  50.358  1.00  0.00    -0.040 SA
BRANCH   3   5
HETATM    5  N   UNL     1      28.266  43.155  52.285  1.00  0.00    -0.299 N 
HETATM    6  C   UNL     1      28.530  42.631  53.549  1.00  0.00     0.260 C 
HETATM    7  O   UNL     1      28.285  41.468  53.849  1.00  0.00    -0.267 OA
HETATM    8  H   UNL     1      28.661  44.056  52.055  1.00  0.00     0.171 HD
BRANCH   6   9
HETATM    9  C   UNL     1      29.173  43.587  54.508  1.00  0.00     0.065 A 
HETATM   10  C   UNL     1      28.604  44.832  54.804  1.00  0.00     0.084 A 
HETATM   11  C   UNL     1      29.216  45.688  55.729  1.00  0.00     0.038 A 
HETATM   12  C   UNL     1      30.427  45.335  56.323  1.00  0.00     0.003 A 
HETATM   13  C   UNL     1      31.030  44.124  55.997  1.00  0.00     0.001 A 
HETATM   14  C   UNL     1      30.411  43.256  55.092  1.00  0.00     0.020 A 
BRANCH  10  15
HETATM   15  O   UNL     1      27.410  45.234  54.270  1.00  0.00    -0.350 OA
BRANCH  15  16
HETATM   16  C   UNL     1      27.198  46.638  54.484  1.00  0.00     0.171 C 
HETATM   17  C   UNL     1      26.251  47.161  53.418  1.00  0.00     0.034 C 
ENDBRANCH  15  16
ENDBRANCH  10  15
ENDBRANCH   6   9
ENDBRANCH   3   5
ENDBRANCH   1   3
BRANCH   1  18
HETATM   18  C   UNL     1      25.028  43.602  50.615  1.00  0.00     0.050 A 
HETATM   19  C   UNL     1      25.116  44.560  49.589  1.00  0.00     0.058 A 
HETATM   20  C   UNL     1      24.178  44.576  48.547  1.00  0.00     0.019 A 
HETATM   21  C   UNL     1      23.132  43.656  48.531  1.00  0.00     0.001 A 
HETATM   22  C   UNL     1      23.016  42.726  49.562  1.00  0.00     0.002 A 
HETATM   23  C   UNL     1      23.958  42.695  50.593  1.00  0.00     0.030 A 
BRANCH  19  24
HETATM   24  C   UNL     1      26.073  45.699  49.625  1.00  0.00     0.253 C 
HETATM   25  N   UNL     1      25.499  46.934  49.857  1.00  0.00    -0.357 N 
HETATM   26  H   UNL     1      24.492  46.975  49.969  1.00  0.00     0.162 HD
HETATM   27  O   UNL     1      27.254  45.528  49.354  1.00  0.00    -0.268 OA
BRANCH  25  28
HETATM   28  C   UNL     1      26.208  48.165  49.581  1.00  0.00     0.125 C 
BRANCH  28  29
HETATM   29  C   UNL     1      25.359  49.208  48.871  1.00  0.00     0.046 C 
BRANCH  29  30
HETATM   30  C   UNL     1      23.888  48.822  48.826  1.00  0.00     0.165 C 
BRANCH  30  31
HETATM   31  O   UNL     1      23.295  49.030  50.102  1.00  0.00    -0.401 OA
HETATM   32  H   UNL     1      22.772  48.235  50.309  1.00  0.00     0.209 HD
ENDBRANCH  30  31
ENDBRANCH  29  30
ENDBRANCH  28  29
ENDBRANCH  25  28
ENDBRANCH  19  24
ENDBRANCH   1  18
TORSDOF 11
ENDMDL
MODEL 6
REMARK VINA RESULT:      -8.0      2.650      8.510
REMARK  11 active torsions:
REMARK  status: ('A' for Active; 'I' for Inactive)
REMARK    1  A    between atoms: C_2  and  O_3 
REMARK    2  A    between atoms: O_3  and  C_4 
REMARK    3  A    between atoms: C_5  and  C_6 
REMARK       I    between atoms: C_6  and  N_7 
REMARK    4  A    between atoms: N_7  and  C_8 
REMARK    5  A    between atoms: C_8  and  N_9 
REMARK    6  A    between atoms: N_9  and  C_10 
REMARK    7  A    between atoms: C_11  and  C_12 
REMARK       I    between atoms: C_12  and  N_13 
REMARK    8  A    between atoms: N_13  and  C_14 
REMARK    9  A    between atoms: C_14  and  C_15 
REMARK   10  A    between atoms: C_15  and  C_16 
REMARK   11  A    between atoms: C_16  and  O_17 
ROOT
HETATM    1  N   UNL     1      23.390  48.331  49.719  1.00  0.00    -0.332 N 
HETATM    2  H   UNL     1      23.085  48.134  50.676  1.00  0.00     0.168 HD
ENDROOT
BRANCH   1   3
HETATM    3  C   UNL     1      22.417  48.220  48.761  1.00  0.00     0.179 C 
HETATM    4  S   UNL     1      22.128  46.885  47.795  1.00  0.00    -0.040 SA
BRANCH   3   5
HETATM    5  N   UNL     1      21.627  49.330  48.569  1.00  0.00    -0.299 N 
HETATM    6  C   UNL     1      21.419  50.375  49.466  1.00  0.00     0.260 C 
HETATM    7  O   UNL     1      22.266  50.734  50.275  1.00  0.00    -0.267 OA
HETATM    8  H   UNL     1      20.965  49.214  47.815  1.00  0.00     0.171 HD
BRANCH   6   9
HETATM    9  C   UNL     1      20.090  51.057  49.343  1.00  0.00     0.065 A 
HETATM   10  C   UNL     1      18.993  50.688  50.133  1.00  0.00     0.084 A 
HETATM   11  C   UNL     1      17.774  51.368  50.014  1.00  0.00     0.038 A 
HETATM   12  C   UNL     1      17.621  52.382  49.071  1.00  0.00     0.003 A 
HETATM   13  C   UNL     1      18.686  52.722  48.243  1.00  0.00     0.001 A 
HETATM   14  C   UNL     1      19.912  52.062  48.373  1.00  0.00     0.020 A 
BRANCH  10  15
HETATM   15  O   UNL     1      19.080  49.713  51.090  1.00  0.00    -0.350 OA
BRANCH  15  16
HETATM   16  C   UNL     1      18.175  48.635  50.807  1.00  0.00     0.171 C 
HETATM   17  C   UNL     1      18.741  47.804  49.668  1.00  0.00     0.034 C 
ENDBRANCH  15  16
ENDBRANCH  10  15
ENDBRANCH   6   9
ENDBRANCH   3   5
ENDBRANCH   1   3
BRANCH   1  18
HETATM   18  C   UNL     1      24.773  48.582  49.556  1.00  0.00     0.050 A 
HETATM   19  C   UNL     1      25.730  47.777  50.200  1.00  0.00     0.058 A 
HETATM   20  C   UNL     1      27.091  47.902  49.888  1.00  0.00     0.019 A 
HETATM   21  C   UNL     1      27.512  48.844  48.953  1.00  0.00     0.001 A 
HETATM   22  C   UNL     1      26.575  49.670  48.336  1.00  0.00     0.002 A 
HETATM   23  C   UNL     1      25.216  49.538  48.630  1.00  0.00     0.030 A 
BRANCH  19  24
HETATM   24  C   UNL     1      25.401  46.890  51.348  1.00  0.00     0.253 C 
HETATM   25  N   UNL     1      26.047  47.201  52.528  1.00  0.00    -0.357 N 
HETATM   26  H   UNL     1      26.693  47.982  52.523  1.00  0.00     0.162 HD
HETATM   27  O   UNL     1      24.694  45.904  51.189  1.00  0.00    -0.268 OA
BRANCH  25  28
HETATM   28  C   UNL     1      26.120  46.259  53.625  1.00  0.00     0.125 C 
BRANCH  28  29
HETATM   29  C   UNL     1      26.596  46.882  54.928  1.00  0.00     0.046 C 
BRANCH  29  30
HETATM   30  C   UNL     1      26.351  48.383  54.974  1.00  0.00     0.165 C 
BRANCH  30  31
HETATM   31  O   UNL     1      25.661  48.722  56.171  1.00  0.00    -0.401 OA
HETATM   32  H   UNL     1      25.825  49.667  56.339  1.00  0.00     0.209 HD
ENDBRANCH  30  31
ENDBRANCH  29  30
ENDBRANCH  28  29
ENDBRANCH  25  28
ENDBRANCH  19  24
ENDBRANCH   1  18
TORSDOF 11
ENDMDL
MODEL 7
REMARK VINA RESULT:      -7.9      1.675      2.969
REMARK  11 active torsions:
REMARK  status: ('A' for Active; 'I' for Inactive)
REMARK    1  A    between atoms: C_2  and  O_3 
REMARK    2  A    between atoms: O_3  and  C_4 
REMARK    3  A    between atoms: C_5  and  C_6 
REMARK       I    between atoms: C_6  and  N_7 
REMARK    4  A    between atoms: N_7  and  C_8 
REMARK    5  A    between atoms: C_8  and  N_9 
REMARK    6  A    between atoms: N_9  and  C_10 
REMARK    7  A    between atoms: C_11  and  C_12 
REMARK       I    between atoms: C_12  and  N_13 
REMARK    8  A    between atoms: N_13  and  C_14 
REMARK    9  A    between atoms: C_14  and  C_15 
REMARK   10  A    between atoms: C_15  and  C_16 
REMARK   11  A    between atoms: C_16  and  O_17 
ROOT
HETATM    1  N   UNL     1      23.666  47.188  50.177  1.00  0.00    -0.332 N 
HETATM    2  H   UNL     1      23.050  47.275  50.990  1.00  0.00     0.168 HD
ENDROOT
BRANCH   1   3
HETATM    3  C   UNL     1      24.438  46.056  50.147  1.00  0.00     0.179 C 
HETATM    4  S   UNL     1      24.272  44.774  49.086  1.00  0.00    -0.040 SA
BRANCH   3   5
HETATM    5  N   UNL     1      25.422  45.968  51.105  1.00  0.00    -0.299 N 
HETATM    6  C   UNL     1      25.304  45.413  52.378  1.00  0.00     0.260 C 
HETATM    7  O   UNL     1      24.541  44.488  52.630  1.00  0.00    -0.267 OA
HETATM    8  H   UNL     1      26.195  46.594  50.931  1.00  0.00     0.171 HD
BRANCH   6   9
HETATM    9  C   UNL     1      26.210  46.008  53.412  1.00  0.00     0.065 A 
HETATM   10  C   UNL     1      27.369  45.351  53.848  1.00  0.00     0.084 A 
HETATM   11  C   UNL     1      28.210  45.951  54.794  1.00  0.00     0.038 A 
HETATM   12  C   UNL     1      27.876  47.183  55.355  1.00  0.00     0.003 A 
HETATM   13  C   UNL     1      26.701  47.821  54.970  1.00  0.00     0.001 A 
HETATM   14  C   UNL     1      25.870  47.238  54.009  1.00  0.00     0.020 A 
BRANCH  10  15
HETATM   15  O   UNL     1      27.764  44.149  53.328  1.00  0.00    -0.350 OA
BRANCH  15  16
HETATM   16  C   UNL     1      29.019  43.735  53.888  1.00  0.00     0.171 C 
HETATM   17  C   UNL     1      29.797  42.963  52.836  1.00  0.00     0.034 C 
ENDBRANCH  15  16
ENDBRANCH  10  15
ENDBRANCH   6   9
ENDBRANCH   3   5
ENDBRANCH   1   3
BRANCH   1  18
HETATM   18  C   UNL     1      23.675  48.293  49.294  1.00  0.00     0.050 A 
HETATM   19  C   UNL     1      22.471  48.883  48.870  1.00  0.00     0.058 A 
HETATM   20  C   UNL     1      22.482  50.089  48.155  1.00  0.00     0.019 A 
HETATM   21  C   UNL     1      23.690  50.703  47.835  1.00  0.00     0.001 A 
HETATM   22  C   UNL     1      24.889  50.108  48.220  1.00  0.00     0.002 A 
HETATM   23  C   UNL     1      24.883  48.916  48.947  1.00  0.00     0.030 A 
BRANCH  19  24
HETATM   24  C   UNL     1      21.152  48.205  48.990  1.00  0.00     0.253 C 
HETATM   25  N   UNL     1      20.190  48.921  49.676  1.00  0.00    -0.357 N 
HETATM   26  H   UNL     1      20.450  49.827  50.051  1.00  0.00     0.162 HD
HETATM   27  O   UNL     1      21.004  47.057  48.595  1.00  0.00    -0.268 OA
BRANCH  25  28
HETATM   28  C   UNL     1      18.991  48.289  50.184  1.00  0.00     0.125 C 
BRANCH  28  29
HETATM   29  C   UNL     1      17.780  48.473  49.281  1.00  0.00     0.046 C 
BRANCH  29  30
HETATM   30  C   UNL     1      17.415  47.197  48.538  1.00  0.00     0.165 C 
BRANCH  30  31
HETATM   31  O   UNL     1      18.341  46.168  48.863  1.00  0.00    -0.401 OA
HETATM   32  H   UNL     1      19.234  46.549  48.787  1.00  0.00     0.209 HD
ENDBRANCH  30  31
ENDBRANCH  29  30
ENDBRANCH  28  29
ENDBRANCH  25  28
ENDBRANCH  19  24
ENDBRANCH   1  18
TORSDOF 11
ENDMDL
MODEL 8
REMARK VINA RESULT:      -7.9      1.880      2.100
REMARK  11 active torsions:
REMARK  status: ('A' for Active; 'I' for Inactive)
REMARK    1  A    between atoms: C_2  and  O_3 
REMARK    2  A    between atoms: O_3  and  C_4 
REMARK    3  A    between atoms: C_5  and  C_6 
REMARK       I    between atoms: C_6  and  N_7 
REMARK    4  A    between atoms: N_7  and  C_8 
REMARK    5  A    between atoms: C_8  and  N_9 
REMARK    6  A    between atoms: N_9  and  C_10 
REMARK    7  A    between atoms: C_11  and  C_12 
REMARK       I    between atoms: C_12  and  N_13 
REMARK    8  A    between atoms: N_13  and  C_14 
REMARK    9  A    between atoms: C_14  and  C_15 
REMARK   10  A    between atoms: C_15  and  C_16 
REMARK   11  A    between atoms: C_16  and  O_17 
ROOT
HETATM    1  N   UNL     1      24.756  46.889  50.698  1.00  0.00    -0.332 N 
HETATM    2  H   UNL     1      24.294  47.316  51.505  1.00  0.00     0.168 HD
ENDROOT
BRANCH   1   3
HETATM    3  C   UNL     1      24.705  45.520  50.653  1.00  0.00     0.179 C 
HETATM    4  S   UNL     1      23.577  44.600  49.829  1.00  0.00    -0.040 SA
BRANCH   3   5
HETATM    5  N   UNL     1      25.661  44.853  51.382  1.00  0.00    -0.299 N 
HETATM    6  C   UNL     1      25.587  44.488  52.725  1.00  0.00     0.260 C 
HETATM    7  O   UNL     1      24.529  44.220  53.283  1.00  0.00    -0.267 OA
HETATM    8  H   UNL     1      26.573  44.877  50.948  1.00  0.00     0.171 HD
BRANCH   6   9
HETATM    9  C   UNL     1      26.906  44.410  53.432  1.00  0.00     0.065 A 
HETATM   10  C   UNL     1      27.330  45.407  54.321  1.00  0.00     0.084 A 
HETATM   11  C   UNL     1      28.555  45.287  54.989  1.00  0.00     0.038 A 
HETATM   12  C   UNL     1      29.393  44.203  54.735  1.00  0.00     0.003 A 
HETATM   13  C   UNL     1      29.010  43.234  53.814  1.00  0.00     0.001 A 
HETATM   14  C   UNL     1      27.777  43.337  53.163  1.00  0.00     0.020 A 
BRANCH  10  15
HETATM   15  O   UNL     1      26.549  46.489  54.628  1.00  0.00    -0.350 OA
BRANCH  15  16
HETATM   16  C   UNL     1      27.253  47.404  55.482  1.00  0.00     0.171 C 
HETATM   17  C   UNL     1      26.404  48.648  55.676  1.00  0.00     0.034 C 
ENDBRANCH  15  16
ENDBRANCH  10  15
ENDBRANCH   6   9
ENDBRANCH   3   5
ENDBRANCH   1   3
BRANCH   1  18
HETATM   18  C   UNL     1      25.440  47.780  49.839  1.00  0.00     0.050 A 
HETATM   19  C   UNL     1      24.762  48.850  49.227  1.00  0.00     0.058 A 
HETATM   20  C   UNL     1      25.473  49.841  48.536  1.00  0.00     0.019 A 
HETATM   21  C   UNL     1      26.859  49.763  48.427  1.00  0.00     0.001 A 
HETATM   22  C   UNL     1      27.536  48.689  49.000  1.00  0.00     0.002 A 
HETATM   23  C   UNL     1      26.835  47.708  49.705  1.00  0.00     0.030 A 
BRANCH  19  24
HETATM   24  C   UNL     1      23.279  48.912  49.118  1.00  0.00     0.253 C 
HETATM   25  N   UNL     1      22.736  50.170  49.289  1.00  0.00    -0.357 N 
HETATM   26  H   UNL     1      23.369  50.937  49.484  1.00  0.00     0.162 HD
HETATM   27  O   UNL     1      22.621  47.888  48.998  1.00  0.00    -0.268 OA
BRANCH  25  28
HETATM   28  C   UNL     1      21.327  50.358  49.562  1.00  0.00     0.125 C 
BRANCH  28  29
HETATM   29  C   UNL     1      20.640  51.299  48.585  1.00  0.00     0.046 C 
BRANCH  29  30
HETATM   30  C   UNL     1      19.932  50.552  47.465  1.00  0.00     0.165 C 
BRANCH  30  31
HETATM   31  O   UNL     1      20.337  49.189  47.463  1.00  0.00    -0.401 OA
HETATM   32  H   UNL     1      20.052  48.803  48.310  1.00  0.00     0.209 HD
ENDBRANCH  30  31
ENDBRANCH  29  30
ENDBRANCH  28  29
ENDBRANCH  25  28
ENDBRANCH  19  24
ENDBRANCH   1  18
TORSDOF 11
ENDMDL
MODEL 9
REMARK VINA RESULT:      -7.9      2.257      8.463
REMARK  11 active torsions:
REMARK  status: ('A' for Active; 'I' for Inactive)
REMARK    1  A    between atoms: C_2  and  O_3 
REMARK    2  A    between atoms: O_3  and  C_4 
REMARK    3  A    between atoms: C_5  and  C_6 
REMARK       I    between atoms: C_6  and  N_7 
REMARK    4  A    between atoms: N_7  and  C_8 
REMARK    5  A    between atoms: C_8  and  N_9 
REMARK    6  A    between atoms: N_9  and  C_10 
REMARK    7  A    between atoms: C_11  and  C_12 
REMARK       I    between atoms: C_12  and  N_13 
REMARK    8  A    between atoms: N_13  and  C_14 
REMARK    9  A    between atoms: C_14  and  C_15 
REMARK   10  A    between atoms: C_15  and  C_16 
REMARK   11  A    between atoms: C_16  and  O_17 
ROOT
HETATM    1  N   UNL     1      25.729  44.000  52.191  1.00  0.00    -0.332 N 
HETATM    2  H   UNL     1      25.286  44.296  53.065  1.00  0.00     0.168 HD
ENDROOT
BRANCH   1   3
HETATM    3  C   UNL     1      25.124  44.451  51.048  1.00  0.00     0.179 C 
HETATM    4  S   UNL     1      23.758  43.804  50.331  1.00  0.00    -0.040 SA
BRANCH   3   5
HETATM    5  N   UNL     1      25.724  45.521  50.426  1.00  0.00    -0.299 N 
HETATM    6  C   UNL     1      25.961  46.781  50.971  1.00  0.00     0.260 C 
HETATM    7  O   UNL     1      26.170  46.959  52.166  1.00  0.00    -0.267 OA
HETATM    8  H   UNL     1      25.746  45.429  49.420  1.00  0.00     0.171 HD
BRANCH   6   9
HETATM    9  C   UNL     1      25.978  47.905  49.980  1.00  0.00     0.065 A 
HETATM   10  C   UNL     1      24.813  48.344  49.338  1.00  0.00     0.084 A 
HETATM   11  C   UNL     1      24.860  49.418  48.441  1.00  0.00     0.038 A 
HETATM   12  C   UNL     1      26.076  50.028  48.133  1.00  0.00     0.003 A 
HETATM   13  C   UNL     1      27.249  49.567  48.723  1.00  0.00     0.001 A 
HETATM   14  C   UNL     1      27.203  48.510  49.637  1.00  0.00     0.020 A 
BRANCH  10  15
HETATM   15  O   UNL     1      23.585  47.802  49.606  1.00  0.00    -0.350 OA
BRANCH  15  16
HETATM   16  C   UNL     1      22.532  48.682  49.184  1.00  0.00     0.171 C 
HETATM   17  C   UNL     1      21.386  47.850  48.634  1.00  0.00     0.034 C 
ENDBRANCH  15  16
ENDBRANCH  10  15
ENDBRANCH   6   9
ENDBRANCH   3   5
ENDBRANCH   1   3
BRANCH   1  18
HETATM   18  C   UNL     1      26.818  43.107  52.327  1.00  0.00     0.050 A 
HETATM   19  C   UNL     1      27.650  43.157  53.461  1.00  0.00     0.058 A 
HETATM   20  C   UNL     1      28.603  42.154  53.688  1.00  0.00     0.019 A 
HETATM   21  C   UNL     1      28.753  41.110  52.779  1.00  0.00     0.001 A 
HETATM   22  C   UNL     1      27.958  41.071  51.635  1.00  0.00     0.002 A 
HETATM   23  C   UNL     1      26.995  42.058  51.413  1.00  0.00     0.030 A 
BRANCH  19  24
HETATM   24  C   UNL     1      27.701  44.328  54.377  1.00  0.00     0.253 C 
HETATM   25  N   UNL     1      28.972  44.724  54.745  1.00  0.00    -0.357 N 
HETATM   26  H   UNL     1      29.757  44.193  54.384  1.00  0.00     0.162 HD
HETATM   27  O   UNL     1      26.671  44.804  54.835  1.00  0.00    -0.268 OA
BRANCH  25  28
HETATM   28  C   UNL     1      29.198  45.595  55.878  1.00  0.00     0.125 C 
BRANCH  28  29
HETATM   29  C   UNL     1      30.587  45.459  56.480  1.00  0.00     0.046 C 
BRANCH  29  30
HETATM   30  C   UNL     1      31.062  44.015  56.516  1.00  0.00     0.165 C 
BRANCH  30  31
HETATM   31  O   UNL     1      31.735  43.758  57.743  1.00  0.00    -0.401 OA
HETATM   32  H   UNL     1      31.990  44.620  58.117  1.00  0.00     0.209 HD
ENDBRANCH  30  31
ENDBRANCH  29  30
ENDBRANCH  28  29
ENDBRANCH  25  28
ENDBRANCH  19  24
ENDBRANCH   1  18
TORSDOF 11
ENDMDL
MODEL 10
REMARK VINA RESULT:      -7.8      4.343      7.195
REMARK  11 active torsions:
REMARK  status: ('A' for Active; 'I' for Inactive)
REMARK    1  A    between atoms: C_2  and  O_3 
REMARK    2  A    between atoms: O_3  and  C_4 
REMARK    3  A    between atoms: C_5  and  C_6 
REMARK       I    between atoms: C_6  and  N_7 
REMARK    4  A    between atoms: N_7  and  C_8 
REMARK    5  A    between atoms: C_8  and  N_9 
REMARK    6  A    between atoms: N_9  and  C_10 
REMARK    7  A    between atoms: C_11  and  C_12 
REMARK       I    between atoms: C_12  and  N_13 
REMARK    8  A    between atoms: N_13  and  C_14 
REMARK    9  A    between atoms: C_14  and  C_15 
REMARK   10  A    between atoms: C_15  and  C_16 
REMARK   11  A    between atoms: C_16  and  O_17 
ROOT
HETATM    1  N   UNL     1      26.270  44.307  49.272  1.00  0.00    -0.332 N 
HETATM    2  H   UNL     1      27.037  44.413  48.603  1.00  0.00     0.168 HD
ENDROOT
BRANCH   1   3
HETATM    3  C   UNL     1      26.428  44.984  50.453  1.00  0.00     0.179 C 
HETATM    4  S   UNL     1      25.486  46.255  50.998  1.00  0.00    -0.040 SA
BRANCH   3   5
HETATM    5  N   UNL     1      27.481  44.586  51.243  1.00  0.00    -0.299 N 
HETATM    6  C   UNL     1      27.476  43.570  52.197  1.00  0.00     0.260 C 
HETATM    7  O   UNL     1      26.764  42.576  52.104  1.00  0.00    -0.267 OA
HETATM    8  H   UNL     1      28.219  45.274  51.289  1.00  0.00     0.171 HD
BRANCH   6   9
HETATM    9  C   UNL     1      28.435  43.765  53.332  1.00  0.00     0.065 A 
HETATM   10  C   UNL     1      28.248  44.764  54.297  1.00  0.00     0.084 A 
HETATM   11  C   UNL     1      29.147  44.897  55.362  1.00  0.00     0.038 A 
HETATM   12  C   UNL     1      30.269  44.075  55.445  1.00  0.00     0.003 A 
HETATM   13  C   UNL     1      30.496  43.114  54.464  1.00  0.00     0.001 A 
HETATM   14  C   UNL     1      29.589  42.961  53.412  1.00  0.00     0.020 A 
BRANCH  10  15
HETATM   15  O   UNL     1      27.159  45.594  54.284  1.00  0.00    -0.350 OA
BRANCH  15  16
HETATM   16  C   UNL     1      27.562  46.969  54.369  1.00  0.00     0.171 C 
HETATM   17  C   UNL     1      26.411  47.786  54.930  1.00  0.00     0.034 C 
ENDBRANCH  15  16
ENDBRANCH  10  15
ENDBRANCH   6   9
ENDBRANCH   3   5
ENDBRANCH   1   3
BRANCH   1  18
HETATM   18  C   UNL     1      25.244  43.410  48.893  1.00  0.00     0.050 A 
HETATM   19  C   UNL     1      25.474  42.022  48.878  1.00  0.00     0.058 A 
HETATM   20  C   UNL     1      24.410  41.127  48.692  1.00  0.00     0.019 A 
HETATM   21  C   UNL     1      23.118  41.606  48.494  1.00  0.00     0.001 A 
HETATM   22  C   UNL     1      22.886  42.979  48.472  1.00  0.00     0.002 A 
HETATM   23  C   UNL     1      23.939  43.874  48.674  1.00  0.00     0.030 A 
BRANCH  19  24
HETATM   24  C   UNL     1      26.837  41.427  48.881  1.00  0.00     0.253 C 
HETATM   25  N   UNL     1      27.044  40.451  49.838  1.00  0.00    -0.357 N 
HETATM   26  H   UNL     1      26.276  40.227  50.460  1.00  0.00     0.162 HD
HETATM   27  O   UNL     1      27.712  41.873  48.153  1.00  0.00    -0.268 OA
BRANCH  25  28
HETATM   28  C   UNL     1      28.375  40.025  50.212  1.00  0.00     0.125 C 
BRANCH  28  29
HETATM   29  C   UNL     1      28.731  38.634  49.708  1.00  0.00     0.046 C 
BRANCH  29  30
HETATM   30  C   UNL     1      29.952  38.061  50.410  1.00  0.00     0.165 C 
BRANCH  30  31
HETATM   31  O   UNL     1      31.116  38.305  49.631  1.00  0.00    -0.401 OA
HETATM   32  H   UNL     1      30.900  39.022  49.008  1.00  0.00     0.209 HD
ENDBRANCH  30  31
ENDBRANCH  29  30
ENDBRANCH  28  29
ENDBRANCH  25  28
ENDBRANCH  19  24
ENDBRANCH   1  18
TORSDOF 11
ENDMDL
