MODEL 1
REMARK VINA RESULT:     -10.8      0.000      0.000
REMARK  9 active torsions:
REMARK  status: ('A' for Active; 'I' for Inactive)
REMARK    1  A    between atoms: C_2  and  C_3 
REMARK    2  A    between atoms: C_4  and  N_5 
REMARK       I    between atoms: N_5  and  C_6 
REMARK    3  A    between atoms: C_6  and  C_7 
REMARK    4  A    between atoms: C_7  and  N_8 
REMARK    5  A    between atoms: N_12  and  C_13 
REMARK    6  A    between atoms: C_15  and  N_16 
REMARK    7  A    between atoms: N_16  and  C_17 
REMARK    8  A    between atoms: C_24  and  N_25 
REMARK    9  A    between atoms: N_25  and  C_26 
ROOT
HETATM    1  C   UNL     1      24.276  47.394  49.486  1.00  0.00     0.240 A 
HETATM    2  N   UNL     1      23.804  48.558  49.897  1.00  0.00    -0.030 NA
HETATM    3  C   UNL     1      22.574  48.877  49.505  1.00  0.00     0.745 A 
HETATM    4  N   UNL     1      21.824  48.104  48.735  1.00  0.00     0.131 NA
HETATM    5  C   UNL     1      22.345  46.925  48.415  1.00  0.00     0.745 A 
HETATM    6  N   UNL     1      23.587  46.571  48.720  1.00  0.00    -0.030 NA
ENDROOT
BRANCH   1   7
HETATM    7  N   UNL     1      25.581  47.032  49.831  1.00  0.00    -0.247 NA
HETATM    8  C   UNL     1      25.976  45.659  49.482  1.00  0.00     0.126 C 
HETATM    9  C   UNL     1      25.454  44.627  50.505  1.00  0.00     0.250 C 
HETATM   10  N   UNL     1      25.847  45.043  51.916  1.00  0.00    -0.060 N 
HETATM   11  H   UNL     1      26.880  45.076  51.974  1.00  0.00     0.280 HD
HETATM   12  C   UNL     1      25.385  46.469  52.241  1.00  0.00     0.250 C 
HETATM   13  C   UNL     1      25.946  47.458  51.193  1.00  0.00     0.126 C 
BRANCH  10  14
HETATM   14  C   UNL     1      25.441  44.026  52.977  1.00  0.00     0.337 C 
BRANCH  14  15
HETATM   15  C   UNL     1      26.460  44.019  54.121  1.00  0.00     0.248 C 
HETATM   16  N   UNL     1      27.695  44.544  53.793  1.00  0.00    -0.325 N 
HETATM   17  H   UNL     1      27.942  44.521  52.811  1.00  0.00     0.169 HD
HETATM   18  O   UNL     1      26.124  43.514  55.193  1.00  0.00    -0.271 OA
BRANCH  16  19
HETATM   19  C   UNL     1      28.803  44.488  54.677  1.00  0.00     0.047 A 
HETATM   20  C   UNL     1      28.968  45.398  55.745  1.00  0.00    -0.031 A 
HETATM   21  C   UNL     1      30.077  45.242  56.599  1.00  0.00     0.009 A 
HETATM   22  C   UNL     1      31.015  44.237  56.389  1.00  0.00     0.001 A 
HETATM   23  C   UNL     1      30.880  43.383  55.302  1.00  0.00     0.009 A 
HETATM   24  C   UNL     1      29.788  43.501  54.430  1.00  0.00    -0.035 A 
HETATM   25  C   UNL     1      29.695  42.530  53.282  1.00  0.00     0.050 C 
BRANCH  20  26
HETATM   26  C   UNL     1      28.126  46.641  55.952  1.00  0.00     0.036 C 
HETATM   27  C   UNL     1      28.151  47.552  54.731  1.00  0.00     0.010 C 
ENDBRANCH  20  26
ENDBRANCH  16  19
ENDBRANCH  14  15
ENDBRANCH  10  14
ENDBRANCH   1   7
BRANCH   3  28
HETATM   28  N   UNL     1      22.043  50.123  49.833  1.00  0.00    -0.188 N 
HETATM   29  H   UNL     1      22.781  50.782  50.040  1.00  0.00     0.184 HD
BRANCH  28  30
HETATM   30  C   UNL     1      20.780  50.684  49.593  1.00  0.00     0.049 A 
HETATM   31  C   UNL     1      20.650  51.633  48.568  1.00  0.00     0.030 A 
HETATM   32  C   UNL     1      19.427  52.263  48.319  1.00  0.00     0.002 A 
HETATM   33  C   UNL     1      18.314  51.955  49.096  1.00  0.00     0.000 A 
HETATM   34  C   UNL     1      18.425  51.022  50.123  1.00  0.00     0.002 A 
HETATM   35  C   UNL     1      19.652  50.401  50.373  1.00  0.00     0.030 A 
ENDBRANCH  28  30
ENDBRANCH   3  28
BRANCH   5  36
HETATM   36  N   UNL     1      21.528  46.068  47.676  1.00  0.00    -0.188 N 
HETATM   37  H   UNL     1      22.070  45.622  46.946  1.00  0.00     0.184 HD
BRANCH  36  38
HETATM   38  C   UNL     1      20.150  46.139  47.399  1.00  0.00     0.049 A 
HETATM   39  C   UNL     1      19.158  45.675  48.271  1.00  0.00     0.030 A 
HETATM   40  C   UNL     1      17.803  45.748  47.933  1.00  0.00     0.002 A 
HETATM   41  C   UNL     1      17.418  46.268  46.702  1.00  0.00     0.000 A 
HETATM   42  C   UNL     1      18.388  46.709  45.808  1.00  0.00     0.002 A 
HETATM   43  C   UNL     1      19.742  46.639  46.153  1.00  0.00     0.030 A 
ENDBRANCH  36  38
ENDBRANCH   5  36
TORSDOF 9
ENDMDL
MODEL 2
REMARK VINA RESULT:     -10.8      0.104      3.561
REMARK  9 active torsions:
REMARK  status: ('A' for Active; 'I' for Inactive)
REMARK    1  A    between atoms: C_2  and  C_3 
REMARK    2  A    between atoms: C_4  and  N_5 
REMARK       I    between atoms: N_5  and  C_6 
REMARK    3  A    between atoms: C_6  and  C_7 
REMARK    4  A    between atoms: C_7  and  N_8 
REMARK    5  A    between atoms: N_12  and  C_13 
REMARK    6  A    between atoms: C_15  and  N_16 
REMARK    7  A    between atoms: N_16  and  C_17 
REMARK    8  A    between atoms: C_24  and  N_25 
REMARK    9  A    between atoms: N_25  and  C_26 
ROOT
HETATM    1  C   UNL     1      24.246  47.333  49.424  1.00  0.00     0.240 A 
HETATM    2  N   UNL     1      23.496  46.501  48.724  1.00  0.00    -0.030 NA
HETATM    3  C   UNL     1      22.252  46.892  48.462  1.00  0.00     0.745 A 
HETATM    4  N   UNL     1      21.742  48.043  48.870  1.00  0.00     0.131 NA
HETATM    5  C   UNL     1      22.576  48.850  49.516  1.00  0.00     0.745 A 
HETATM    6  N   UNL     1      23.808  48.497  49.862  1.00  0.00    -0.030 NA
ENDROOT
BRANCH   1   7
HETATM    7  N   UNL     1      25.545  46.950  49.767  1.00  0.00    -0.247 NA
HETATM    8  C   UNL     1      25.903  45.557  49.459  1.00  0.00     0.126 C 
HETATM    9  C   UNL     1      25.367  44.573  50.522  1.00  0.00     0.250 C 
HETATM   10  N   UNL     1      25.786  45.025  51.913  1.00  0.00    -0.060 N 
HETATM   11  H   UNL     1      26.820  45.033  51.960  1.00  0.00     0.280 HD
HETATM   12  C   UNL     1      25.362  46.472  52.197  1.00  0.00     0.250 C 
HETATM   13  C   UNL     1      25.936  47.412  51.110  1.00  0.00     0.126 C 
BRANCH  10  14
HETATM   14  C   UNL     1      25.368  44.053  53.012  1.00  0.00     0.337 C 
BRANCH  14  15
HETATM   15  C   UNL     1      26.416  44.032  54.128  1.00  0.00     0.248 C 
HETATM   16  N   UNL     1      27.643  44.559  53.774  1.00  0.00    -0.325 N 
HETATM   17  H   UNL     1      27.864  44.546  52.785  1.00  0.00     0.169 HD
HETATM   18  O   UNL     1      26.108  43.516  55.203  1.00  0.00    -0.271 OA
BRANCH  16  19
HETATM   19  C   UNL     1      28.774  44.492  54.627  1.00  0.00     0.047 A 
HETATM   20  C   UNL     1      28.974  45.395  55.694  1.00  0.00    -0.031 A 
HETATM   21  C   UNL     1      30.105  45.228  56.517  1.00  0.00     0.009 A 
HETATM   22  C   UNL     1      31.030  44.218  56.277  1.00  0.00     0.001 A 
HETATM   23  C   UNL     1      30.860  43.369  55.191  1.00  0.00     0.009 A 
HETATM   24  C   UNL     1      29.745  43.499  54.349  1.00  0.00    -0.035 A 
HETATM   25  C   UNL     1      29.614  42.533  53.200  1.00  0.00     0.050 C 
BRANCH  20  26
HETATM   26  C   UNL     1      28.146  46.644  55.929  1.00  0.00     0.036 C 
HETATM   27  C   UNL     1      28.203  47.592  54.738  1.00  0.00     0.010 C 
ENDBRANCH  20  26
ENDBRANCH  16  19
ENDBRANCH  14  15
ENDBRANCH  10  14
ENDBRANCH   1   7
BRANCH   3  28
HETATM   28  N   UNL     1      21.380  46.032  47.797  1.00  0.00    -0.188 N 
HETATM   29  H   UNL     1      21.698  45.075  47.870  1.00  0.00     0.184 HD
BRANCH  28  30
HETATM   30  C   UNL     1      20.050  46.197  47.387  1.00  0.00     0.049 A 
HETATM   31  C   UNL     1      19.027  45.678  48.194  1.00  0.00     0.030 A 
HETATM   32  C   UNL     1      17.686  45.768  47.808  1.00  0.00     0.002 A 
HETATM   33  C   UNL     1      17.348  46.377  46.604  1.00  0.00     0.000 A 
HETATM   34  C   UNL     1      18.349  46.891  45.784  1.00  0.00     0.002 A 
HETATM   35  C   UNL     1      19.688  46.791  46.171  1.00  0.00     0.030 A 
ENDBRANCH  28  30
ENDBRANCH   3  28
BRANCH   5  36
HETATM   36  N   UNL     1      22.074  50.102  49.874  1.00  0.00    -0.188 N 
HETATM   37  H   UNL     1      22.453  50.380  50.770  1.00  0.00     0.184 HD
BRANCH  36  38
HETATM   38  C   UNL     1      20.844  50.711  49.562  1.00  0.00     0.049 A 
HETATM   39  C   UNL     1      20.680  51.646  48.533  1.00  0.00     0.030 A 
HETATM   40  C   UNL     1      19.437  52.239  48.283  1.00  0.00     0.002 A 
HETATM   41  C   UNL     1      18.341  51.923  49.079  1.00  0.00     0.000 A 
HETATM   42  C   UNL     1      18.488  51.018  50.125  1.00  0.00     0.002 A 
HETATM   43  C   UNL     1      19.731  50.423  50.366  1.00  0.00     0.030 A 
ENDBRANCH  36  38
ENDBRANCH   5  36
TORSDOF 9
ENDMDL
MODEL 3
REMARK VINA RESULT:     -10.6      0.854      2.089
REMARK  9 active torsions:
REMARK  status: ('A' for Active; 'I' for Inactive)
REMARK    1  A    between atoms: C_2  and  C_3 
REMARK    2  A    between atoms: C_4  and  N_5 
REMARK       I    between atoms: N_5  and  C_6 
REMARK    3  A    between atoms: C_6  and  C_7 
REMARK    4  A    between atoms: C_7  and  N_8 
REMARK    5  A    between atoms: N_12  and  C_13 
REMARK    6  A    between atoms: C_15  and  N_16 
REMARK    7  A    between atoms: N_16  and  C_17 
REMARK    8  A    between atoms: C_24  and  N_25 
REMARK    9  A    between atoms: N_25  and  C_26 
ROOT
HETATM    1  C   UNL     1      24.130  47.383  49.442  1.00  0.00     0.240 A 
HETATM    2  N   UNL     1      23.700  48.564  49.850  1.00  0.00    -0.030 NA
HETATM    3  C   UNL     1      22.474  48.917  49.475  1.00  0.00     0.745 A 
HETATM    4  N   UNL     1      21.688  48.161  48.724  1.00  0.00     0.131 NA
HETATM    5  C   UNL     1      22.168  46.964  48.406  1.00  0.00     0.745 A 
HETATM    6  N   UNL     1      23.403  46.576  48.694  1.00  0.00    -0.030 NA
ENDROOT
BRANCH   1   7
HETATM    7  N   UNL     1      25.429  46.985  49.768  1.00  0.00    -0.247 NA
HETATM    8  C   UNL     1      25.759  45.583  49.474  1.00  0.00     0.126 C 
HETATM    9  C   UNL     1      25.226  44.621  50.559  1.00  0.00     0.250 C 
HETATM   10  N   UNL     1      25.675  45.085  51.937  1.00  0.00    -0.060 N 
HETATM   11  H   UNL     1      26.710  45.078  51.966  1.00  0.00     0.280 HD
HETATM   12  C   UNL     1      25.279  46.542  52.207  1.00  0.00     0.250 C 
HETATM   13  C   UNL     1      25.849  47.459  51.098  1.00  0.00     0.126 C 
BRANCH  10  14
HETATM   14  C   UNL     1      25.261  44.135  53.055  1.00  0.00     0.337 C 
BRANCH  14  15
HETATM   15  C   UNL     1      26.343  44.087  54.138  1.00  0.00     0.248 C 
HETATM   16  N   UNL     1      27.563  44.607  53.753  1.00  0.00    -0.325 N 
HETATM   17  H   UNL     1      27.754  44.607  52.758  1.00  0.00     0.169 HD
HETATM   18  O   UNL     1      26.062  43.559  55.215  1.00  0.00    -0.271 OA
BRANCH  16  19
HETATM   19  C   UNL     1      28.719  44.516  54.570  1.00  0.00     0.047 A 
HETATM   20  C   UNL     1      29.513  43.349  54.635  1.00  0.00    -0.031 A 
HETATM   21  C   UNL     1      30.668  43.361  55.440  1.00  0.00     0.009 A 
HETATM   22  C   UNL     1      31.015  44.482  56.188  1.00  0.00     0.001 A 
HETATM   23  C   UNL     1      30.200  45.605  56.168  1.00  0.00     0.009 A 
HETATM   24  C   UNL     1      29.043  45.636  55.375  1.00  0.00    -0.035 A 
HETATM   25  C   UNL     1      28.213  46.894  55.388  1.00  0.00     0.050 C 
BRANCH  20  26
HETATM   26  C   UNL     1      29.128  42.015  54.025  1.00  0.00     0.036 C 
HETATM   27  C   UNL     1      29.481  41.947  52.545  1.00  0.00     0.010 C 
ENDBRANCH  20  26
ENDBRANCH  16  19
ENDBRANCH  14  15
ENDBRANCH  10  14
ENDBRANCH   1   7
BRANCH   3  28
HETATM   28  N   UNL     1      21.986  50.181  49.802  1.00  0.00    -0.188 N 
HETATM   29  H   UNL     1      22.746  50.813  50.013  1.00  0.00     0.184 HD
BRANCH  28  30
HETATM   30  C   UNL     1      20.746  50.787  49.555  1.00  0.00     0.049 A 
HETATM   31  C   UNL     1      20.633  51.675  48.474  1.00  0.00     0.030 A 
HETATM   32  C   UNL     1      19.436  52.347  48.214  1.00  0.00     0.002 A 
HETATM   33  C   UNL     1      18.330  52.145  49.033  1.00  0.00     0.000 A 
HETATM   34  C   UNL     1      18.424  51.274  50.116  1.00  0.00     0.002 A 
HETATM   35  C   UNL     1      19.626  50.611  50.377  1.00  0.00     0.030 A 
ENDBRANCH  28  30
ENDBRANCH   3  28
BRANCH   5  36
HETATM   36  N   UNL     1      21.313  46.126  47.688  1.00  0.00    -0.188 N 
HETATM   37  H   UNL     1      21.390  45.179  48.036  1.00  0.00     0.184 HD
BRANCH  36  38
HETATM   38  C   UNL     1      20.866  46.210  46.356  1.00  0.00     0.049 A 
HETATM   39  C   UNL     1      19.674  46.838  45.976  1.00  0.00     0.030 A 
HETATM   40  C   UNL     1      19.264  46.869  44.639  1.00  0.00     0.002 A 
HETATM   41  C   UNL     1      20.033  46.248  43.660  1.00  0.00     0.000 A 
HETATM   42  C   UNL     1      21.206  45.593  44.019  1.00  0.00     0.002 A 
HETATM   43  C   UNL     1      21.615  45.571  45.357  1.00  0.00     0.030 A 
ENDBRANCH  36  38
ENDBRANCH   5  36
TORSDOF 9
ENDMDL
MODEL 4
REMARK VINA RESULT:     -10.1      2.991     11.116
REMARK  9 active torsions:
REMARK  status: ('A' for Active; 'I' for Inactive)
REMARK    1  A    between atoms: C_2  and  C_3 
REMARK    2  A    between atoms: C_4  and  N_5 
REMARK       I    between atoms: N_5  and  C_6 
REMARK    3  A    between atoms: C_6  and  C_7 
REMARK    4  A    between atoms: C_7  and  N_8 
REMARK    5  A    between atoms: N_12  and  C_13 
REMARK    6  A    between atoms: C_15  and  N_16 
REMARK    7  A    between atoms: N_16  and  C_17 
REMARK    8  A    between atoms: C_24  and  N_25 
REMARK    9  A    between atoms: N_25  and  C_26 
ROOT
HETATM    1  C   UNL     1      27.040  43.111  52.899  1.00  0.00     0.240 A 
HETATM    2  N   UNL     1      27.235  41.923  52.355  1.00  0.00    -0.030 NA
HETATM    3  C   UNL     1      28.469  41.432  52.414  1.00  0.00     0.745 A 
HETATM    4  N   UNL     1      29.488  42.069  52.972  1.00  0.00     0.131 NA
HETATM    5  C   UNL     1      29.199  43.229  53.550  1.00  0.00     0.745 A 
HETATM    6  N   UNL     1      28.005  43.802  53.474  1.00  0.00    -0.030 NA
ENDROOT
BRANCH   1   7
HETATM    7  N   UNL     1      25.773  43.693  52.822  1.00  0.00    -0.247 NA
HETATM    8  C   UNL     1      25.200  43.800  51.472  1.00  0.00     0.126 C 
HETATM    9  C   UNL     1      25.767  45.009  50.696  1.00  0.00     0.250 C 
HETATM   10  N   UNL     1      25.629  46.276  51.527  1.00  0.00    -0.060 N 
HETATM   11  H   UNL     1      24.624  46.442  51.712  1.00  0.00     0.280 HD
HETATM   12  C   UNL     1      26.269  46.124  52.913  1.00  0.00     0.250 C 
HETATM   13  C   UNL     1      25.656  44.908  53.647  1.00  0.00     0.126 C 
BRANCH  10  14
HETATM   14  C   UNL     1      26.088  47.531  50.791  1.00  0.00     0.337 C 
BRANCH  14  15
HETATM   15  C   UNL     1      25.060  47.926  49.727  1.00  0.00     0.248 C 
HETATM   16  N   UNL     1      23.766  47.530  50.003  1.00  0.00    -0.325 N 
HETATM   17  H   UNL     1      23.667  46.733  50.622  1.00  0.00     0.169 HD
HETATM   18  O   UNL     1      25.464  48.504  48.717  1.00  0.00    -0.271 OA
BRANCH  16  19
HETATM   19  C   UNL     1      22.709  47.679  49.069  1.00  0.00     0.047 A 
HETATM   20  C   UNL     1      22.106  48.928  48.799  1.00  0.00    -0.031 A 
HETATM   21  C   UNL     1      21.092  48.991  47.824  1.00  0.00     0.009 A 
HETATM   22  C   UNL     1      20.661  47.850  47.155  1.00  0.00     0.001 A 
HETATM   23  C   UNL     1      21.215  46.616  47.467  1.00  0.00     0.009 A 
HETATM   24  C   UNL     1      22.231  46.510  48.429  1.00  0.00    -0.035 A 
HETATM   25  C   UNL     1      22.799  45.142  48.705  1.00  0.00     0.050 C 
BRANCH  20  26
HETATM   26  C   UNL     1      22.355  50.192  49.598  1.00  0.00     0.036 C 
HETATM   27  C   UNL     1      23.132  51.226  48.795  1.00  0.00     0.010 C 
ENDBRANCH  20  26
ENDBRANCH  16  19
ENDBRANCH  14  15
ENDBRANCH  10  14
ENDBRANCH   1   7
BRANCH   3  28
HETATM   28  N   UNL     1      28.765  40.221  51.791  1.00  0.00    -0.188 N 
HETATM   29  H   UNL     1      28.848  39.480  52.473  1.00  0.00     0.184 HD
BRANCH  28  30
HETATM   30  C   UNL     1      28.619  39.805  50.460  1.00  0.00     0.049 A 
HETATM   31  C   UNL     1      29.084  38.531  50.098  1.00  0.00     0.030 A 
HETATM   32  C   UNL     1      29.012  38.085  48.775  1.00  0.00     0.002 A 
HETATM   33  C   UNL     1      28.477  38.910  47.790  1.00  0.00     0.000 A 
HETATM   34  C   UNL     1      28.018  40.180  48.127  1.00  0.00     0.002 A 
HETATM   35  C   UNL     1      28.100  40.624  49.450  1.00  0.00     0.030 A 
ENDBRANCH  28  30
ENDBRANCH   3  28
BRANCH   5  36
HETATM   36  N   UNL     1      30.248  43.866  54.216  1.00  0.00    -0.188 N 
HETATM   37  H   UNL     1      31.131  43.588  53.807  1.00  0.00     0.184 HD
BRANCH  36  38
HETATM   38  C   UNL     1      30.348  44.297  55.551  1.00  0.00     0.049 A 
HETATM   39  C   UNL     1      29.670  45.413  56.059  1.00  0.00     0.030 A 
HETATM   40  C   UNL     1      29.827  45.812  57.391  1.00  0.00     0.002 A 
HETATM   41  C   UNL     1      30.686  45.113  58.232  1.00  0.00     0.000 A 
HETATM   42  C   UNL     1      31.390  44.018  57.741  1.00  0.00     0.002 A 
HETATM   43  C   UNL     1      31.225  43.619  56.410  1.00  0.00     0.030 A 
ENDBRANCH  36  38
ENDBRANCH   5  36
TORSDOF 9
ENDMDL
MODEL 5
REMARK VINA RESULT:     -10.0      1.528      1.894
REMARK  9 active torsions:
REMARK  status: ('A' for Active; 'I' for Inactive)
REMARK    1  A    between atoms: C_2  and  C_3 
REMARK    2  A    between atoms: C_4  and  N_5 
REMARK       I    between atoms: N_5  and  C_6 
REMARK    3  A    between atoms: C_6  and  C_7 
REMARK    4  A    between atoms: C_7  and  N_8 
REMARK    5  A    between atoms: N_12  and  C_13 
REMARK    6  A    between atoms: C_15  and  N_16 
REMARK    7  A    between atoms: N_16  and  C_17 
REMARK    8  A    between atoms: C_24  and  N_25 
REMARK    9  A    between atoms: N_25  and  C_26 
ROOT
HETATM    1  C   UNL     1      23.984  46.895  49.366  1.00  0.00     0.240 A 
HETATM    2  N   UNL     1      23.648  48.130  49.697  1.00  0.00    -0.030 NA
HETATM    3  C   UNL     1      22.447  48.548  49.308  1.00  0.00     0.745 A 
HETATM    4  N   UNL     1      21.599  47.805  48.614  1.00  0.00     0.131 NA
HETATM    5  C   UNL     1      21.984  46.557  48.374  1.00  0.00     0.745 A 
HETATM    6  N   UNL     1      23.190  46.096  48.679  1.00  0.00    -0.030 NA
ENDROOT
BRANCH   1   7
HETATM    7  N   UNL     1      25.253  46.423  49.709  1.00  0.00    -0.247 NA
HETATM    8  C   UNL     1      25.396  44.960  49.766  1.00  0.00     0.126 C 
HETATM    9  C   UNL     1      24.856  44.376  51.090  1.00  0.00     0.250 C 
HETATM   10  N   UNL     1      25.474  45.103  52.275  1.00  0.00    -0.060 N 
HETATM   11  H   UNL     1      26.500  44.968  52.246  1.00  0.00     0.280 HD
HETATM   12  C   UNL     1      25.270  46.621  52.184  1.00  0.00     0.250 C 
HETATM   13  C   UNL     1      25.840  47.151  50.847  1.00  0.00     0.126 C 
BRANCH  10  14
HETATM   14  C   UNL     1      25.056  44.522  53.621  1.00  0.00     0.337 C 
BRANCH  14  15
HETATM   15  C   UNL     1      26.291  44.138  54.440  1.00  0.00     0.248 C 
HETATM   16  N   UNL     1      27.471  44.708  54.002  1.00  0.00    -0.325 N 
HETATM   17  H   UNL     1      27.497  44.984  53.027  1.00  0.00     0.169 HD
HETATM   18  O   UNL     1      26.148  43.335  55.363  1.00  0.00    -0.271 OA
BRANCH  16  19
HETATM   19  C   UNL     1      28.733  44.355  54.544  1.00  0.00     0.047 A 
HETATM   20  C   UNL     1      29.277  44.996  55.679  1.00  0.00    -0.031 A 
HETATM   21  C   UNL     1      30.518  44.552  56.175  1.00  0.00     0.009 A 
HETATM   22  C   UNL     1      31.220  43.526  55.551  1.00  0.00     0.001 A 
HETATM   23  C   UNL     1      30.709  42.940  54.401  1.00  0.00     0.009 A 
HETATM   24  C   UNL     1      29.474  43.349  53.877  1.00  0.00    -0.035 A 
HETATM   25  C   UNL     1      28.971  42.658  52.636  1.00  0.00     0.050 C 
BRANCH  20  26
HETATM   26  C   UNL     1      28.702  46.245  56.318  1.00  0.00     0.036 C 
HETATM   27  C   UNL     1      28.808  46.204  57.837  1.00  0.00     0.010 C 
ENDBRANCH  20  26
ENDBRANCH  16  19
ENDBRANCH  14  15
ENDBRANCH  10  14
ENDBRANCH   1   7
BRANCH   3  28
HETATM   28  N   UNL     1      22.059  49.864  49.552  1.00  0.00    -0.188 N 
HETATM   29  H   UNL     1      22.859  50.481  49.540  1.00  0.00     0.184 HD
BRANCH  28  30
HETATM   30  C   UNL     1      20.809  50.493  49.458  1.00  0.00     0.049 A 
HETATM   31  C   UNL     1      20.670  51.587  48.590  1.00  0.00     0.030 A 
HETATM   32  C   UNL     1      19.462  52.284  48.495  1.00  0.00     0.002 A 
HETATM   33  C   UNL     1      18.374  51.901  49.272  1.00  0.00     0.000 A 
HETATM   34  C   UNL     1      18.494  50.824  50.145  1.00  0.00     0.002 A 
HETATM   35  C   UNL     1      19.706  50.135  50.243  1.00  0.00     0.030 A 
ENDBRANCH  28  30
ENDBRANCH   3  28
BRANCH   5  36
HETATM   36  N   UNL     1      21.061  45.740  47.719  1.00  0.00    -0.188 N 
HETATM   37  H   UNL     1      20.125  45.958  48.037  1.00  0.00     0.184 HD
BRANCH  36  38
HETATM   38  C   UNL     1      21.201  44.435  47.212  1.00  0.00     0.049 A 
HETATM   39  C   UNL     1      22.330  43.636  47.428  1.00  0.00     0.030 A 
HETATM   40  C   UNL     1      22.427  42.353  46.877  1.00  0.00     0.002 A 
HETATM   41  C   UNL     1      21.402  41.858  46.079  1.00  0.00     0.000 A 
HETATM   42  C   UNL     1      20.283  42.646  45.827  1.00  0.00     0.002 A 
HETATM   43  C   UNL     1      20.188  43.925  46.386  1.00  0.00     0.030 A 
ENDBRANCH  36  38
ENDBRANCH   5  36
TORSDOF 9
ENDMDL
MODEL 6
REMARK VINA RESULT:      -9.9      1.317      4.552
REMARK  9 active torsions:
REMARK  status: ('A' for Active; 'I' for Inactive)
REMARK    1  A    between atoms: C_2  and  C_3 
REMARK    2  A    between atoms: C_4  and  N_5 
REMARK       I    between atoms: N_5  and  C_6 
REMARK    3  A    between atoms: C_6  and  C_7 
REMARK    4  A    between atoms: C_7  and  N_8 
REMARK    5  A    between atoms: N_12  and  C_13 
REMARK    6  A    between atoms: C_15  and  N_16 
REMARK    7  A    between atoms: N_16  and  C_17 
REMARK    8  A    between atoms: C_24  and  N_25 
REMARK    9  A    between atoms: N_25  and  C_26 
ROOT
HETATM    1  C   UNL     1      23.860  46.724  49.254  1.00  0.00     0.240 A 
HETATM    2  N   UNL     1      23.022  45.941  48.599  1.00  0.00    -0.030 NA
HETATM    3  C   UNL     1      21.819  46.442  48.333  1.00  0.00     0.745 A 
HETATM    4  N   UNL     1      21.431  47.655  48.693  1.00  0.00     0.131 NA
HETATM    5  C   UNL     1      22.351  48.403  49.293  1.00  0.00     0.745 A 
HETATM    6  N   UNL     1      23.546  47.945  49.643  1.00  0.00    -0.030 NA
ENDROOT
BRANCH   1   7
HETATM    7  N   UNL     1      25.120  46.230  49.600  1.00  0.00    -0.247 NA
HETATM    8  C   UNL     1      25.183  44.790  49.893  1.00  0.00     0.126 C 
HETATM    9  C   UNL     1      24.698  44.467  51.324  1.00  0.00     0.250 C 
HETATM   10  N   UNL     1      25.434  45.335  52.334  1.00  0.00    -0.060 N 
HETATM   11  H   UNL     1      26.446  45.128  52.272  1.00  0.00     0.280 HD
HETATM   12  C   UNL     1      25.312  46.828  52.003  1.00  0.00     0.250 C 
HETATM   13  C   UNL     1      25.821  47.093  50.566  1.00  0.00     0.126 C 
BRANCH  10  14
HETATM   14  C   UNL     1      25.072  45.012  53.780  1.00  0.00     0.337 C 
BRANCH  14  15
HETATM   15  C   UNL     1      26.281  44.420  54.509  1.00  0.00     0.248 C 
HETATM   16  N   UNL     1      27.484  45.034  54.218  1.00  0.00    -0.325 N 
HETATM   17  H   UNL     1      27.535  45.512  53.327  1.00  0.00     0.169 HD
HETATM   18  O   UNL     1      26.099  43.442  55.235  1.00  0.00    -0.271 OA
BRANCH  16  19
HETATM   19  C   UNL     1      28.726  44.532  54.685  1.00  0.00     0.047 A 
HETATM   20  C   UNL     1      29.392  43.454  54.060  1.00  0.00    -0.031 A 
HETATM   21  C   UNL     1      30.642  43.048  54.566  1.00  0.00     0.009 A 
HETATM   22  C   UNL     1      31.207  43.666  55.677  1.00  0.00     0.001 A 
HETATM   23  C   UNL     1      30.520  44.684  56.324  1.00  0.00     0.009 A 
HETATM   24  C   UNL     1      29.275  45.122  55.850  1.00  0.00    -0.035 A 
HETATM   25  C   UNL     1      28.594  46.244  56.591  1.00  0.00     0.050 C 
BRANCH  20  26
HETATM   26  C   UNL     1      28.787  42.584  52.975  1.00  0.00     0.036 C 
HETATM   27  C   UNL     1      28.386  41.214  53.507  1.00  0.00     0.010 C 
ENDBRANCH  20  26
ENDBRANCH  16  19
ENDBRANCH  14  15
ENDBRANCH  10  14
ENDBRANCH   1   7
BRANCH   3  28
HETATM   28  N   UNL     1      20.857  45.644  47.716  1.00  0.00    -0.188 N 
HETATM   29  H   UNL     1      20.011  45.613  48.270  1.00  0.00     0.184 HD
BRANCH  28  30
HETATM   30  C   UNL     1      20.728  45.205  46.391  1.00  0.00     0.049 A 
HETATM   31  C   UNL     1      20.076  43.987  46.145  1.00  0.00     0.030 A 
HETATM   32  C   UNL     1      19.966  43.476  44.849  1.00  0.00     0.002 A 
HETATM   33  C   UNL     1      20.511  44.174  43.776  1.00  0.00     0.000 A 
HETATM   34  C   UNL     1      21.170  45.380  44.000  1.00  0.00     0.002 A 
HETATM   35  C   UNL     1      21.285  45.883  45.299  1.00  0.00     0.030 A 
ENDBRANCH  28  30
ENDBRANCH   3  28
BRANCH   5  36
HETATM   36  N   UNL     1      21.979  49.713  49.599  1.00  0.00    -0.188 N 
HETATM   37  H   UNL     1      22.317  49.959  50.521  1.00  0.00     0.184 HD
BRANCH  36  38
HETATM   38  C   UNL     1      20.864  50.463  49.182  1.00  0.00     0.049 A 
HETATM   39  C   UNL     1      20.497  50.628  47.841  1.00  0.00     0.030 A 
HETATM   40  C   UNL     1      19.391  51.406  47.482  1.00  0.00     0.002 A 
HETATM   41  C   UNL     1      18.646  52.053  48.462  1.00  0.00     0.000 A 
HETATM   42  C   UNL     1      19.009  51.926  49.799  1.00  0.00     0.002 A 
HETATM   43  C   UNL     1      20.112  51.141  50.153  1.00  0.00     0.030 A 
ENDBRANCH  36  38
ENDBRANCH   5  36
TORSDOF 9
ENDMDL
MODEL 7
REMARK VINA RESULT:      -9.5      2.948     10.868
REMARK  9 active torsions:
REMARK  status: ('A' for Active; 'I' for Inactive)
REMARK    1  A    between atoms: C_2  and  C_3 
REMARK    2  A    between atoms: C_4  and  N_5 
REMARK       I    between atoms: N_5  and  C_6 
REMARK    3  A    between atoms: C_6  and  C_7 
REMARK    4  A    between atoms: C_7  and  N_8 
REMARK    5  A    between atoms: N_12  and  C_13 
REMARK    6  A    between atoms: C_15  and  N_16 
REMARK    7  A    between atoms: N_16  and  C_17 
REMARK    8  A    between atoms: C_24  and  N_25 
REMARK    9  A    between atoms: N_25  and  C_26 
ROOT
HETATM    1  C   UNL     1      27.234  43.052  53.061  1.00  0.00     0.240 A 
HETATM    2  N   UNL     1      27.365  42.081  52.175  1.00  0.00    -0.030 NA
HETATM    3  C   UNL     1      28.572  41.537  52.055  1.00  0.00     0.745 A 
HETATM    4  N   UNL     1      29.625  41.923  52.760  1.00  0.00     0.131 NA
HETATM    5  C   UNL     1      29.400  42.862  53.672  1.00  0.00     0.745 A 
HETATM    6  N   UNL     1      28.236  43.487  53.800  1.00  0.00    -0.030 NA
ENDROOT
BRANCH   1   7
HETATM    7  N   UNL     1      25.998  43.689  53.192  1.00  0.00    -0.247 NA
HETATM    8  C   UNL     1      25.222  43.839  51.952  1.00  0.00     0.126 C 
HETATM    9  C   UNL     1      25.710  45.032  51.102  1.00  0.00     0.250 C 
HETATM   10  N   UNL     1      25.764  46.293  51.952  1.00  0.00    -0.060 N 
HETATM   11  H   UNL     1      24.810  46.499  52.297  1.00  0.00     0.280 HD
HETATM   12  C   UNL     1      26.611  46.095  53.216  1.00  0.00     0.250 C 
HETATM   13  C   UNL     1      26.069  44.897  54.032  1.00  0.00     0.126 C 
BRANCH  10  14
HETATM   14  C   UNL     1      26.155  47.536  51.159  1.00  0.00     0.337 C 
BRANCH  14  15
HETATM   15  C   UNL     1      25.255  47.684  49.929  1.00  0.00     0.248 C 
HETATM   16  N   UNL     1      23.901  47.634  50.199  1.00  0.00    -0.325 N 
HETATM   17  H   UNL     1      23.633  47.143  51.044  1.00  0.00     0.169 HD
HETATM   18  O   UNL     1      25.792  47.782  48.825  1.00  0.00    -0.271 OA
BRANCH  16  19
HETATM   19  C   UNL     1      22.922  47.608  49.173  1.00  0.00     0.047 A 
HETATM   20  C   UNL     1      22.528  46.413  48.530  1.00  0.00    -0.031 A 
HETATM   21  C   UNL     1      21.517  46.474  47.551  1.00  0.00     0.009 A 
HETATM   22  C   UNL     1      20.933  47.684  47.191  1.00  0.00     0.001 A 
HETATM   23  C   UNL     1      21.366  48.864  47.782  1.00  0.00     0.009 A 
HETATM   24  C   UNL     1      22.367  48.846  48.766  1.00  0.00    -0.035 A 
HETATM   25  C   UNL     1      22.776  50.160  49.378  1.00  0.00     0.050 C 
BRANCH  20  26
HETATM   26  C   UNL     1      23.226  45.078  48.698  1.00  0.00     0.036 C 
HETATM   27  C   UNL     1      22.385  44.096  49.503  1.00  0.00     0.010 C 
ENDBRANCH  20  26
ENDBRANCH  16  19
ENDBRANCH  14  15
ENDBRANCH  10  14
ENDBRANCH   1   7
BRANCH   3  28
HETATM   28  N   UNL     1      28.802  40.564  51.085  1.00  0.00    -0.188 N 
HETATM   29  H   UNL     1      29.381  39.822  51.454  1.00  0.00     0.184 HD
BRANCH  28  30
HETATM   30  C   UNL     1      28.127  40.268  49.892  1.00  0.00     0.049 A 
HETATM   31  C   UNL     1      28.714  40.645  48.675  1.00  0.00     0.030 A 
HETATM   32  C   UNL     1      28.061  40.422  47.459  1.00  0.00     0.002 A 
HETATM   33  C   UNL     1      26.807  39.821  47.441  1.00  0.00     0.000 A 
HETATM   34  C   UNL     1      26.204  39.446  48.639  1.00  0.00     0.002 A 
HETATM   35  C   UNL     1      26.857  39.679  49.852  1.00  0.00     0.030 A 
ENDBRANCH  28  30
ENDBRANCH   3  28
BRANCH   5  36
HETATM   36  N   UNL     1      30.483  43.213  54.479  1.00  0.00    -0.188 N 
HETATM   37  H   UNL     1      31.202  42.504  54.415  1.00  0.00     0.184 HD
BRANCH  36  38
HETATM   38  C   UNL     1      30.524  43.960  55.671  1.00  0.00     0.049 A 
HETATM   39  C   UNL     1      31.283  43.595  56.790  1.00  0.00     0.030 A 
HETATM   40  C   UNL     1      31.266  44.363  57.959  1.00  0.00     0.002 A 
HETATM   41  C   UNL     1      30.467  45.498  58.036  1.00  0.00     0.000 A 
HETATM   42  C   UNL     1      29.683  45.864  56.947  1.00  0.00     0.002 A 
HETATM   43  C   UNL     1      29.708  45.096  55.777  1.00  0.00     0.030 A 
ENDBRANCH  36  38
ENDBRANCH   5  36
TORSDOF 9
ENDMDL
MODEL 8
REMARK VINA RESULT:      -9.5      3.554     10.408
REMARK  9 active torsions:
REMARK  status: ('A' for Active; 'I' for Inactive)
REMARK    1  A    between atoms: C_2  and  C_3 
REMARK    2  A    between atoms: C_4  and  N_5 
REMARK       I    between atoms: N_5  and  C_6 
REMARK    3  A    between atoms: C_6  and  C_7 
REMARK    4  A    between atoms: C_7  and  N_8 
REMARK    5  A    between atoms: N_12  and  C_13 
REMARK    6  A    between atoms: C_15  and  N_16 
REMARK    7  A    between atoms: N_16  and  C_17 
REMARK    8  A    between atoms: C_24  and  N_25 
REMARK    9  A    between atoms: N_25  and  C_26 
ROOT
HETATM    1  C   UNL     1      26.041  42.591  50.868  1.00  0.00     0.240 A 
HETATM    2  N   UNL     1      26.375  42.819  52.126  1.00  0.00    -0.030 NA
HETATM    3  C   UNL     1      27.524  42.295  52.545  1.00  0.00     0.745 A 
HETATM    4  N   UNL     1      28.322  41.568  51.779  1.00  0.00     0.131 NA
HETATM    5  C   UNL     1      27.947  41.435  50.512  1.00  0.00     0.745 A 
HETATM    6  N   UNL     1      26.786  41.878  50.047  1.00  0.00    -0.030 NA
ENDROOT
BRANCH   1   7
HETATM    7  N   UNL     1      24.821  43.078  50.392  1.00  0.00    -0.247 NA
HETATM    8  C   UNL     1      24.870  43.761  49.091  1.00  0.00     0.126 C 
HETATM    9  C   UNL     1      25.366  45.218  49.218  1.00  0.00     0.250 C 
HETATM   10  N   UNL     1      24.554  45.956  50.273  1.00  0.00    -0.060 N 
HETATM   11  H   UNL     1      23.562  45.968  49.977  1.00  0.00     0.280 HD
HETATM   12  C   UNL     1      24.560  45.221  51.619  1.00  0.00     0.250 C 
HETATM   13  C   UNL     1      24.045  43.774  51.432  1.00  0.00     0.126 C 
BRANCH  10  14
HETATM   14  C   UNL     1      24.927  47.430  50.395  1.00  0.00     0.337 C 
BRANCH  14  15
HETATM   15  C   UNL     1      24.063  48.275  49.454  1.00  0.00     0.248 C 
HETATM   16  N   UNL     1      22.712  48.254  49.741  1.00  0.00    -0.325 N 
HETATM   17  H   UNL     1      22.377  47.442  50.246  1.00  0.00     0.169 HD
HETATM   18  O   UNL     1      24.618  48.847  48.515  1.00  0.00    -0.271 OA
BRANCH  16  19
HETATM   19  C   UNL     1      21.746  48.857  48.895  1.00  0.00     0.047 A 
HETATM   20  C   UNL     1      21.102  48.150  47.855  1.00  0.00    -0.031 A 
HETATM   21  C   UNL     1      20.124  48.816  47.091  1.00  0.00     0.009 A 
HETATM   22  C   UNL     1      19.812  50.151  47.324  1.00  0.00     0.001 A 
HETATM   23  C   UNL     1      20.490  50.858  48.308  1.00  0.00     0.009 A 
HETATM   24  C   UNL     1      21.468  50.231  49.095  1.00  0.00    -0.035 A 
HETATM   25  C   UNL     1      22.152  51.053  50.156  1.00  0.00     0.050 C 
BRANCH  20  26
HETATM   26  C   UNL     1      21.499  46.764  47.385  1.00  0.00     0.036 C 
HETATM   27  C   UNL     1      20.938  46.454  46.003  1.00  0.00     0.010 C 
ENDBRANCH  20  26
ENDBRANCH  16  19
ENDBRANCH  14  15
ENDBRANCH  10  14
ENDBRANCH   1   7
BRANCH   3  28
HETATM   28  N   UNL     1      27.901  42.428  53.880  1.00  0.00    -0.188 N 
HETATM   29  H   UNL     1      27.768  41.557  54.376  1.00  0.00     0.184 HD
BRANCH  28  30
HETATM   30  C   UNL     1      28.710  43.374  54.524  1.00  0.00     0.049 A 
HETATM   31  C   UNL     1      30.000  42.995  54.924  1.00  0.00     0.030 A 
HETATM   32  C   UNL     1      30.831  43.882  55.617  1.00  0.00     0.002 A 
HETATM   33  C   UNL     1      30.381  45.161  55.925  1.00  0.00     0.000 A 
HETATM   34  C   UNL     1      29.101  45.554  55.544  1.00  0.00     0.002 A 
HETATM   35  C   UNL     1      28.271  44.661  54.859  1.00  0.00     0.030 A 
ENDBRANCH  28  30
ENDBRANCH   3  28
BRANCH   5  36
HETATM   36  N   UNL     1      28.826  40.743  49.676  1.00  0.00    -0.188 N 
HETATM   37  H   UNL     1      29.689  41.263  49.581  1.00  0.00     0.184 HD
BRANCH  36  38
HETATM   38  C   UNL     1      28.563  39.873  48.602  1.00  0.00     0.049 A 
HETATM   39  C   UNL     1      28.269  40.308  47.305  1.00  0.00     0.030 A 
HETATM   40  C   UNL     1      27.990  39.397  46.280  1.00  0.00     0.002 A 
HETATM   41  C   UNL     1      27.978  38.032  46.545  1.00  0.00     0.000 A 
HETATM   42  C   UNL     1      28.239  37.578  47.833  1.00  0.00     0.002 A 
HETATM   43  C   UNL     1      28.523  38.493  48.853  1.00  0.00     0.030 A 
ENDBRANCH  36  38
ENDBRANCH   5  36
TORSDOF 9
ENDMDL
MODEL 9
REMARK VINA RESULT:      -9.4      2.900     10.716
REMARK  9 active torsions:
REMARK  status: ('A' for Active; 'I' for Inactive)
REMARK    1  A    between atoms: C_2  and  C_3 
REMARK    2  A    between atoms: C_4  and  N_5 
REMARK       I    between atoms: N_5  and  C_6 
REMARK    3  A    between atoms: C_6  and  C_7 
REMARK    4  A    between atoms: C_7  and  N_8 
REMARK    5  A    between atoms: N_12  and  C_13 
REMARK    6  A    between atoms: C_15  and  N_16 
REMARK    7  A    between atoms: N_16  and  C_17 
REMARK    8  A    between atoms: C_24  and  N_25 
REMARK    9  A    between atoms: N_25  and  C_26 
ROOT
HETATM    1  C   UNL     1      26.628  43.231  51.870  1.00  0.00     0.240 A 
HETATM    2  N   UNL     1      27.175  44.159  52.635  1.00  0.00    -0.030 NA
HETATM    3  C   UNL     1      28.290  43.824  53.278  1.00  0.00     0.745 A 
HETATM    4  N   UNL     1      28.856  42.630  53.196  1.00  0.00     0.131 NA
HETATM    5  C   UNL     1      28.281  41.773  52.361  1.00  0.00     0.745 A 
HETATM    6  N   UNL     1      27.136  42.021  51.737  1.00  0.00    -0.030 NA
ENDROOT
BRANCH   1   7
HETATM    7  N   UNL     1      25.431  43.516  51.210  1.00  0.00    -0.247 NA
HETATM    8  C   UNL     1      25.553  43.866  49.787  1.00  0.00     0.126 C 
HETATM    9  C   UNL     1      25.977  45.337  49.585  1.00  0.00     0.250 C 
HETATM   10  N   UNL     1      25.056  46.259  50.371  1.00  0.00    -0.060 N 
HETATM   11  H   UNL     1      24.090  46.140  50.017  1.00  0.00     0.280 HD
HETATM   12  C   UNL     1      24.987  45.872  51.853  1.00  0.00     0.250 C 
HETATM   13  C   UNL     1      24.547  44.396  51.994  1.00  0.00     0.126 C 
BRANCH  10  14
HETATM   14  C   UNL     1      25.358  47.738  50.152  1.00  0.00     0.337 C 
BRANCH  14  15
HETATM   15  C   UNL     1      24.308  48.362  49.228  1.00  0.00     0.248 C 
HETATM   16  N   UNL     1      23.004  48.016  49.524  1.00  0.00    -0.325 N 
HETATM   17  H   UNL     1      22.877  47.142  50.021  1.00  0.00     0.169 HD
HETATM   18  O   UNL     1      24.700  49.059  48.291  1.00  0.00    -0.271 OA
BRANCH  16  19
HETATM   19  C   UNL     1      21.913  48.379  48.693  1.00  0.00     0.047 A 
HETATM   20  C   UNL     1      21.463  49.713  48.571  1.00  0.00    -0.031 A 
HETATM   21  C   UNL     1      20.400  49.989  47.689  1.00  0.00     0.009 A 
HETATM   22  C   UNL     1      19.776  48.974  46.971  1.00  0.00     0.001 A 
HETATM   23  C   UNL     1      20.182  47.658  47.139  1.00  0.00     0.009 A 
HETATM   24  C   UNL     1      21.241  47.340  48.004  1.00  0.00    -0.035 A 
HETATM   25  C   UNL     1      21.641  45.893  48.125  1.00  0.00     0.050 C 
BRANCH  20  26
HETATM   26  C   UNL     1      21.932  50.860  49.444  1.00  0.00     0.036 C 
HETATM   27  C   UNL     1      21.036  51.047  50.661  1.00  0.00     0.010 C 
ENDBRANCH  20  26
ENDBRANCH  16  19
ENDBRANCH  14  15
ENDBRANCH  10  14
ENDBRANCH   1   7
BRANCH   3  28
HETATM   28  N   UNL     1      28.877  44.726  54.164  1.00  0.00    -0.188 N 
HETATM   29  H   UNL     1      28.401  45.618  54.133  1.00  0.00     0.184 HD
BRANCH  28  30
HETATM   30  C   UNL     1      29.714  44.525  55.271  1.00  0.00     0.049 A 
HETATM   31  C   UNL     1      30.525  43.382  55.303  1.00  0.00     0.030 A 
HETATM   32  C   UNL     1      31.340  43.105  56.404  1.00  0.00     0.002 A 
HETATM   33  C   UNL     1      31.352  43.967  57.496  1.00  0.00     0.000 A 
HETATM   34  C   UNL     1      30.548  45.103  57.488  1.00  0.00     0.002 A 
HETATM   35  C   UNL     1      29.729  45.371  56.387  1.00  0.00     0.030 A 
ENDBRANCH  28  30
ENDBRANCH   3  28
BRANCH   5  36
HETATM   36  N   UNL     1      28.920  40.542  52.201  1.00  0.00    -0.188 N 
HETATM   37  H   UNL     1      29.678  40.461  52.866  1.00  0.00     0.184 HD
BRANCH  36  38
HETATM   38  C   UNL     1      29.079  39.742  51.054  1.00  0.00     0.049 A 
HETATM   39  C   UNL     1      28.602  40.099  49.787  1.00  0.00     0.030 A 
HETATM   40  C   UNL     1      28.767  39.253  48.686  1.00  0.00     0.002 A 
HETATM   41  C   UNL     1      29.393  38.021  48.840  1.00  0.00     0.000 A 
HETATM   42  C   UNL     1      29.850  37.633  50.096  1.00  0.00     0.002 A 
HETATM   43  C   UNL     1      29.688  38.486  51.193  1.00  0.00     0.030 A 
ENDBRANCH  36  38
ENDBRANCH   5  36
TORSDOF 9
ENDMDL
MODEL 10
REMARK VINA RESULT:      -9.4      3.123     10.416
REMARK  9 active torsions:
REMARK  status: ('A' for Active; 'I' for Inactive)
REMARK    1  A    between atoms: C_2  and  C_3 
REMARK    2  A    between atoms: C_4  and  N_5 
REMARK       I    between atoms: N_5  and  C_6 
REMARK    3  A    between atoms: C_6  and  C_7 
REMARK    4  A    between atoms: C_7  and  N_8 
REMARK    5  A    between atoms: N_12  and  C_13 
REMARK    6  A    between atoms: C_15  and  N_16 
REMARK    7  A    between atoms: N_16  and  C_17 
REMARK    8  A    between atoms: C_24  and  N_25 
REMARK    9  A    between atoms: N_25  and  C_26 
ROOT
HETATM    1  C   UNL     1      27.208  44.323  51.529  1.00  0.00     0.240 A 
HETATM    2  N   UNL     1      27.894  44.190  52.650  1.00  0.00    -0.030 NA
HETATM    3  C   UNL     1      28.033  42.956  53.124  1.00  0.00     0.745 A 
HETATM    4  N   UNL     1      27.520  41.883  52.542  1.00  0.00     0.131 NA
HETATM    5  C   UNL     1      26.896  42.092  51.388  1.00  0.00     0.745 A 
HETATM    6  N   UNL     1      26.670  43.301  50.892  1.00  0.00    -0.030 NA
ENDROOT
BRANCH   1   7
HETATM    7  N   UNL     1      26.992  45.604  51.014  1.00  0.00    -0.247 NA
HETATM    8  C   UNL     1      25.980  46.411  51.711  1.00  0.00     0.126 C 
HETATM    9  C   UNL     1      24.544  46.034  51.287  1.00  0.00     0.250 C 
HETATM   10  N   UNL     1      24.420  46.065  49.771  1.00  0.00    -0.060 N 
HETATM   11  H   UNL     1      24.622  47.026  49.443  1.00  0.00     0.280 HD
HETATM   12  C   UNL     1      25.477  45.183  49.092  1.00  0.00     0.250 C 
HETATM   13  C   UNL     1      26.892  45.614  49.544  1.00  0.00     0.126 C 
BRANCH  10  14
HETATM   14  C   UNL     1      23.004  45.788  49.278  1.00  0.00     0.337 C 
BRANCH  14  15
HETATM   15  C   UNL     1      22.413  47.044  48.632  1.00  0.00     0.248 C 
HETATM   16  N   UNL     1      21.854  47.940  49.523  1.00  0.00    -0.325 N 
HETATM   17  H   UNL     1      21.541  47.552  50.406  1.00  0.00     0.169 HD
HETATM   18  O   UNL     1      22.435  47.130  47.403  1.00  0.00    -0.271 OA
BRANCH  16  19
HETATM   19  C   UNL     1      21.133  49.085  49.098  1.00  0.00     0.047 A 
HETATM   20  C   UNL     1      21.766  50.311  48.795  1.00  0.00    -0.031 A 
HETATM   21  C   UNL     1      20.976  51.384  48.339  1.00  0.00     0.009 A 
HETATM   22  C   UNL     1      19.596  51.264  48.216  1.00  0.00     0.001 A 
HETATM   23  C   UNL     1      18.972  50.076  48.573  1.00  0.00     0.009 A 
HETATM   24  C   UNL     1      19.722  48.981  49.027  1.00  0.00    -0.035 A 
HETATM   25  C   UNL     1      18.981  47.718  49.380  1.00  0.00     0.050 C 
BRANCH  20  26
HETATM   26  C   UNL     1      23.224  50.617  49.077  1.00  0.00     0.036 C 
HETATM   27  C   UNL     1      24.102  50.362  47.858  1.00  0.00     0.010 C 
ENDBRANCH  20  26
ENDBRANCH  16  19
ENDBRANCH  14  15
ENDBRANCH  10  14
ENDBRANCH   1   7
BRANCH   3  28
HETATM   28  N   UNL     1      28.676  42.749  54.343  1.00  0.00    -0.188 N 
HETATM   29  H   UNL     1      28.814  41.762  54.511  1.00  0.00     0.184 HD
BRANCH  28  30
HETATM   30  C   UNL     1      29.433  43.612  55.149  1.00  0.00     0.049 A 
HETATM   31  C   UNL     1      30.654  43.153  55.664  1.00  0.00     0.030 A 
HETATM   32  C   UNL     1      31.424  43.951  56.515  1.00  0.00     0.002 A 
HETATM   33  C   UNL     1      30.982  45.221  56.868  1.00  0.00     0.000 A 
HETATM   34  C   UNL     1      29.768  45.692  56.375  1.00  0.00     0.002 A 
HETATM   35  C   UNL     1      28.998  44.887  55.531  1.00  0.00     0.030 A 
ENDBRANCH  28  30
ENDBRANCH   3  28
BRANCH   5  36
HETATM   36  N   UNL     1      26.428  40.957  50.724  1.00  0.00    -0.188 N 
HETATM   37  H   UNL     1      25.647  40.561  51.232  1.00  0.00     0.184 HD
BRANCH  36  38
HETATM   38  C   UNL     1      27.111  40.029  49.916  1.00  0.00     0.049 A 
HETATM   39  C   UNL     1      28.423  39.606  50.161  1.00  0.00     0.030 A 
HETATM   40  C   UNL     1      29.063  38.699  49.308  1.00  0.00     0.002 A 
HETATM   41  C   UNL     1      28.406  38.220  48.180  1.00  0.00     0.000 A 
HETATM   42  C   UNL     1      27.113  38.650  47.902  1.00  0.00     0.002 A 
HETATM   43  C   UNL     1      26.474  39.551  48.761  1.00  0.00     0.030 A 
ENDBRANCH  36  38
ENDBRANCH   5  36
TORSDOF 9
ENDMDL
