MODEL 1
REMARK VINA RESULT:     -10.9      0.000      0.000
REMARK  7 active torsions:
REMARK  status: ('A' for Active; 'I' for Inactive)
REMARK    1  A    between atoms: C_2  and  N_3 
REMARK    2  A    between atoms: C_2  and  C_25 
REMARK       I    between atoms: N_3  and  C_4 
REMARK    3  A    between atoms: C_4  and  C_5 
REMARK    4  A    between atoms: C_8  and  C_9 
REMARK       I    between atoms: C_9  and  N_10 
REMARK    5  A    between atoms: N_10  and  C_11 
REMARK    6  A    between atoms: N_19  and  C_20 
REMARK    7  A    between atoms: C_33  and  O_34 
ROOT
HETATM    1  C   UNL     1      24.983  45.730  49.430  1.00  0.00     0.098 A 
HETATM    2  C   UNL     1      24.688  47.163  49.741  1.00  0.00     0.206 A 
HETATM    3  O   UNL     1      25.504  47.857  50.352  1.00  0.00    -0.286 OA
HETATM    4  C   UNL     1      23.390  47.742  49.281  1.00  0.00     0.098 A 
HETATM    5  C   UNL     1      22.521  46.895  48.702  1.00  0.00     0.112 A 
HETATM    6  N   UNL     1      22.769  45.549  48.513  1.00  0.00    -0.360 N 
HETATM    7  C   UNL     1      24.007  45.028  48.830  1.00  0.00     0.112 A 
ENDROOT
BRANCH   1   8
HETATM    8  C   UNL     1      26.275  45.051  49.731  1.00  0.00     0.257 C 
HETATM    9  N   UNL     1      26.176  43.942  50.526  1.00  0.00    -0.348 N 
HETATM   10  H   UNL     1      25.253  43.667  50.862  1.00  0.00     0.163 HD
HETATM   11  O   UNL     1      27.344  45.471  49.296  1.00  0.00    -0.267 OA
BRANCH   9  12
HETATM   12  C   UNL     1      27.314  43.155  50.963  1.00  0.00     0.114 C 
HETATM   13  C   UNL     1      26.976  41.662  51.028  1.00  0.00     0.037 C 
BRANCH  12  14
HETATM   14  C   UNL     1      27.799  43.691  52.299  1.00  0.00    -0.035 A 
HETATM   15  C   UNL     1      28.944  43.146  52.902  1.00  0.00     0.021 A 
HETATM   16  C   UNL     1      29.452  43.661  54.108  1.00  0.00    -0.025 A 
HETATM   17  C   UNL     1      28.802  44.750  54.725  1.00  0.00    -0.023 A 
HETATM   18  C   UNL     1      30.599  43.123  54.712  1.00  0.00     0.015 A 
HETATM   19  C   UNL     1      27.657  45.294  54.125  1.00  0.00     0.013 A 
HETATM   20  C   UNL     1      29.318  45.271  55.922  1.00  0.00     0.049 A 
HETATM   21  C   UNL     1      27.163  44.774  52.927  1.00  0.00     0.010 A 
HETATM   22  C   UNL     1      30.464  44.733  56.514  1.00  0.00     0.069 A 
HETATM   23  C   UNL     1      31.102  43.654  55.906  1.00  0.00     0.037 A 
BRANCH  22  24
HETATM   24  O   UNL     1      30.851  45.348  57.673  1.00  0.00    -0.356 OA
HETATM   25  C   UNL     1      29.841  46.021  58.412  1.00  0.00     0.210 C 
ENDBRANCH  22  24
ENDBRANCH  12  14
ENDBRANCH   9  12
ENDBRANCH   1   8
BRANCH   4  26
HETATM   26  C   UNL     1      23.019  49.180  49.401  1.00  0.00     0.257 C 
HETATM   27  N   UNL     1      21.677  49.421  49.561  1.00  0.00    -0.352 N 
HETATM   28  H   UNL     1      21.036  48.637  49.449  1.00  0.00     0.163 HD
HETATM   29  O   UNL     1      23.865  50.068  49.375  1.00  0.00    -0.267 OA
BRANCH  27  30
HETATM   30  C   UNL     1      21.109  50.761  49.629  1.00  0.00     0.084 C 
HETATM   31  C   UNL     1      20.784  51.294  48.227  1.00  0.00     0.025 C 
HETATM   32  C   UNL     1      19.584  50.588  47.596  1.00  0.00     0.002 C 
HETATM   33  C   UNL     1      18.359  50.639  48.505  1.00  0.00     0.000 C 
HETATM   34  C   UNL     1      18.660  50.081  49.892  1.00  0.00     0.002 C 
HETATM   35  C   UNL     1      19.865  50.772  50.530  1.00  0.00     0.025 C 
ENDBRANCH  27  30
ENDBRANCH   4  26
BRANCH   6  36
HETATM   36  C   UNL     1      21.824  44.750  47.722  1.00  0.00     0.089 A 
HETATM   37  C   UNL     1      21.888  44.690  46.217  1.00  0.00     0.028 A 
HETATM   38  C   UNL     1      22.258  43.485  47.027  1.00  0.00     0.028 A 
ENDBRANCH   6  36
TORSDOF 7
ENDMDL
MODEL 2
REMARK VINA RESULT:     -10.5      1.860      3.137
REMARK  7 active torsions:
REMARK  status: ('A' for Active; 'I' for Inactive)
REMARK    1  A    between atoms: C_2  and  N_3 
REMARK    2  A    between atoms: C_2  and  C_25 
REMARK       I    between atoms: N_3  and  C_4 
REMARK    3  A    between atoms: C_4  and  C_5 
REMARK    4  A    between atoms: C_8  and  C_9 
REMARK       I    between atoms: C_9  and  N_10 
REMARK    5  A    between atoms: N_10  and  C_11 
REMARK    6  A    between atoms: N_19  and  C_20 
REMARK    7  A    between atoms: C_33  and  O_34 
ROOT
HETATM    1  C   UNL     1      24.924  45.398  50.104  1.00  0.00     0.098 A 
HETATM    2  C   UNL     1      23.562  45.589  49.515  1.00  0.00     0.206 A 
HETATM    3  O   UNL     1      22.765  44.651  49.450  1.00  0.00    -0.286 OA
HETATM    4  C   UNL     1      23.180  46.947  49.023  1.00  0.00     0.098 A 
HETATM    5  C   UNL     1      24.137  47.891  49.050  1.00  0.00     0.112 A 
HETATM    6  N   UNL     1      25.422  47.671  49.503  1.00  0.00    -0.360 N 
HETATM    7  C   UNL     1      25.754  46.454  50.064  1.00  0.00     0.112 A 
ENDROOT
BRANCH   1   8
HETATM    8  C   UNL     1      25.401  44.131  50.728  1.00  0.00     0.257 C 
HETATM    9  N   UNL     1      26.661  43.744  50.361  1.00  0.00    -0.348 N 
HETATM   10  H   UNL     1      27.172  44.321  49.694  1.00  0.00     0.163 HD
HETATM   11  O   UNL     1      24.702  43.491  51.508  1.00  0.00    -0.267 OA
BRANCH   9  12
HETATM   12  C   UNL     1      27.302  42.528  50.828  1.00  0.00     0.114 C 
HETATM   13  C   UNL     1      26.277  41.435  51.144  1.00  0.00     0.037 C 
BRANCH  12  14
HETATM   14  C   UNL     1      28.174  42.861  52.027  1.00  0.00    -0.035 A 
HETATM   15  C   UNL     1      27.893  43.995  52.806  1.00  0.00     0.021 A 
HETATM   16  C   UNL     1      28.645  44.296  53.956  1.00  0.00    -0.025 A 
HETATM   17  C   UNL     1      29.700  43.441  54.339  1.00  0.00    -0.023 A 
HETATM   18  C   UNL     1      28.366  45.425  54.742  1.00  0.00     0.015 A 
HETATM   19  C   UNL     1      29.982  42.309  53.559  1.00  0.00     0.013 A 
HETATM   20  C   UNL     1      30.441  43.736  55.494  1.00  0.00     0.049 A 
HETATM   21  C   UNL     1      29.227  42.022  52.420  1.00  0.00     0.010 A 
HETATM   22  C   UNL     1      30.153  44.859  56.274  1.00  0.00     0.069 A 
HETATM   23  C   UNL     1      29.114  45.705  55.893  1.00  0.00     0.037 A 
BRANCH  22  24
HETATM   24  O   UNL     1      30.954  45.013  57.373  1.00  0.00    -0.356 OA
HETATM   25  C   UNL     1      30.648  46.094  58.244  1.00  0.00     0.210 C 
ENDBRANCH  22  24
ENDBRANCH  12  14
ENDBRANCH   9  12
ENDBRANCH   1   8
BRANCH   4  26
HETATM   26  C   UNL     1      21.820  47.317  48.540  1.00  0.00     0.257 C 
HETATM   27  N   UNL     1      21.194  48.299  49.265  1.00  0.00    -0.352 N 
HETATM   28  H   UNL     1      21.629  48.598  50.137  1.00  0.00     0.163 HD
HETATM   29  O   UNL     1      21.320  46.785  47.553  1.00  0.00    -0.267 OA
BRANCH  27  30
HETATM   30  C   UNL     1      19.836  48.752  48.992  1.00  0.00     0.084 C 
HETATM   31  C   UNL     1      19.231  49.450  50.217  1.00  0.00     0.025 C 
HETATM   32  C   UNL     1      19.859  50.818  50.482  1.00  0.00     0.002 C 
HETATM   33  C   UNL     1      19.798  51.714  49.248  1.00  0.00     0.000 C 
HETATM   34  C   UNL     1      20.427  51.045  48.031  1.00  0.00     0.002 C 
HETATM   35  C   UNL     1      19.814  49.671  47.761  1.00  0.00     0.025 C 
ENDBRANCH  27  30
ENDBRANCH   4  26
BRANCH   6  36
HETATM   36  C   UNL     1      26.339  48.810  49.644  1.00  0.00     0.089 A 
HETATM   37  C   UNL     1      27.677  48.854  48.952  1.00  0.00     0.028 A 
HETATM   38  C   UNL     1      26.578  49.769  48.506  1.00  0.00     0.028 A 
ENDBRANCH   6  36
TORSDOF 7
ENDMDL
MODEL 3
REMARK VINA RESULT:     -10.2      2.714     10.758
REMARK  7 active torsions:
REMARK  status: ('A' for Active; 'I' for Inactive)
REMARK    1  A    between atoms: C_2  and  N_3 
REMARK    2  A    between atoms: C_2  and  C_25 
REMARK       I    between atoms: N_3  and  C_4 
REMARK    3  A    between atoms: C_4  and  C_5 
REMARK    4  A    between atoms: C_8  and  C_9 
REMARK       I    between atoms: C_9  and  N_10 
REMARK    5  A    between atoms: N_10  and  C_11 
REMARK    6  A    between atoms: N_19  and  C_20 
REMARK    7  A    between atoms: C_33  and  O_34 
ROOT
HETATM    1  C   UNL     1      24.209  46.723  50.039  1.00  0.00     0.098 A 
HETATM    2  C   UNL     1      24.850  46.326  51.331  1.00  0.00     0.206 A 
HETATM    3  O   UNL     1      25.286  47.179  52.107  1.00  0.00    -0.286 OA
HETATM    4  C   UNL     1      24.937  44.874  51.670  1.00  0.00     0.098 A 
HETATM    5  C   UNL     1      24.520  44.008  50.730  1.00  0.00     0.112 A 
HETATM    6  N   UNL     1      24.023  44.389  49.499  1.00  0.00    -0.360 N 
HETATM    7  C   UNL     1      23.833  45.727  49.220  1.00  0.00     0.112 A 
ENDROOT
BRANCH   1   8
HETATM    8  C   UNL     1      23.959  48.132  49.621  1.00  0.00     0.257 C 
HETATM    9  N   UNL     1      22.642  48.500  49.585  1.00  0.00    -0.348 N 
HETATM   10  H   UNL     1      21.936  47.806  49.827  1.00  0.00     0.163 HD
HETATM   11  O   UNL     1      24.877  48.892  49.327  1.00  0.00    -0.267 OA
BRANCH   9  12
HETATM   12  C   UNL     1      22.180  49.814  49.176  1.00  0.00     0.114 C 
HETATM   13  C   UNL     1      22.274  50.827  50.320  1.00  0.00     0.037 C 
BRANCH  12  14
HETATM   14  C   UNL     1      20.766  49.691  48.634  1.00  0.00    -0.035 A 
HETATM   15  C   UNL     1      19.939  48.639  49.060  1.00  0.00     0.021 A 
HETATM   16  C   UNL     1      18.607  48.533  48.622  1.00  0.00    -0.025 A 
HETATM   17  C   UNL     1      18.087  49.503  47.740  1.00  0.00    -0.023 A 
HETATM   18  C   UNL     1      17.774  47.487  49.049  1.00  0.00     0.015 A 
HETATM   19  C   UNL     1      18.914  50.553  47.312  1.00  0.00     0.013 A 
HETATM   20  C   UNL     1      16.753  49.403  47.314  1.00  0.00     0.049 A 
HETATM   21  C   UNL     1      20.234  50.647  47.755  1.00  0.00     0.010 A 
HETATM   22  C   UNL     1      15.929  48.361  47.749  1.00  0.00     0.069 A 
HETATM   23  C   UNL     1      16.445  47.401  48.616  1.00  0.00     0.037 A 
BRANCH  22  24
HETATM   24  O   UNL     1      14.653  48.397  47.256  1.00  0.00    -0.356 OA
HETATM   25  C   UNL     1      14.510  48.373  45.842  1.00  0.00     0.210 C 
ENDBRANCH  22  24
ENDBRANCH  12  14
ENDBRANCH   9  12
ENDBRANCH   1   8
BRANCH   4  26
HETATM   26  C   UNL     1      25.425  44.340  52.973  1.00  0.00     0.257 C 
HETATM   27  N   UNL     1      26.613  43.657  52.911  1.00  0.00    -0.352 N 
HETATM   28  H   UNL     1      26.995  43.448  51.989  1.00  0.00     0.163 HD
HETATM   29  O   UNL     1      24.806  44.523  54.017  1.00  0.00    -0.267 OA
BRANCH  27  30
HETATM   30  C   UNL     1      27.220  43.003  54.063  1.00  0.00     0.084 C 
HETATM   31  C   UNL     1      27.904  41.691  53.656  1.00  0.00     0.025 C 
HETATM   32  C   UNL     1      29.182  41.923  52.849  1.00  0.00     0.002 C 
HETATM   33  C   UNL     1      30.150  42.848  53.581  1.00  0.00     0.000 C 
HETATM   34  C   UNL     1      29.491  44.170  53.962  1.00  0.00     0.002 C 
HETATM   35  C   UNL     1      28.206  43.951  54.761  1.00  0.00     0.025 C 
ENDBRANCH  27  30
ENDBRANCH   4  26
BRANCH   6  36
HETATM   36  C   UNL     1      23.442  43.371  48.614  1.00  0.00     0.089 A 
HETATM   37  C   UNL     1      24.288  42.340  47.912  1.00  0.00     0.028 A 
HETATM   38  C   UNL     1      23.375  41.922  49.024  1.00  0.00     0.028 A 
ENDBRANCH   6  36
TORSDOF 7
ENDMDL
MODEL 4
REMARK VINA RESULT:     -10.0      2.367      3.500
REMARK  7 active torsions:
REMARK  status: ('A' for Active; 'I' for Inactive)
REMARK    1  A    between atoms: C_2  and  N_3 
REMARK    2  A    between atoms: C_2  and  C_25 
REMARK       I    between atoms: N_3  and  C_4 
REMARK    3  A    between atoms: C_4  and  C_5 
REMARK    4  A    between atoms: C_8  and  C_9 
REMARK       I    between atoms: C_9  and  N_10 
REMARK    5  A    between atoms: N_10  and  C_11 
REMARK    6  A    between atoms: N_19  and  C_20 
REMARK    7  A    between atoms: C_33  and  O_34 
ROOT
HETATM    1  C   UNL     1      23.982  46.342  49.290  1.00  0.00     0.098 A 
HETATM    2  C   UNL     1      22.734  45.627  48.880  1.00  0.00     0.206 A 
HETATM    3  O   UNL     1      22.734  44.406  48.707  1.00  0.00    -0.286 OA
HETATM    4  C   UNL     1      21.481  46.420  48.700  1.00  0.00     0.098 A 
HETATM    5  C   UNL     1      21.588  47.754  48.821  1.00  0.00     0.112 A 
HETATM    6  N   UNL     1      22.771  48.409  49.101  1.00  0.00    -0.360 N 
HETATM    7  C   UNL     1      23.909  47.681  49.380  1.00  0.00     0.112 A 
ENDROOT
BRANCH   1   8
HETATM    8  C   UNL     1      25.273  45.668  49.607  1.00  0.00     0.257 C 
HETATM    9  N   UNL     1      25.166  44.545  50.379  1.00  0.00    -0.348 N 
HETATM   10  H   UNL     1      24.239  44.255  50.690  1.00  0.00     0.163 HD
HETATM   11  O   UNL     1      26.347  46.105  49.203  1.00  0.00    -0.267 OA
BRANCH   9  12
HETATM   12  C   UNL     1      26.301  43.759  50.827  1.00  0.00     0.114 C 
HETATM   13  C   UNL     1      25.948  42.273  50.944  1.00  0.00     0.037 C 
BRANCH  12  14
HETATM   14  C   UNL     1      26.810  44.333  52.138  1.00  0.00    -0.035 A 
HETATM   15  C   UNL     1      27.960  43.798  52.740  1.00  0.00     0.021 A 
HETATM   16  C   UNL     1      28.490  44.346  53.922  1.00  0.00    -0.025 A 
HETATM   17  C   UNL     1      27.857  45.459  54.514  1.00  0.00    -0.023 A 
HETATM   18  C   UNL     1      29.643  43.819  54.525  1.00  0.00     0.015 A 
HETATM   19  C   UNL     1      26.707  45.993  53.914  1.00  0.00     0.013 A 
HETATM   20  C   UNL     1      28.395  46.013  55.687  1.00  0.00     0.049 A 
HETATM   21  C   UNL     1      26.192  45.439  52.741  1.00  0.00     0.010 A 
HETATM   22  C   UNL     1      29.546  45.485  56.278  1.00  0.00     0.069 A 
HETATM   23  C   UNL     1      30.167  44.383  55.694  1.00  0.00     0.037 A 
BRANCH  22  24
HETATM   24  O   UNL     1      29.956  46.133  57.411  1.00  0.00    -0.356 OA
HETATM   25  C   UNL     1      30.730  45.382  58.336  1.00  0.00     0.210 C 
ENDBRANCH  22  24
ENDBRANCH  12  14
ENDBRANCH   9  12
ENDBRANCH   1   8
BRANCH   4  26
HETATM   26  C   UNL     1      20.140  45.829  48.427  1.00  0.00     0.257 C 
HETATM   27  N   UNL     1      19.142  46.741  48.190  1.00  0.00    -0.352 N 
HETATM   28  H   UNL     1      19.350  47.726  48.351  1.00  0.00     0.163 HD
HETATM   29  O   UNL     1      19.964  44.615  48.401  1.00  0.00    -0.267 OA
BRANCH  27  30
HETATM   30  C   UNL     1      17.752  46.365  47.969  1.00  0.00     0.084 C 
HETATM   31  C   UNL     1      16.811  47.184  48.862  1.00  0.00     0.025 C 
HETATM   32  C   UNL     1      16.706  48.644  48.419  1.00  0.00     0.002 C 
HETATM   33  C   UNL     1      16.314  48.759  46.949  1.00  0.00     0.000 C 
HETATM   34  C   UNL     1      17.262  47.976  46.047  1.00  0.00     0.002 C 
HETATM   35  C   UNL     1      17.384  46.516  46.486  1.00  0.00     0.025 C 
ENDBRANCH  27  30
ENDBRANCH   4  26
BRANCH   6  36
HETATM   36  C   UNL     1      22.745  49.852  49.375  1.00  0.00     0.089 A 
HETATM   37  C   UNL     1      23.170  50.872  48.349  1.00  0.00     0.028 A 
HETATM   38  C   UNL     1      21.725  50.754  48.730  1.00  0.00     0.028 A 
ENDBRANCH   6  36
TORSDOF 7
ENDMDL
MODEL 5
REMARK VINA RESULT:      -9.8      1.995      3.985
REMARK  7 active torsions:
REMARK  status: ('A' for Active; 'I' for Inactive)
REMARK    1  A    between atoms: C_2  and  N_3 
REMARK    2  A    between atoms: C_2  and  C_25 
REMARK       I    between atoms: N_3  and  C_4 
REMARK    3  A    between atoms: C_4  and  C_5 
REMARK    4  A    between atoms: C_8  and  C_9 
REMARK       I    between atoms: C_9  and  N_10 
REMARK    5  A    between atoms: N_10  and  C_11 
REMARK    6  A    between atoms: N_19  and  C_20 
REMARK    7  A    between atoms: C_33  and  O_34 
ROOT
HETATM    1  C   UNL     1      24.704  45.783  49.261  1.00  0.00     0.098 A 
HETATM    2  C   UNL     1      23.454  45.108  48.793  1.00  0.00     0.206 A 
HETATM    3  O   UNL     1      23.433  43.893  48.584  1.00  0.00    -0.286 OA
HETATM    4  C   UNL     1      22.225  45.934  48.598  1.00  0.00     0.098 A 
HETATM    5  C   UNL     1      22.357  47.261  48.761  1.00  0.00     0.112 A 
HETATM    6  N   UNL     1      23.544  47.881  49.096  1.00  0.00    -0.360 N 
HETATM    7  C   UNL     1      24.658  47.120  49.388  1.00  0.00     0.112 A 
ENDROOT
BRANCH   1   8
HETATM    8  C   UNL     1      25.970  45.072  49.598  1.00  0.00     0.257 C 
HETATM    9  N   UNL     1      25.818  43.951  50.367  1.00  0.00    -0.348 N 
HETATM   10  H   UNL     1      24.878  43.689  50.664  1.00  0.00     0.163 HD
HETATM   11  O   UNL     1      27.062  45.477  49.211  1.00  0.00    -0.267 OA
BRANCH   9  12
HETATM   12  C   UNL     1      26.922  43.132  50.832  1.00  0.00     0.114 C 
HETATM   13  C   UNL     1      26.515  41.663  50.975  1.00  0.00     0.037 C 
BRANCH  12  14
HETATM   14  C   UNL     1      27.449  43.710  52.135  1.00  0.00    -0.035 A 
HETATM   15  C   UNL     1      28.604  43.173  52.726  1.00  0.00     0.021 A 
HETATM   16  C   UNL     1      29.149  43.725  53.899  1.00  0.00    -0.025 A 
HETATM   17  C   UNL     1      28.528  44.843  54.494  1.00  0.00    -0.023 A 
HETATM   18  C   UNL     1      30.306  43.195  54.491  1.00  0.00     0.015 A 
HETATM   19  C   UNL     1      27.374  45.379  53.905  1.00  0.00     0.013 A 
HETATM   20  C   UNL     1      29.082  45.400  55.657  1.00  0.00     0.049 A 
HETATM   21  C   UNL     1      26.842  44.822  52.740  1.00  0.00     0.010 A 
HETATM   22  C   UNL     1      30.237  44.870  56.237  1.00  0.00     0.069 A 
HETATM   23  C   UNL     1      30.847  43.763  55.652  1.00  0.00     0.037 A 
BRANCH  22  24
HETATM   24  O   UNL     1      30.663  45.521  57.363  1.00  0.00    -0.356 OA
HETATM   25  C   UNL     1      29.659  45.968  58.264  1.00  0.00     0.210 C 
ENDBRANCH  22  24
ENDBRANCH  12  14
ENDBRANCH   9  12
ENDBRANCH   1   8
BRANCH   4  26
HETATM   26  C   UNL     1      20.881  45.381  48.267  1.00  0.00     0.257 C 
HETATM   27  N   UNL     1      20.486  45.558  46.965  1.00  0.00    -0.352 N 
HETATM   28  H   UNL     1      21.058  46.159  46.372  1.00  0.00     0.163 HD
HETATM   29  O   UNL     1      20.200  44.797  49.105  1.00  0.00    -0.267 OA
BRANCH  27  30
HETATM   30  C   UNL     1      19.181  45.149  46.463  1.00  0.00     0.084 C 
HETATM   31  C   UNL     1      18.660  46.139  45.412  1.00  0.00     0.025 C 
HETATM   32  C   UNL     1      19.429  46.052  44.093  1.00  0.00     0.002 C 
HETATM   33  C   UNL     1      19.453  44.627  43.548  1.00  0.00     0.000 C 
HETATM   34  C   UNL     1      20.000  43.638  44.572  1.00  0.00     0.002 C 
HETATM   35  C   UNL     1      19.246  43.722  45.899  1.00  0.00     0.025 C 
ENDBRANCH  27  30
ENDBRANCH   4  26
BRANCH   6  36
HETATM   36  C   UNL     1      23.541  49.316  49.412  1.00  0.00     0.089 A 
HETATM   37  C   UNL     1      23.727  50.371  48.351  1.00  0.00     0.028 A 
HETATM   38  C   UNL     1      22.391  50.204  49.010  1.00  0.00     0.028 A 
ENDBRANCH   6  36
TORSDOF 7
ENDMDL
MODEL 6
REMARK VINA RESULT:      -9.6      4.218      7.421
REMARK  7 active torsions:
REMARK  status: ('A' for Active; 'I' for Inactive)
REMARK    1  A    between atoms: C_2  and  N_3 
REMARK    2  A    between atoms: C_2  and  C_25 
REMARK       I    between atoms: N_3  and  C_4 
REMARK    3  A    between atoms: C_4  and  C_5 
REMARK    4  A    between atoms: C_8  and  C_9 
REMARK       I    between atoms: C_9  and  N_10 
REMARK    5  A    between atoms: N_10  and  C_11 
REMARK    6  A    between atoms: N_19  and  C_20 
REMARK    7  A    between atoms: C_33  and  O_34 
ROOT
HETATM    1  C   UNL     1      25.267  41.999  49.914  1.00  0.00     0.098 A 
HETATM    2  C   UNL     1      24.401  41.415  48.844  1.00  0.00     0.206 A 
HETATM    3  O   UNL     1      23.227  41.771  48.718  1.00  0.00    -0.286 OA
HETATM    4  C   UNL     1      24.992  40.402  47.918  1.00  0.00     0.098 A 
HETATM    5  C   UNL     1      26.249  40.005  48.180  1.00  0.00     0.112 A 
HETATM    6  N   UNL     1      27.002  40.481  49.235  1.00  0.00    -0.360 N 
HETATM    7  C   UNL     1      26.509  41.498  50.028  1.00  0.00     0.112 A 
ENDROOT
BRANCH   1   8
HETATM    8  C   UNL     1      24.846  43.091  50.837  1.00  0.00     0.257 C 
HETATM    9  N   UNL     1      25.739  44.119  50.966  1.00  0.00    -0.348 N 
HETATM   10  H   UNL     1      26.616  44.068  50.448  1.00  0.00     0.163 HD
HETATM   11  O   UNL     1      23.774  43.055  51.435  1.00  0.00    -0.267 OA
BRANCH   9  12
HETATM   12  C   UNL     1      25.538  45.263  51.836  1.00  0.00     0.114 C 
HETATM   13  C   UNL     1      25.533  46.576  51.049  1.00  0.00     0.037 C 
BRANCH  12  14
HETATM   14  C   UNL     1      26.600  45.248  52.921  1.00  0.00    -0.035 A 
HETATM   15  C   UNL     1      27.520  44.189  52.990  1.00  0.00     0.021 A 
HETATM   16  C   UNL     1      28.551  44.177  53.946  1.00  0.00    -0.025 A 
HETATM   17  C   UNL     1      28.670  45.252  54.853  1.00  0.00    -0.023 A 
HETATM   18  C   UNL     1      29.477  43.124  54.017  1.00  0.00     0.015 A 
HETATM   19  C   UNL     1      27.750  46.309  54.785  1.00  0.00     0.013 A 
HETATM   20  C   UNL     1      29.708  45.245  55.798  1.00  0.00     0.049 A 
HETATM   21  C   UNL     1      26.731  46.308  53.831  1.00  0.00     0.010 A 
HETATM   22  C   UNL     1      30.628  44.194  55.857  1.00  0.00     0.069 A 
HETATM   23  C   UNL     1      30.507  43.132  54.965  1.00  0.00     0.037 A 
BRANCH  22  24
HETATM   24  O   UNL     1      31.587  44.328  56.824  1.00  0.00    -0.356 OA
HETATM   25  C   UNL     1      31.135  44.608  58.142  1.00  0.00     0.210 C 
ENDBRANCH  22  24
ENDBRANCH  12  14
ENDBRANCH   9  12
ENDBRANCH   1   8
BRANCH   4  26
HETATM   26  C   UNL     1      24.293  39.837  46.730  1.00  0.00     0.257 C 
HETATM   27  N   UNL     1      23.061  39.290  46.987  1.00  0.00    -0.352 N 
HETATM   28  H   UNL     1      22.781  39.186  47.962  1.00  0.00     0.163 HD
HETATM   29  O   UNL     1      24.790  39.883  45.608  1.00  0.00    -0.267 OA
BRANCH  27  30
HETATM   30  C   UNL     1      22.252  38.629  45.971  1.00  0.00     0.084 C 
HETATM   31  C   UNL     1      22.330  37.103  46.112  1.00  0.00     0.025 C 
HETATM   32  C   UNL     1      21.583  36.589  47.342  1.00  0.00     0.002 C 
HETATM   33  C   UNL     1      20.136  37.074  47.366  1.00  0.00     0.000 C 
HETATM   34  C   UNL     1      20.046  38.593  47.261  1.00  0.00     0.002 C 
HETATM   35  C   UNL     1      20.799  39.120  46.039  1.00  0.00     0.025 C 
ENDBRANCH  27  30
ENDBRANCH   4  26
BRANCH   6  36
HETATM   36  C   UNL     1      28.420  40.106  49.333  1.00  0.00     0.089 A 
HETATM   37  C   UNL     1      28.882  38.921  50.142  1.00  0.00     0.028 A 
HETATM   38  C   UNL     1      28.952  38.875  48.646  1.00  0.00     0.028 A 
ENDBRANCH   6  36
TORSDOF 7
ENDMDL
MODEL 7
REMARK VINA RESULT:      -9.5      4.067      6.771
REMARK  7 active torsions:
REMARK  status: ('A' for Active; 'I' for Inactive)
REMARK    1  A    between atoms: C_2  and  N_3 
REMARK    2  A    between atoms: C_2  and  C_25 
REMARK       I    between atoms: N_3  and  C_4 
REMARK    3  A    between atoms: C_4  and  C_5 
REMARK    4  A    between atoms: C_8  and  C_9 
REMARK       I    between atoms: C_9  and  N_10 
REMARK    5  A    between atoms: N_10  and  C_11 
REMARK    6  A    between atoms: N_19  and  C_20 
REMARK    7  A    between atoms: C_33  and  O_34 
ROOT
HETATM    1  C   UNL     1      25.404  42.103  49.552  1.00  0.00     0.098 A 
HETATM    2  C   UNL     1      24.810  41.893  48.196  1.00  0.00     0.206 A 
HETATM    3  O   UNL     1      23.754  42.445  47.877  1.00  0.00    -0.286 OA
HETATM    4  C   UNL     1      25.531  41.014  47.227  1.00  0.00     0.098 A 
HETATM    5  C   UNL     1      26.625  40.381  47.684  1.00  0.00     0.112 A 
HETATM    6  N   UNL     1      27.105  40.507  48.973  1.00  0.00    -0.360 N 
HETATM    7  C   UNL     1      26.514  41.402  49.841  1.00  0.00     0.112 A 
ENDROOT
BRANCH   1   8
HETATM    8  C   UNL     1      24.854  43.033  50.579  1.00  0.00     0.257 C 
HETATM    9  N   UNL     1      25.584  44.172  50.780  1.00  0.00    -0.348 N 
HETATM   10  H   UNL     1      26.440  44.302  50.241  1.00  0.00     0.163 HD
HETATM   11  O   UNL     1      23.822  42.780  51.194  1.00  0.00    -0.267 OA
BRANCH   9  12
HETATM   12  C   UNL     1      25.241  45.192  51.754  1.00  0.00     0.114 C 
HETATM   13  C   UNL     1      25.075  46.566  51.097  1.00  0.00     0.037 C 
BRANCH  12  14
HETATM   14  C   UNL     1      26.296  45.202  52.847  1.00  0.00    -0.035 A 
HETATM   15  C   UNL     1      27.297  44.219  52.866  1.00  0.00     0.021 A 
HETATM   16  C   UNL     1      28.322  44.237  53.830  1.00  0.00    -0.025 A 
HETATM   17  C   UNL     1      28.347  45.265  54.796  1.00  0.00    -0.023 A 
HETATM   18  C   UNL     1      29.329  43.259  53.851  1.00  0.00     0.015 A 
HETATM   19  C   UNL     1      27.346  46.246  54.778  1.00  0.00     0.013 A 
HETATM   20  C   UNL     1      29.378  45.288  55.750  1.00  0.00     0.049 A 
HETATM   21  C   UNL     1      26.335  46.217  53.816  1.00  0.00     0.010 A 
HETATM   22  C   UNL     1      30.380  44.314  55.759  1.00  0.00     0.069 A 
HETATM   23  C   UNL     1      30.350  43.297  54.808  1.00  0.00     0.037 A 
BRANCH  22  24
HETATM   24  O   UNL     1      31.319  44.471  56.742  1.00  0.00    -0.356 OA
HETATM   25  C   UNL     1      31.901  43.286  57.269  1.00  0.00     0.210 C 
ENDBRANCH  22  24
ENDBRANCH  12  14
ENDBRANCH   9  12
ENDBRANCH   1   8
BRANCH   4  26
HETATM   26  C   UNL     1      25.131  40.821  45.805  1.00  0.00     0.257 C 
HETATM   27  N   UNL     1      24.963  41.979  45.087  1.00  0.00    -0.352 N 
HETATM   28  H   UNL     1      24.985  42.862  45.597  1.00  0.00     0.163 HD
HETATM   29  O   UNL     1      24.986  39.702  45.322  1.00  0.00    -0.267 OA
BRANCH  27  30
HETATM   30  C   UNL     1      24.511  42.003  43.703  1.00  0.00     0.084 C 
HETATM   31  C   UNL     1      23.608  43.215  43.439  1.00  0.00     0.025 C 
HETATM   32  C   UNL     1      24.384  44.532  43.429  1.00  0.00     0.002 C 
HETATM   33  C   UNL     1      25.553  44.489  42.449  1.00  0.00     0.000 C 
HETATM   34  C   UNL     1      26.477  43.307  42.722  1.00  0.00     0.002 C 
HETATM   35  C   UNL     1      25.711  41.984  42.745  1.00  0.00     0.025 C 
ENDBRANCH  27  30
ENDBRANCH   4  26
BRANCH   6  36
HETATM   36  C   UNL     1      28.399  39.905  49.319  1.00  0.00     0.089 A 
HETATM   37  C   UNL     1      28.507  38.527  49.921  1.00  0.00     0.028 A 
HETATM   38  C   UNL     1      28.972  38.765  48.517  1.00  0.00     0.028 A 
ENDBRANCH   6  36
TORSDOF 7
ENDMDL
MODEL 8
REMARK VINA RESULT:      -9.3      3.315     10.964
REMARK  7 active torsions:
REMARK  status: ('A' for Active; 'I' for Inactive)
REMARK    1  A    between atoms: C_2  and  N_3 
REMARK    2  A    between atoms: C_2  and  C_25 
REMARK       I    between atoms: N_3  and  C_4 
REMARK    3  A    between atoms: C_4  and  C_5 
REMARK    4  A    between atoms: C_8  and  C_9 
REMARK       I    between atoms: C_9  and  N_10 
REMARK    5  A    between atoms: N_10  and  C_11 
REMARK    6  A    between atoms: N_19  and  C_20 
REMARK    7  A    between atoms: C_33  and  O_34 
ROOT
HETATM    1  C   UNL     1      24.878  46.964  50.474  1.00  0.00     0.098 A 
HETATM    2  C   UNL     1      24.530  45.571  50.057  1.00  0.00     0.206 A 
HETATM    3  O   UNL     1      24.103  45.339  48.924  1.00  0.00    -0.286 OA
HETATM    4  C   UNL     1      24.725  44.460  51.037  1.00  0.00     0.098 A 
HETATM    5  C   UNL     1      25.109  44.809  52.277  1.00  0.00     0.112 A 
HETATM    6  N   UNL     1      25.329  46.113  52.676  1.00  0.00    -0.360 N 
HETATM    7  C   UNL     1      25.261  47.135  51.751  1.00  0.00     0.112 A 
ENDROOT
BRANCH   1   8
HETATM    8  C   UNL     1      24.835  48.150  49.572  1.00  0.00     0.257 C 
HETATM    9  N   UNL     1      23.580  48.559  49.213  1.00  0.00    -0.348 N 
HETATM   10  H   UNL     1      22.778  48.034  49.563  1.00  0.00     0.163 HD
HETATM   11  O   UNL     1      25.858  48.705  49.183  1.00  0.00    -0.267 OA
BRANCH   9  12
HETATM   12  C   UNL     1      23.316  49.671  48.318  1.00  0.00     0.114 C 
HETATM   13  C   UNL     1      23.957  50.966  48.825  1.00  0.00     0.037 C 
BRANCH  12  14
HETATM   14  C   UNL     1      21.814  49.808  48.133  1.00  0.00    -0.035 A 
HETATM   15  C   UNL     1      21.171  51.008  48.475  1.00  0.00     0.021 A 
HETATM   16  C   UNL     1      19.792  51.186  48.259  1.00  0.00    -0.025 A 
HETATM   17  C   UNL     1      19.039  50.140  47.684  1.00  0.00    -0.023 A 
HETATM   18  C   UNL     1      19.144  52.385  48.593  1.00  0.00     0.015 A 
HETATM   19  C   UNL     1      19.682  48.940  47.345  1.00  0.00     0.013 A 
HETATM   20  C   UNL     1      17.666  50.324  47.458  1.00  0.00     0.049 A 
HETATM   21  C   UNL     1      21.051  48.777  47.564  1.00  0.00     0.010 A 
HETATM   22  C   UNL     1      17.030  51.524  47.789  1.00  0.00     0.069 A 
HETATM   23  C   UNL     1      17.774  52.554  48.361  1.00  0.00     0.037 A 
BRANCH  22  24
HETATM   24  O   UNL     1      15.692  51.559  47.504  1.00  0.00    -0.356 OA
HETATM   25  C   UNL     1      15.268  50.884  46.328  1.00  0.00     0.210 C 
ENDBRANCH  22  24
ENDBRANCH  12  14
ENDBRANCH   9  12
ENDBRANCH   1   8
BRANCH   4  26
HETATM   26  C   UNL     1      24.550  43.015  50.720  1.00  0.00     0.257 C 
HETATM   27  N   UNL     1      25.589  42.443  50.030  1.00  0.00    -0.352 N 
HETATM   28  H   UNL     1      26.319  43.058  49.672  1.00  0.00     0.163 HD
HETATM   29  O   UNL     1      23.553  42.394  51.074  1.00  0.00    -0.267 OA
BRANCH  27  30
HETATM   30  C   UNL     1      25.578  41.060  49.570  1.00  0.00     0.084 C 
HETATM   31  C   UNL     1      26.134  40.949  48.143  1.00  0.00     0.025 C 
HETATM   32  C   UNL     1      27.644  41.178  48.084  1.00  0.00     0.002 C 
HETATM   33  C   UNL     1      28.391  40.255  49.043  1.00  0.00     0.000 C 
HETATM   34  C   UNL     1      27.870  40.380  50.471  1.00  0.00     0.002 C 
HETATM   35  C   UNL     1      26.358  40.164  50.542  1.00  0.00     0.025 C 
ENDBRANCH  27  30
ENDBRANCH   4  26
BRANCH   6  36
HETATM   36  C   UNL     1      25.905  46.370  54.003  1.00  0.00     0.089 A 
HETATM   37  C   UNL     1      27.310  46.888  54.181  1.00  0.00     0.028 A 
HETATM   38  C   UNL     1      26.144  47.775  54.494  1.00  0.00     0.028 A 
ENDBRANCH   6  36
TORSDOF 7
ENDMDL
MODEL 9
REMARK VINA RESULT:      -9.2      3.847      7.729
REMARK  7 active torsions:
REMARK  status: ('A' for Active; 'I' for Inactive)
REMARK    1  A    between atoms: C_2  and  N_3 
REMARK    2  A    between atoms: C_2  and  C_25 
REMARK       I    between atoms: N_3  and  C_4 
REMARK    3  A    between atoms: C_4  and  C_5 
REMARK    4  A    between atoms: C_8  and  C_9 
REMARK       I    between atoms: C_9  and  N_10 
REMARK    5  A    between atoms: N_10  and  C_11 
REMARK    6  A    between atoms: N_19  and  C_20 
REMARK    7  A    between atoms: C_33  and  O_34 
ROOT
HETATM    1  C   UNL     1      23.837  42.830  48.803  1.00  0.00     0.098 A 
HETATM    2  C   UNL     1      24.553  41.529  48.631  1.00  0.00     0.206 A 
HETATM    3  O   UNL     1      25.229  41.054  49.547  1.00  0.00    -0.286 OA
HETATM    4  C   UNL     1      24.419  40.804  47.331  1.00  0.00     0.098 A 
HETATM    5  C   UNL     1      23.738  41.433  46.357  1.00  0.00     0.112 A 
HETATM    6  N   UNL     1      23.168  42.682  46.500  1.00  0.00    -0.360 N 
HETATM    7  C   UNL     1      23.188  43.310  47.729  1.00  0.00     0.112 A 
ENDROOT
BRANCH   1   8
HETATM    8  C   UNL     1      23.794  43.607  50.075  1.00  0.00     0.257 C 
HETATM    9  N   UNL     1      24.983  44.168  50.451  1.00  0.00    -0.348 N 
HETATM   10  H   UNL     1      25.802  44.013  49.863  1.00  0.00     0.163 HD
HETATM   11  O   UNL     1      22.761  43.721  50.728  1.00  0.00    -0.267 OA
BRANCH   9  12
HETATM   12  C   UNL     1      25.167  44.935  51.669  1.00  0.00     0.114 C 
HETATM   13  C   UNL     1      25.207  46.440  51.387  1.00  0.00     0.037 C 
BRANCH  12  14
HETATM   14  C   UNL     1      26.422  44.450  52.373  1.00  0.00    -0.035 A 
HETATM   15  C   UNL     1      26.982  45.207  53.414  1.00  0.00     0.021 A 
HETATM   16  C   UNL     1      28.109  44.754  54.124  1.00  0.00    -0.025 A 
HETATM   17  C   UNL     1      28.688  43.513  53.788  1.00  0.00    -0.023 A 
HETATM   18  C   UNL     1      28.669  45.505  55.170  1.00  0.00     0.015 A 
HETATM   19  C   UNL     1      28.130  42.757  52.746  1.00  0.00     0.013 A 
HETATM   20  C   UNL     1      29.805  43.056  54.506  1.00  0.00     0.049 A 
HETATM   21  C   UNL     1      27.011  43.217  52.050  1.00  0.00     0.010 A 
HETATM   22  C   UNL     1      30.353  43.808  55.549  1.00  0.00     0.069 A 
HETATM   23  C   UNL     1      29.783  45.036  55.877  1.00  0.00     0.037 A 
BRANCH  22  24
HETATM   24  O   UNL     1      31.433  43.233  56.161  1.00  0.00    -0.356 OA
HETATM   25  C   UNL     1      31.779  43.724  57.449  1.00  0.00     0.210 C 
ENDBRANCH  22  24
ENDBRANCH  12  14
ENDBRANCH   9  12
ENDBRANCH   1   8
BRANCH   4  26
HETATM   26  C   UNL     1      24.961  39.443  47.064  1.00  0.00     0.257 C 
HETATM   27  N   UNL     1      26.208  39.203  47.585  1.00  0.00    -0.352 N 
HETATM   28  H   UNL     1      26.718  39.992  47.982  1.00  0.00     0.163 HD
HETATM   29  O   UNL     1      24.319  38.604  46.440  1.00  0.00    -0.267 OA
BRANCH  27  30
HETATM   30  C   UNL     1      26.936  37.958  47.376  1.00  0.00     0.084 C 
HETATM   31  C   UNL     1      28.452  38.195  47.396  1.00  0.00     0.025 C 
HETATM   32  C   UNL     1      28.976  38.513  48.796  1.00  0.00     0.002 C 
HETATM   33  C   UNL     1      28.571  37.443  49.806  1.00  0.00     0.000 C 
HETATM   34  C   UNL     1      27.062  37.221  49.820  1.00  0.00     0.002 C 
HETATM   35  C   UNL     1      26.523  36.913  48.423  1.00  0.00     0.025 C 
ENDBRANCH  27  30
ENDBRANCH   4  26
BRANCH   6  36
HETATM   36  C   UNL     1      22.306  43.204  45.430  1.00  0.00     0.089 A 
HETATM   37  C   UNL     1      20.831  42.899  45.368  1.00  0.00     0.028 A 
HETATM   38  C   UNL     1      21.291  44.286  45.700  1.00  0.00     0.028 A 
ENDBRANCH   6  36
TORSDOF 7
ENDMDL
MODEL 10
REMARK VINA RESULT:      -9.2      3.942      6.036
REMARK  7 active torsions:
REMARK  status: ('A' for Active; 'I' for Inactive)
REMARK    1  A    between atoms: C_2  and  N_3 
REMARK    2  A    between atoms: C_2  and  C_25 
REMARK       I    between atoms: N_3  and  C_4 
REMARK    3  A    between atoms: C_4  and  C_5 
REMARK    4  A    between atoms: C_8  and  C_9 
REMARK       I    between atoms: C_9  and  N_10 
REMARK    5  A    between atoms: N_10  and  C_11 
REMARK    6  A    between atoms: N_19  and  C_20 
REMARK    7  A    between atoms: C_33  and  O_34 
ROOT
HETATM    1  C   UNL     1      24.500  42.724  50.024  1.00  0.00     0.098 A 
HETATM    2  C   UNL     1      23.584  42.303  48.920  1.00  0.00     0.206 A 
HETATM    3  O   UNL     1      22.554  42.937  48.677  1.00  0.00    -0.286 OA
HETATM    4  C   UNL     1      23.950  41.107  48.103  1.00  0.00     0.098 A 
HETATM    5  C   UNL     1      25.040  40.421  48.490  1.00  0.00     0.112 A 
HETATM    6  N   UNL     1      25.819  40.766  49.577  1.00  0.00    -0.360 N 
HETATM    7  C   UNL     1      25.557  41.931  50.268  1.00  0.00     0.112 A 
ENDROOT
BRANCH   1   8
HETATM    8  C   UNL     1      24.317  43.953  50.848  1.00  0.00     0.257 C 
HETATM    9  N   UNL     1      25.475  44.589  51.204  1.00  0.00    -0.348 N 
HETATM   10  H   UNL     1      26.363  44.186  50.904  1.00  0.00     0.163 HD
HETATM   11  O   UNL     1      23.204  44.350  51.179  1.00  0.00    -0.267 OA
BRANCH   9  12
HETATM   12  C   UNL     1      25.522  45.782  52.028  1.00  0.00     0.114 C 
HETATM   13  C   UNL     1      25.743  47.042  51.186  1.00  0.00     0.037 C 
BRANCH  12  14
HETATM   14  C   UNL     1      26.596  45.605  53.088  1.00  0.00    -0.035 A 
HETATM   15  C   UNL     1      27.453  44.494  53.042  1.00  0.00     0.021 A 
HETATM   16  C   UNL     1      28.495  44.334  53.973  1.00  0.00    -0.025 A 
HETATM   17  C   UNL     1      28.688  45.311  54.972  1.00  0.00    -0.023 A 
HETATM   18  C   UNL     1      29.357  43.227  53.928  1.00  0.00     0.015 A 
HETATM   19  C   UNL     1      27.831  46.420  55.020  1.00  0.00     0.013 A 
HETATM   20  C   UNL     1      29.736  45.156  55.893  1.00  0.00     0.049 A 
HETATM   21  C   UNL     1      26.801  46.567  54.089  1.00  0.00     0.010 A 
HETATM   22  C   UNL     1      30.594  44.053  55.838  1.00  0.00     0.069 A 
HETATM   23  C   UNL     1      30.399  43.087  54.854  1.00  0.00     0.037 A 
BRANCH  22  24
HETATM   24  O   UNL     1      31.572  44.042  56.795  1.00  0.00    -0.356 OA
HETATM   25  C   UNL     1      31.252  44.633  58.047  1.00  0.00     0.210 C 
ENDBRANCH  22  24
ENDBRANCH  12  14
ENDBRANCH   9  12
ENDBRANCH   1   8
BRANCH   4  26
HETATM   26  C   UNL     1      23.208  40.652  46.893  1.00  0.00     0.257 C 
HETATM   27  N   UNL     1      22.679  41.659  46.125  1.00  0.00    -0.352 N 
HETATM   28  H   UNL     1      22.708  42.608  46.499  1.00  0.00     0.163 HD
HETATM   29  O   UNL     1      23.105  39.463  46.610  1.00  0.00    -0.267 OA
BRANCH  27  30
HETATM   30  C   UNL     1      21.865  41.418  44.941  1.00  0.00     0.084 C 
HETATM   31  C   UNL     1      20.373  41.380  45.297  1.00  0.00     0.025 C 
HETATM   32  C   UNL     1      19.821  42.760  45.653  1.00  0.00     0.002 C 
HETATM   33  C   UNL     1      20.102  43.780  44.554  1.00  0.00     0.000 C 
HETATM   34  C   UNL     1      21.587  43.852  44.215  1.00  0.00     0.002 C 
HETATM   35  C   UNL     1      22.154  42.475  43.866  1.00  0.00     0.025 C 
ENDBRANCH  27  30
ENDBRANCH   4  26
BRANCH   6  36
HETATM   36  C   UNL     1      27.080  40.049  49.812  1.00  0.00     0.089 A 
HETATM   37  C   UNL     1      28.371  40.460  49.153  1.00  0.00     0.028 A 
HETATM   38  C   UNL     1      28.190  40.662  50.626  1.00  0.00     0.028 A 
ENDBRANCH   6  36
TORSDOF 7
ENDMDL
