MODEL 1
REMARK VINA RESULT:      -8.0      0.000      0.000
REMARK  3 active torsions:
REMARK  status: ('A' for Active; 'I' for Inactive)
REMARK    1  A    between atoms: C_9  and  C_10 
REMARK    2  A    between atoms: C_16  and  C_17 
REMARK       I    between atoms: C_17  and  N_18 
REMARK    3  A    between atoms: N_18  and  C_19 
ROOT
HETATM    1  C   UNL     1      25.022  46.903  51.631  1.00  0.00     0.070 C 
HETATM    2  C   UNL     1      24.636  45.582  51.014  1.00  0.00     0.037 C 
HETATM    3  N   UNL     1      23.789  45.658  49.912  1.00  0.00    -0.191 N 
HETATM    4  C   UNL     1      23.167  44.578  49.392  1.00  0.00     0.735 A 
HETATM    5  N   UNL     1      23.479  43.334  49.865  1.00  0.00    -0.092 N 
HETATM    6  N   UNL     1      22.703  42.409  49.281  1.00  0.00     0.012 NA
HETATM    7  N   UNL     1      21.957  43.095  48.419  1.00  0.00     0.033 NA
HETATM    8  N   UNL     1      22.235  44.448  48.480  1.00  0.00     0.030 NA
HETATM    9  C   UNL     1      24.476  43.065  50.897  1.00  0.00     0.198 C 
HETATM   10  C   UNL     1      25.000  44.367  51.497  1.00  0.00     0.062 C 
HETATM   11  H   UNL     1      23.467  46.581  49.629  1.00  0.00     0.184 HD
ENDROOT
BRANCH  10  12
HETATM   12  C   UNL     1      25.833  44.179  52.713  1.00  0.00     0.256 C 
HETATM   13  N   UNL     1      27.187  44.198  52.460  1.00  0.00    -0.322 N 
HETATM   14  H   UNL     1      27.481  44.299  51.497  1.00  0.00     0.169 HD
HETATM   15  O   UNL     1      25.281  43.984  53.786  1.00  0.00    -0.267 OA
BRANCH  13  16
HETATM   16  C   UNL     1      28.218  44.093  53.418  1.00  0.00     0.052 A 
HETATM   17  C   UNL     1      28.373  44.921  54.526  1.00  0.00     0.145 A 
HETATM   18  N   UNL     1      29.386  44.811  55.424  1.00  0.00    -0.271 NA
HETATM   19  C   UNL     1      30.290  43.834  55.209  1.00  0.00     0.116 A 
HETATM   20  C   UNL     1      30.228  42.959  54.140  1.00  0.00     0.021 A 
HETATM   21  C   UNL     1      29.174  43.091  53.236  1.00  0.00     0.032 A 
ENDBRANCH  13  16
ENDBRANCH  10  12
BRANCH   9  22
HETATM   22  C   UNL     1      25.609  42.199  50.349  1.00  0.00    -0.029 A 
HETATM   23  C   UNL     1      26.026  41.018  50.987  1.00  0.00     0.009 A 
HETATM   24  C   UNL     1      27.055  40.244  50.449  1.00  0.00     0.001 A 
HETATM   25  C   UNL     1      27.670  40.627  49.259  1.00  0.00     0.000 A 
HETATM   26  C   UNL     1      27.256  41.784  48.604  1.00  0.00     0.001 A 
HETATM   27  C   UNL     1      26.231  42.564  49.142  1.00  0.00     0.009 A 
ENDBRANCH   9  22
TORSDOF 3
ENDMDL
MODEL 2
REMARK VINA RESULT:      -7.9      3.071      5.760
REMARK  3 active torsions:
REMARK  status: ('A' for Active; 'I' for Inactive)
REMARK    1  A    between atoms: C_9  and  C_10 
REMARK    2  A    between atoms: C_16  and  C_17 
REMARK       I    between atoms: C_17  and  N_18 
REMARK    3  A    between atoms: N_18  and  C_19 
ROOT
HETATM    1  C   UNL     1      30.228  43.159  54.342  1.00  0.00     0.070 C 
HETATM    2  C   UNL     1      28.933  43.895  54.100  1.00  0.00     0.037 C 
HETATM    3  N   UNL     1      28.885  45.201  54.579  1.00  0.00    -0.191 N 
HETATM    4  C   UNL     1      27.739  45.909  54.655  1.00  0.00     0.735 A 
HETATM    5  N   UNL     1      26.594  45.393  54.115  1.00  0.00    -0.092 N 
HETATM    6  N   UNL     1      25.557  46.207  54.362  1.00  0.00     0.012 NA
HETATM    7  N   UNL     1      26.090  47.239  55.009  1.00  0.00     0.033 NA
HETATM    8  N   UNL     1      27.448  47.066  55.200  1.00  0.00     0.030 NA
HETATM    9  C   UNL     1      26.511  44.111  53.420  1.00  0.00     0.198 C 
HETATM   10  C   UNL     1      27.830  43.350  53.525  1.00  0.00     0.062 C 
HETATM   11  H   UNL     1      29.700  45.548  55.081  1.00  0.00     0.184 HD
ENDROOT
BRANCH  10  12
HETATM   12  C   UNL     1      27.754  41.943  53.056  1.00  0.00     0.256 C 
HETATM   13  N   UNL     1      27.889  41.810  51.692  1.00  0.00    -0.322 N 
HETATM   14  H   UNL     1      27.988  42.658  51.148  1.00  0.00     0.169 HD
HETATM   15  O   UNL     1      27.541  41.057  53.871  1.00  0.00    -0.267 OA
BRANCH  13  16
HETATM   16  C   UNL     1      27.907  40.599  50.967  1.00  0.00     0.052 A 
HETATM   17  C   UNL     1      28.981  39.715  50.904  1.00  0.00     0.145 A 
HETATM   18  N   UNL     1      28.979  38.564  50.183  1.00  0.00    -0.271 NA
HETATM   19  C   UNL     1      27.858  38.279  49.490  1.00  0.00     0.116 A 
HETATM   20  C   UNL     1      26.737  39.088  49.486  1.00  0.00     0.021 A 
HETATM   21  C   UNL     1      26.764  40.262  50.238  1.00  0.00     0.032 A 
ENDBRANCH  13  16
ENDBRANCH  10  12
BRANCH   9  22
HETATM   22  C   UNL     1      26.085  44.306  51.966  1.00  0.00    -0.029 A 
HETATM   23  C   UNL     1      26.875  45.014  51.043  1.00  0.00     0.009 A 
HETATM   24  C   UNL     1      26.461  45.160  49.718  1.00  0.00     0.001 A 
HETATM   25  C   UNL     1      25.264  44.589  49.292  1.00  0.00     0.000 A 
HETATM   26  C   UNL     1      24.480  43.868  50.189  1.00  0.00     0.001 A 
HETATM   27  C   UNL     1      24.886  43.724  51.516  1.00  0.00     0.009 A 
ENDBRANCH   9  22
TORSDOF 3
ENDMDL
MODEL 3
REMARK VINA RESULT:      -7.8      4.373      8.331
REMARK  3 active torsions:
REMARK  status: ('A' for Active; 'I' for Inactive)
REMARK    1  A    between atoms: C_9  and  C_10 
REMARK    2  A    between atoms: C_16  and  C_17 
REMARK       I    between atoms: C_17  and  N_18 
REMARK    3  A    between atoms: N_18  and  C_19 
ROOT
HETATM    1  C   UNL     1      22.204  44.642  48.047  1.00  0.00     0.070 C 
HETATM    2  C   UNL     1      23.198  45.321  48.956  1.00  0.00     0.037 C 
HETATM    3  N   UNL     1      24.041  44.470  49.666  1.00  0.00    -0.191 N 
HETATM    4  C   UNL     1      24.818  44.896  50.685  1.00  0.00     0.735 A 
HETATM    5  N   UNL     1      24.899  46.234  50.952  1.00  0.00    -0.092 N 
HETATM    6  N   UNL     1      25.652  46.443  52.042  1.00  0.00     0.012 NA
HETATM    7  N   UNL     1      26.065  45.231  52.401  1.00  0.00     0.033 NA
HETATM    8  N   UNL     1      25.551  44.257  51.564  1.00  0.00     0.030 NA
HETATM    9  C   UNL     1      24.215  47.275  50.190  1.00  0.00     0.198 C 
HETATM   10  C   UNL     1      23.266  46.660  49.164  1.00  0.00     0.062 C 
HETATM   11  H   UNL     1      23.905  43.468  49.550  1.00  0.00     0.184 HD
ENDROOT
BRANCH  10  12
HETATM   12  C   UNL     1      22.359  47.643  48.517  1.00  0.00     0.256 C 
HETATM   13  N   UNL     1      21.528  48.292  49.403  1.00  0.00    -0.322 N 
HETATM   14  H   UNL     1      21.584  48.023  50.378  1.00  0.00     0.169 HD
HETATM   15  O   UNL     1      22.384  47.761  47.300  1.00  0.00    -0.267 OA
BRANCH  13  16
HETATM   16  C   UNL     1      20.599  49.306  49.089  1.00  0.00     0.052 A 
HETATM   17  C   UNL     1      19.218  49.141  49.026  1.00  0.00     0.145 A 
HETATM   18  N   UNL     1      18.347  50.131  48.703  1.00  0.00    -0.271 NA
HETATM   19  C   UNL     1      18.871  51.342  48.426  1.00  0.00     0.116 A 
HETATM   20  C   UNL     1      20.228  51.611  48.460  1.00  0.00     0.021 A 
HETATM   21  C   UNL     1      21.100  50.578  48.800  1.00  0.00     0.032 A 
ENDBRANCH  13  16
ENDBRANCH  10  12
BRANCH   9  22
HETATM   22  C   UNL     1      25.221  48.220  49.535  1.00  0.00    -0.029 A 
HETATM   23  C   UNL     1      24.820  49.362  48.819  1.00  0.00     0.009 A 
HETATM   24  C   UNL     1      25.768  50.211  48.247  1.00  0.00     0.001 A 
HETATM   25  C   UNL     1      27.127  49.943  48.393  1.00  0.00     0.000 A 
HETATM   26  C   UNL     1      27.541  48.826  49.115  1.00  0.00     0.001 A 
HETATM   27  C   UNL     1      26.597  47.971  49.684  1.00  0.00     0.009 A 
ENDBRANCH   9  22
TORSDOF 3
ENDMDL
MODEL 4
REMARK VINA RESULT:      -7.7      5.485      8.066
REMARK  3 active torsions:
REMARK  status: ('A' for Active; 'I' for Inactive)
REMARK    1  A    between atoms: C_9  and  C_10 
REMARK    2  A    between atoms: C_16  and  C_17 
REMARK       I    between atoms: C_17  and  N_18 
REMARK    3  A    between atoms: N_18  and  C_19 
ROOT
HETATM    1  C   UNL     1      23.126  51.086  48.074  1.00  0.00     0.070 C 
HETATM    2  C   UNL     1      21.762  50.591  48.486  1.00  0.00     0.037 C 
HETATM    3  N   UNL     1      20.819  51.581  48.749  1.00  0.00    -0.191 N 
HETATM    4  C   UNL     1      19.637  51.322  49.348  1.00  0.00     0.735 A 
HETATM    5  N   UNL     1      19.274  50.025  49.584  1.00  0.00    -0.092 N 
HETATM    6  N   UNL     1      18.112  49.983  50.252  1.00  0.00     0.012 NA
HETATM    7  N   UNL     1      17.751  51.258  50.374  1.00  0.00     0.033 NA
HETATM    8  N   UNL     1      18.693  52.102  49.816  1.00  0.00     0.030 NA
HETATM    9  C   UNL     1      20.072  48.860  49.209  1.00  0.00     0.198 C 
HETATM   10  C   UNL     1      21.436  49.287  48.674  1.00  0.00     0.062 C 
HETATM   11  H   UNL     1      21.122  52.550  48.681  1.00  0.00     0.184 HD
ENDROOT
BRANCH  10  12
HETATM   12  C   UNL     1      22.393  48.164  48.497  1.00  0.00     0.256 C 
HETATM   13  N   UNL     1      23.176  47.930  49.606  1.00  0.00    -0.322 N 
HETATM   14  H   UNL     1      23.058  48.546  50.400  1.00  0.00     0.169 HD
HETATM   15  O   UNL     1      22.443  47.592  47.418  1.00  0.00    -0.267 OA
BRANCH  13  16
HETATM   16  C   UNL     1      24.135  46.904  49.750  1.00  0.00     0.052 A 
HETATM   17  C   UNL     1      23.855  45.541  49.784  1.00  0.00     0.145 A 
HETATM   18  N   UNL     1      24.796  44.574  49.943  1.00  0.00    -0.271 NA
HETATM   19  C   UNL     1      26.074  44.981  50.078  1.00  0.00     0.116 A 
HETATM   20  C   UNL     1      26.458  46.310  50.058  1.00  0.00     0.021 A 
HETATM   21  C   UNL     1      25.473  47.282  49.888  1.00  0.00     0.032 A 
ENDBRANCH  13  16
ENDBRANCH  10  12
BRANCH   9  22
HETATM   22  C   UNL     1      19.320  47.985  48.208  1.00  0.00    -0.029 A 
HETATM   23  C   UNL     1      18.878  46.689  48.528  1.00  0.00     0.009 A 
HETATM   24  C   UNL     1      18.181  45.924  47.593  1.00  0.00     0.001 A 
HETATM   25  C   UNL     1      17.901  46.445  46.331  1.00  0.00     0.000 A 
HETATM   26  C   UNL     1      18.314  47.734  46.005  1.00  0.00     0.001 A 
HETATM   27  C   UNL     1      19.016  48.501  46.935  1.00  0.00     0.009 A 
ENDBRANCH   9  22
TORSDOF 3
ENDMDL
MODEL 5
REMARK VINA RESULT:      -7.6      2.275      5.365
REMARK  3 active torsions:
REMARK  status: ('A' for Active; 'I' for Inactive)
REMARK    1  A    between atoms: C_9  and  C_10 
REMARK    2  A    between atoms: C_16  and  C_17 
REMARK       I    between atoms: C_17  and  N_18 
REMARK    3  A    between atoms: N_18  and  C_19 
ROOT
HETATM    1  C   UNL     1      22.801  43.244  49.310  1.00  0.00     0.070 C 
HETATM    2  C   UNL     1      23.893  44.161  49.802  1.00  0.00     0.037 C 
HETATM    3  N   UNL     1      23.534  45.498  49.946  1.00  0.00    -0.191 N 
HETATM    4  C   UNL     1      24.439  46.480  50.147  1.00  0.00     0.735 A 
HETATM    5  N   UNL     1      25.749  46.150  50.360  1.00  0.00    -0.092 N 
HETATM    6  N   UNL     1      26.496  47.260  50.458  1.00  0.00     0.012 NA
HETATM    7  N   UNL     1      25.624  48.259  50.354  1.00  0.00     0.033 NA
HETATM    8  N   UNL     1      24.339  47.787  50.158  1.00  0.00     0.030 NA
HETATM    9  C   UNL     1      26.262  44.784  50.415  1.00  0.00     0.198 C 
HETATM   10  C   UNL     1      25.174  43.781  50.035  1.00  0.00     0.062 C 
HETATM   11  H   UNL     1      22.588  45.763  49.680  1.00  0.00     0.184 HD
ENDROOT
BRANCH  10  12
HETATM   12  C   UNL     1      25.675  42.397  49.833  1.00  0.00     0.256 C 
HETATM   13  N   UNL     1      26.430  42.246  48.691  1.00  0.00    -0.322 N 
HETATM   14  H   UNL     1      26.542  43.057  48.095  1.00  0.00     0.169 HD
HETATM   15  O   UNL     1      25.354  41.529  50.631  1.00  0.00    -0.267 OA
BRANCH  13  16
HETATM   16  C   UNL     1      27.074  41.066  48.264  1.00  0.00     0.052 A 
HETATM   17  C   UNL     1      26.673  40.273  47.192  1.00  0.00     0.145 A 
HETATM   18  N   UNL     1      27.301  39.129  46.814  1.00  0.00    -0.271 NA
HETATM   19  C   UNL     1      28.375  38.754  47.536  1.00  0.00     0.116 A 
HETATM   20  C   UNL     1      28.855  39.469  48.618  1.00  0.00     0.021 A 
HETATM   21  C   UNL     1      28.195  40.642  48.983  1.00  0.00     0.032 A 
ENDBRANCH  13  16
ENDBRANCH  10  12
BRANCH   9  22
HETATM   22  C   UNL     1      26.856  44.479  51.789  1.00  0.00    -0.029 A 
HETATM   23  C   UNL     1      26.125  44.654  52.977  1.00  0.00     0.009 A 
HETATM   24  C   UNL     1      26.696  44.351  54.214  1.00  0.00     0.001 A 
HETATM   25  C   UNL     1      27.996  43.856  54.282  1.00  0.00     0.000 A 
HETATM   26  C   UNL     1      28.727  43.659  53.113  1.00  0.00     0.001 A 
HETATM   27  C   UNL     1      28.162  43.965  51.874  1.00  0.00     0.009 A 
ENDBRANCH   9  22
TORSDOF 3
ENDMDL
MODEL 6
REMARK VINA RESULT:      -7.6      3.211      7.863
REMARK  3 active torsions:
REMARK  status: ('A' for Active; 'I' for Inactive)
REMARK    1  A    between atoms: C_9  and  C_10 
REMARK    2  A    between atoms: C_16  and  C_17 
REMARK       I    between atoms: C_17  and  N_18 
REMARK    3  A    between atoms: N_18  and  C_19 
ROOT
HETATM    1  C   UNL     1      25.042  42.935  49.978  1.00  0.00     0.070 C 
HETATM    2  C   UNL     1      25.206  44.322  50.546  1.00  0.00     0.037 C 
HETATM    3  N   UNL     1      26.039  44.421  51.657  1.00  0.00    -0.191 N 
HETATM    4  C   UNL     1      26.109  45.532  52.421  1.00  0.00     0.735 A 
HETATM    5  N   UNL     1      25.450  46.662  52.023  1.00  0.00    -0.092 N 
HETATM    6  N   UNL     1      25.577  47.623  52.950  1.00  0.00     0.012 NA
HETATM    7  N   UNL     1      26.357  47.085  53.884  1.00  0.00     0.033 NA
HETATM    8  N   UNL     1      26.694  45.782  53.568  1.00  0.00     0.030 NA
HETATM    9  C   UNL     1      24.675  46.778  50.791  1.00  0.00     0.198 C 
HETATM   10  C   UNL     1      24.557  45.425  50.094  1.00  0.00     0.062 C 
HETATM   11  H   UNL     1      26.442  43.560  52.022  1.00  0.00     0.184 HD
ENDROOT
BRANCH  10  12
HETATM   12  C   UNL     1      23.588  45.408  48.969  1.00  0.00     0.256 C 
HETATM   13  N   UNL     1      22.348  45.907  49.302  1.00  0.00    -0.322 N 
HETATM   14  H   UNL     1      22.205  46.197  50.261  1.00  0.00     0.169 HD
HETATM   15  O   UNL     1      23.933  44.932  47.896  1.00  0.00    -0.267 OA
BRANCH  13  16
HETATM   16  C   UNL     1      21.248  46.061  48.433  1.00  0.00     0.052 A 
HETATM   17  C   UNL     1      20.130  45.231  48.395  1.00  0.00     0.145 A 
HETATM   18  N   UNL     1      19.092  45.391  47.535  1.00  0.00    -0.271 NA
HETATM   19  C   UNL     1      19.167  46.421  46.669  1.00  0.00     0.116 A 
HETATM   20  C   UNL     1      20.231  47.304  46.625  1.00  0.00     0.021 A 
HETATM   21  C   UNL     1      21.283  47.120  47.522  1.00  0.00     0.032 A 
ENDBRANCH  13  16
ENDBRANCH  10  12
BRANCH   9  22
HETATM   22  C   UNL     1      25.273  47.839  49.869  1.00  0.00    -0.029 A 
HETATM   23  C   UNL     1      24.478  48.790  49.205  1.00  0.00     0.009 A 
HETATM   24  C   UNL     1      25.061  49.754  48.382  1.00  0.00     0.001 A 
HETATM   25  C   UNL     1      26.444  49.794  48.222  1.00  0.00     0.000 A 
HETATM   26  C   UNL     1      27.247  48.871  48.888  1.00  0.00     0.001 A 
HETATM   27  C   UNL     1      26.669  47.902  49.708  1.00  0.00     0.009 A 
ENDBRANCH   9  22
TORSDOF 3
ENDMDL
MODEL 7
REMARK VINA RESULT:      -7.6      2.531      4.340
REMARK  3 active torsions:
REMARK  status: ('A' for Active; 'I' for Inactive)
REMARK    1  A    between atoms: C_9  and  C_10 
REMARK    2  A    between atoms: C_16  and  C_17 
REMARK       I    between atoms: C_17  and  N_18 
REMARK    3  A    between atoms: N_18  and  C_19 
ROOT
HETATM    1  C   UNL     1      28.037  40.436  53.489  1.00  0.00     0.070 C 
HETATM    2  C   UNL     1      27.592  41.145  52.234  1.00  0.00     0.037 C 
HETATM    3  N   UNL     1      26.776  40.405  51.383  1.00  0.00    -0.191 N 
HETATM    4  C   UNL     1      26.486  40.798  50.125  1.00  0.00     0.735 A 
HETATM    5  N   UNL     1      26.884  42.035  49.700  1.00  0.00    -0.092 N 
HETATM    6  N   UNL     1      26.572  42.204  48.407  1.00  0.00     0.012 NA
HETATM    7  N   UNL     1      25.941  41.083  48.067  1.00  0.00     0.033 NA
HETATM    8  N   UNL     1      25.882  40.198  49.128  1.00  0.00     0.030 NA
HETATM    9  C   UNL     1      27.596  43.006  50.527  1.00  0.00     0.198 C 
HETATM   10  C   UNL     1      27.985  42.392  51.870  1.00  0.00     0.062 C 
HETATM   11  H   UNL     1      26.572  39.443  51.646  1.00  0.00     0.184 HD
ENDROOT
BRANCH  10  12
HETATM   12  C   UNL     1      28.916  43.230  52.669  1.00  0.00     0.256 C 
HETATM   13  N   UNL     1      28.417  43.585  53.902  1.00  0.00    -0.322 N 
HETATM   14  H   UNL     1      27.478  43.282  54.130  1.00  0.00     0.169 HD
HETATM   15  O   UNL     1      29.984  43.564  52.175  1.00  0.00    -0.267 OA
BRANCH  13  16
HETATM   16  C   UNL     1      29.090  44.331  54.893  1.00  0.00     0.052 A 
HETATM   17  C   UNL     1      28.711  45.592  55.345  1.00  0.00     0.145 A 
HETATM   18  N   UNL     1      29.388  46.298  56.288  1.00  0.00    -0.271 NA
HETATM   19  C   UNL     1      30.494  45.726  56.804  1.00  0.00     0.116 A 
HETATM   20  C   UNL     1      30.956  44.478  56.424  1.00  0.00     0.021 A 
HETATM   21  C   UNL     1      30.239  43.773  55.458  1.00  0.00     0.032 A 
ENDBRANCH  13  16
ENDBRANCH  10  12
BRANCH   9  22
HETATM   22  C   UNL     1      26.770  44.279  50.706  1.00  0.00    -0.029 A 
HETATM   23  C   UNL     1      27.037  45.453  49.979  1.00  0.00     0.009 A 
HETATM   24  C   UNL     1      26.252  46.593  50.158  1.00  0.00     0.001 A 
HETATM   25  C   UNL     1      25.182  46.574  51.049  1.00  0.00     0.000 A 
HETATM   26  C   UNL     1      24.892  45.413  51.761  1.00  0.00     0.001 A 
HETATM   27  C   UNL     1      25.677  44.272  51.591  1.00  0.00     0.009 A 
ENDBRANCH   9  22
TORSDOF 3
ENDMDL
MODEL 8
REMARK VINA RESULT:      -7.4      2.827      4.659
REMARK  3 active torsions:
REMARK  status: ('A' for Active; 'I' for Inactive)
REMARK    1  A    between atoms: C_9  and  C_10 
REMARK    2  A    between atoms: C_16  and  C_17 
REMARK       I    between atoms: C_17  and  N_18 
REMARK    3  A    between atoms: N_18  and  C_19 
ROOT
HETATM    1  C   UNL     1      28.373  40.673  53.456  1.00  0.00     0.070 C 
HETATM    2  C   UNL     1      27.919  41.096  52.081  1.00  0.00     0.037 C 
HETATM    3  N   UNL     1      27.616  40.060  51.203  1.00  0.00    -0.191 N 
HETATM    4  C   UNL     1      27.424  40.254  49.881  1.00  0.00     0.735 A 
HETATM    5  N   UNL     1      27.383  41.530  49.390  1.00  0.00    -0.092 N 
HETATM    6  N   UNL     1      27.264  41.509  48.054  1.00  0.00     0.012 NA
HETATM    7  N   UNL     1      27.184  40.217  47.747  1.00  0.00     0.033 NA
HETATM    8  N   UNL     1      27.284  39.425  48.876  1.00  0.00     0.030 NA
HETATM    9  C   UNL     1      27.508  42.736  50.205  1.00  0.00     0.198 C 
HETATM   10  C   UNL     1      27.859  42.381  51.648  1.00  0.00     0.062 C 
HETATM   11  H   UNL     1      27.754  39.107  51.534  1.00  0.00     0.184 HD
ENDROOT
BRANCH  10  12
HETATM   12  C   UNL     1      28.239  43.551  52.481  1.00  0.00     0.256 C 
HETATM   13  N   UNL     1      27.160  44.213  53.024  1.00  0.00    -0.322 N 
HETATM   14  H   UNL     1      26.237  43.875  52.785  1.00  0.00     0.169 HD
HETATM   15  O   UNL     1      29.420  43.851  52.577  1.00  0.00    -0.267 OA
BRANCH  13  16
HETATM   16  C   UNL     1      27.212  45.324  53.892  1.00  0.00     0.052 A 
HETATM   17  C   UNL     1      28.000  45.414  55.037  1.00  0.00     0.145 A 
HETATM   18  N   UNL     1      28.017  46.490  55.867  1.00  0.00    -0.271 NA
HETATM   19  C   UNL     1      27.212  47.522  55.547  1.00  0.00     0.116 A 
HETATM   20  C   UNL     1      26.391  47.534  54.433  1.00  0.00     0.021 A 
HETATM   21  C   UNL     1      26.397  46.419  53.595  1.00  0.00     0.032 A 
ENDBRANCH  13  16
ENDBRANCH  10  12
BRANCH   9  22
HETATM   22  C   UNL     1      26.239  43.582  50.123  1.00  0.00    -0.029 A 
HETATM   23  C   UNL     1      26.244  44.894  49.619  1.00  0.00     0.009 A 
HETATM   24  C   UNL     1      25.062  45.633  49.546  1.00  0.00     0.001 A 
HETATM   25  C   UNL     1      23.857  45.068  49.959  1.00  0.00     0.000 A 
HETATM   26  C   UNL     1      23.832  43.762  50.442  1.00  0.00     0.001 A 
HETATM   27  C   UNL     1      25.012  43.022  50.523  1.00  0.00     0.009 A 
ENDBRANCH   9  22
TORSDOF 3
ENDMDL
MODEL 9
REMARK VINA RESULT:      -7.4     12.389     14.001
REMARK  3 active torsions:
REMARK  status: ('A' for Active; 'I' for Inactive)
REMARK    1  A    between atoms: C_9  and  C_10 
REMARK    2  A    between atoms: C_16  and  C_17 
REMARK       I    between atoms: C_17  and  N_18 
REMARK    3  A    between atoms: N_18  and  C_19 
ROOT
HETATM    1  C   UNL     1      25.286  48.642  39.715  1.00  0.00     0.070 C 
HETATM    2  C   UNL     1      26.679  49.137  39.413  1.00  0.00     0.037 C 
HETATM    3  N   UNL     1      26.771  50.470  39.024  1.00  0.00    -0.191 N 
HETATM    4  C   UNL     1      27.895  51.001  38.498  1.00  0.00     0.735 A 
HETATM    5  N   UNL     1      29.039  50.254  38.468  1.00  0.00    -0.092 N 
HETATM    6  N   UNL     1      30.015  50.926  37.839  1.00  0.00     0.012 NA
HETATM    7  N   UNL     1      29.469  52.100  37.535  1.00  0.00     0.033 NA
HETATM    8  N   UNL     1      28.148  52.160  37.938  1.00  0.00     0.030 NA
HETATM    9  C   UNL     1      29.158  48.898  38.997  1.00  0.00     0.198 C 
HETATM   10  C   UNL     1      27.795  48.365  39.431  1.00  0.00     0.062 C 
HETATM   11  H   UNL     1      25.904  50.996  38.939  1.00  0.00     0.184 HD
ENDROOT
BRANCH  10  12
HETATM   12  C   UNL     1      27.789  46.915  39.754  1.00  0.00     0.256 C 
HETATM   13  N   UNL     1      27.927  46.105  38.648  1.00  0.00    -0.322 N 
HETATM   14  H   UNL     1      27.982  46.555  37.743  1.00  0.00     0.169 HD
HETATM   15  O   UNL     1      27.624  46.566  40.914  1.00  0.00    -0.267 OA
BRANCH  13  16
HETATM   16  C   UNL     1      28.005  44.696  38.649  1.00  0.00     0.052 A 
HETATM   17  C   UNL     1      29.183  43.955  38.613  1.00  0.00     0.145 A 
HETATM   18  N   UNL     1      29.229  42.598  38.596  1.00  0.00    -0.271 NA
HETATM   19  C   UNL     1      28.050  41.945  38.611  1.00  0.00     0.116 A 
HETATM   20  C   UNL     1      26.824  42.585  38.646  1.00  0.00     0.021 A 
HETATM   21  C   UNL     1      26.805  43.979  38.669  1.00  0.00     0.032 A 
ENDBRANCH  13  16
ENDBRANCH  10  12
BRANCH   9  22
HETATM   22  C   UNL     1      30.175  48.844  40.135  1.00  0.00    -0.029 A 
HETATM   23  C   UNL     1      29.978  49.523  41.350  1.00  0.00     0.009 A 
HETATM   24  C   UNL     1      30.923  49.439  42.373  1.00  0.00     0.001 A 
HETATM   25  C   UNL     1      32.068  48.663  42.206  1.00  0.00     0.000 A 
HETATM   26  C   UNL     1      32.269  47.968  41.016  1.00  0.00     0.001 A 
HETATM   27  C   UNL     1      31.330  48.054  39.988  1.00  0.00     0.009 A 
ENDBRANCH   9  22
TORSDOF 3
ENDMDL
MODEL 10
REMARK VINA RESULT:      -7.4      2.869      4.548
REMARK  3 active torsions:
REMARK  status: ('A' for Active; 'I' for Inactive)
REMARK    1  A    between atoms: C_9  and  C_10 
REMARK    2  A    between atoms: C_16  and  C_17 
REMARK       I    between atoms: C_17  and  N_18 
REMARK    3  A    between atoms: N_18  and  C_19 
ROOT
HETATM    1  C   UNL     1      27.588  41.221  53.497  1.00  0.00     0.070 C 
HETATM    2  C   UNL     1      27.386  41.466  52.022  1.00  0.00     0.037 C 
HETATM    3  N   UNL     1      27.953  40.520  51.173  1.00  0.00    -0.191 N 
HETATM    4  C   UNL     1      28.068  40.709  49.841  1.00  0.00     0.735 A 
HETATM    5  N   UNL     1      27.484  41.804  49.267  1.00  0.00    -0.092 N 
HETATM    6  N   UNL     1      27.778  41.853  47.959  1.00  0.00     0.012 NA
HETATM    7  N   UNL     1      28.499  40.757  47.738  1.00  0.00     0.033 NA
HETATM    8  N   UNL     1      28.688  40.036  48.902  1.00  0.00     0.030 NA
HETATM    9  C   UNL     1      26.702  42.802  49.991  1.00  0.00     0.198 C 
HETATM   10  C   UNL     1      26.766  42.553  51.496  1.00  0.00     0.062 C 
HETATM   11  H   UNL     1      28.485  39.764  51.599  1.00  0.00     0.184 HD
ENDROOT
BRANCH  10  12
HETATM   12  C   UNL     1      26.200  43.656  52.315  1.00  0.00     0.256 C 
HETATM   13  N   UNL     1      27.143  44.568  52.736  1.00  0.00    -0.322 N 
HETATM   14  H   UNL     1      28.108  44.389  52.489  1.00  0.00     0.169 HD
HETATM   15  O   UNL     1      25.006  43.646  52.579  1.00  0.00    -0.267 OA
BRANCH  13  16
HETATM   16  C   UNL     1      26.897  45.739  53.483  1.00  0.00     0.052 A 
HETATM   17  C   UNL     1      25.868  46.645  53.243  1.00  0.00     0.145 A 
HETATM   18  N   UNL     1      25.664  47.777  53.966  1.00  0.00    -0.271 NA
HETATM   19  C   UNL     1      26.526  48.021  54.974  1.00  0.00     0.116 A 
HETATM   20  C   UNL     1      27.581  47.186  55.296  1.00  0.00     0.021 A 
HETATM   21  C   UNL     1      27.764  46.029  54.541  1.00  0.00     0.032 A 
ENDBRANCH  13  16
ENDBRANCH  10  12
BRANCH   9  22
HETATM   22  C   UNL     1      25.261  42.838  49.485  1.00  0.00    -0.029 A 
HETATM   23  C   UNL     1      24.445  41.693  49.466  1.00  0.00     0.009 A 
HETATM   24  C   UNL     1      23.128  41.767  49.010  1.00  0.00     0.001 A 
HETATM   25  C   UNL     1      22.602  42.984  48.583  1.00  0.00     0.000 A 
HETATM   26  C   UNL     1      23.391  44.131  48.614  1.00  0.00     0.001 A 
HETATM   27  C   UNL     1      24.711  44.061  49.064  1.00  0.00     0.009 A 
ENDBRANCH   9  22
TORSDOF 3
ENDMDL
