MODEL 1
REMARK VINA RESULT:      -9.5      0.000      0.000
REMARK  8 active torsions:
REMARK  status: ('A' for Active; 'I' for Inactive)
REMARK    1  A    between atoms: O_2  and  C_3 
REMARK    2  A    between atoms: C_3  and  C_4 
REMARK    3  A    between atoms: C_5  and  C_6 
REMARK    4  A    between atoms: C_6  and  C_7 
REMARK    5  A    between atoms: C_7  and  N_8 
REMARK    6  A    between atoms: N_13  and  C_14 
REMARK    7  A    between atoms: C_14  and  C_15 
REMARK    8  A    between atoms: C_15  and  N_16 
ROOT
HETATM    1  N   UNL     1      25.261  46.601  50.034  1.00  0.00    -0.174 N 
HETATM    2  C   UNL     1      23.982  46.684  49.538  1.00  0.00     0.681 C 
HETATM    3  N   UNL     1      23.107  45.668  49.564  1.00  0.00    -0.234 N 
HETATM    4  H   UNL     1      22.209  45.705  49.105  1.00  0.00     0.174 HD
HETATM    5  H   UNL     1      23.438  44.724  49.757  1.00  0.00     0.174 HD
HETATM    6  N   UNL     1      23.683  47.945  49.004  1.00  0.00    -0.180 N 
HETATM    7  C   UNL     1      24.955  48.603  48.956  1.00  0.00     0.079 A 
HETATM    8  C   UNL     1      25.905  47.795  49.603  1.00  0.00     0.079 A 
HETATM    9  C   UNL     1      25.313  49.788  48.349  1.00  0.00     0.032 A 
HETATM   10  C   UNL     1      26.662  50.156  48.408  1.00  0.00     0.002 A 
HETATM   11  C   UNL     1      27.610  49.347  49.065  1.00  0.00     0.002 A 
HETATM   12  C   UNL     1      27.234  48.147  49.674  1.00  0.00     0.032 A 
ENDROOT
BRANCH   1  13
HETATM   13  C   UNL     1      25.918  45.448  50.655  1.00  0.00     0.231 C 
BRANCH  13  14
HETATM   14  C   UNL     1      25.402  45.305  52.069  1.00  0.00     0.179 C 
HETATM   15  O   UNL     1      24.377  44.682  52.333  1.00  0.00    -0.290 OA
BRANCH  14  16
HETATM   16  C   UNL     1      26.156  45.982  53.146  1.00  0.00     0.028 A 
HETATM   17  C   UNL     1      27.263  45.351  53.730  1.00  0.00     0.053 A 
HETATM   18  C   UNL     1      28.017  46.023  54.700  1.00  0.00     0.018 A 
HETATM   19  C   UNL     1      27.655  47.313  55.090  1.00  0.00     0.001 A 
HETATM   20  C   UNL     1      26.542  47.934  54.518  1.00  0.00     0.001 A 
HETATM   21  C   UNL     1      25.792  47.274  53.543  1.00  0.00     0.016 A 
BRANCH  17  22
HETATM   22  C   UNL     1      27.573  43.945  53.397  1.00  0.00     0.293 C 
HETATM   23  O   UNL     1      26.988  43.003  53.919  1.00  0.00    -0.259 OA
BRANCH  22  24
HETATM   24  O   UNL     1      28.534  43.930  52.454  1.00  0.00    -0.322 OA
HETATM   25  C   UNL     1      29.671  43.104  52.708  1.00  0.00     0.213 C 
ENDBRANCH  22  24
ENDBRANCH  17  22
ENDBRANCH  14  16
ENDBRANCH  13  14
ENDBRANCH   1  13
BRANCH   6  26
HETATM   26  C   UNL     1      22.444  48.376  48.345  1.00  0.00     0.175 C 
BRANCH  26  27
HETATM   27  C   UNL     1      21.182  48.257  49.234  1.00  0.00     0.255 C 
BRANCH  27  28
HETATM   28  N   UNL     1      20.202  49.414  49.075  1.00  0.00    -0.070 N 
HETATM   29  H   UNL     1      19.634  49.246  48.234  1.00  0.00     0.279 HD
HETATM   30  C   UNL     1      19.258  49.566  50.257  1.00  0.00     0.235 C 
HETATM   31  C   UNL     1      18.256  50.677  49.972  1.00  0.00     0.028 C 
HETATM   32  C   UNL     1      18.956  52.001  49.694  1.00  0.00     0.003 C 
HETATM   33  C   UNL     1      19.975  51.852  48.571  1.00  0.00     0.028 C 
HETATM   34  C   UNL     1      20.957  50.722  48.841  1.00  0.00     0.235 C 
ENDBRANCH  27  28
ENDBRANCH  26  27
ENDBRANCH   6  26
TORSDOF 8
ENDMDL
MODEL 2
REMARK VINA RESULT:      -8.9      1.378      2.515
REMARK  8 active torsions:
REMARK  status: ('A' for Active; 'I' for Inactive)
REMARK    1  A    between atoms: O_2  and  C_3 
REMARK    2  A    between atoms: C_3  and  C_4 
REMARK    3  A    between atoms: C_5  and  C_6 
REMARK    4  A    between atoms: C_6  and  C_7 
REMARK    5  A    between atoms: C_7  and  N_8 
REMARK    6  A    between atoms: N_13  and  C_14 
REMARK    7  A    between atoms: C_14  and  C_15 
REMARK    8  A    between atoms: C_15  and  N_16 
ROOT
HETATM    1  N   UNL     1      25.317  46.360  50.008  1.00  0.00    -0.174 N 
HETATM    2  C   UNL     1      24.000  46.468  49.635  1.00  0.00     0.681 C 
HETATM    3  N   UNL     1      23.125  45.453  49.686  1.00  0.00    -0.234 N 
HETATM    4  H   UNL     1      22.190  45.514  49.312  1.00  0.00     0.174 HD
HETATM    5  H   UNL     1      23.468  44.499  49.799  1.00  0.00     0.174 HD
HETATM    6  N   UNL     1      23.660  47.755  49.196  1.00  0.00    -0.180 N 
HETATM    7  C   UNL     1      24.925  48.415  49.067  1.00  0.00     0.079 A 
HETATM    8  C   UNL     1      25.926  47.574  49.583  1.00  0.00     0.079 A 
HETATM    9  C   UNL     1      25.233  49.630  48.493  1.00  0.00     0.032 A 
HETATM   10  C   UNL     1      26.583  49.994  48.449  1.00  0.00     0.002 A 
HETATM   11  C   UNL     1      27.583  49.152  48.975  1.00  0.00     0.002 A 
HETATM   12  C   UNL     1      27.258  47.922  49.553  1.00  0.00     0.032 A 
ENDROOT
BRANCH   1  13
HETATM   13  C   UNL     1      26.022  45.176  50.507  1.00  0.00     0.231 C 
BRANCH  13  14
HETATM   14  C   UNL     1      25.694  45.003  51.972  1.00  0.00     0.179 C 
HETATM   15  O   UNL     1      24.543  45.063  52.398  1.00  0.00    -0.290 OA
BRANCH  14  16
HETATM   16  C   UNL     1      26.820  44.796  52.907  1.00  0.00     0.028 A 
HETATM   17  C   UNL     1      27.129  45.775  53.861  1.00  0.00     0.053 A 
HETATM   18  C   UNL     1      28.152  45.546  54.790  1.00  0.00     0.018 A 
HETATM   19  C   UNL     1      28.867  44.348  54.754  1.00  0.00     0.001 A 
HETATM   20  C   UNL     1      28.568  43.381  53.792  1.00  0.00     0.001 A 
HETATM   21  C   UNL     1      27.544  43.598  52.869  1.00  0.00     0.016 A 
BRANCH  17  22
HETATM   22  C   UNL     1      26.447  47.085  53.823  1.00  0.00     0.293 C 
HETATM   23  O   UNL     1      26.423  47.783  52.815  1.00  0.00    -0.259 OA
BRANCH  22  24
HETATM   24  O   UNL     1      25.881  47.309  55.024  1.00  0.00    -0.322 OA
HETATM   25  C   UNL     1      26.287  48.491  55.716  1.00  0.00     0.213 C 
ENDBRANCH  22  24
ENDBRANCH  17  22
ENDBRANCH  14  16
ENDBRANCH  13  14
ENDBRANCH   1  13
BRANCH   6  26
HETATM   26  C   UNL     1      22.368  48.220  48.674  1.00  0.00     0.175 C 
BRANCH  26  27
HETATM   27  C   UNL     1      21.792  49.448  49.418  1.00  0.00     0.255 C 
BRANCH  27  28
HETATM   28  N   UNL     1      20.932  50.354  48.545  1.00  0.00    -0.070 N 
HETATM   29  H   UNL     1      21.553  50.928  47.960  1.00  0.00     0.279 HD
HETATM   30  C   UNL     1      19.995  49.588  47.625  1.00  0.00     0.235 C 
HETATM   31  C   UNL     1      19.249  50.564  46.726  1.00  0.00     0.028 C 
HETATM   32  C   UNL     1      18.458  51.579  47.540  1.00  0.00     0.003 C 
HETATM   33  C   UNL     1      19.360  52.299  48.535  1.00  0.00     0.028 C 
HETATM   34  C   UNL     1      20.129  51.323  49.414  1.00  0.00     0.235 C 
ENDBRANCH  27  28
ENDBRANCH  26  27
ENDBRANCH   6  26
TORSDOF 8
ENDMDL
MODEL 3
REMARK VINA RESULT:      -8.7      1.644      2.216
REMARK  8 active torsions:
REMARK  status: ('A' for Active; 'I' for Inactive)
REMARK    1  A    between atoms: O_2  and  C_3 
REMARK    2  A    between atoms: C_3  and  C_4 
REMARK    3  A    between atoms: C_5  and  C_6 
REMARK    4  A    between atoms: C_6  and  C_7 
REMARK    5  A    between atoms: C_7  and  N_8 
REMARK    6  A    between atoms: N_13  and  C_14 
REMARK    7  A    between atoms: C_14  and  C_15 
REMARK    8  A    between atoms: C_15  and  N_16 
ROOT
HETATM    1  N   UNL     1      25.356  46.462  50.236  1.00  0.00    -0.174 N 
HETATM    2  C   UNL     1      24.030  46.500  49.876  1.00  0.00     0.681 C 
HETATM    3  N   UNL     1      23.193  45.461  50.007  1.00  0.00    -0.234 N 
HETATM    4  H   UNL     1      22.251  45.465  49.645  1.00  0.00     0.174 HD
HETATM    5  H   UNL     1      23.571  44.529  50.178  1.00  0.00     0.174 HD
HETATM    6  N   UNL     1      23.640  47.743  49.359  1.00  0.00    -0.180 N 
HETATM    7  C   UNL     1      24.879  48.436  49.168  1.00  0.00     0.079 A 
HETATM    8  C   UNL     1      25.915  47.665  49.723  1.00  0.00     0.079 A 
HETATM    9  C   UNL     1      25.137  49.620  48.511  1.00  0.00     0.032 A 
HETATM   10  C   UNL     1      26.473  50.026  48.423  1.00  0.00     0.002 A 
HETATM   11  C   UNL     1      27.508  49.256  48.988  1.00  0.00     0.002 A 
HETATM   12  C   UNL     1      27.234  48.056  49.650  1.00  0.00     0.032 A 
ENDROOT
BRANCH   1  13
HETATM   13  C   UNL     1      26.108  45.338  50.800  1.00  0.00     0.231 C 
BRANCH  13  14
HETATM   14  C   UNL     1      25.659  45.128  52.229  1.00  0.00     0.179 C 
HETATM   15  O   UNL     1      24.663  44.467  52.512  1.00  0.00    -0.290 OA
BRANCH  14  16
HETATM   16  C   UNL     1      26.442  45.785  53.297  1.00  0.00     0.028 A 
HETATM   17  C   UNL     1      27.516  45.113  53.894  1.00  0.00     0.053 A 
HETATM   18  C   UNL     1      28.299  45.763  54.857  1.00  0.00     0.018 A 
HETATM   19  C   UNL     1      27.997  47.074  55.225  1.00  0.00     0.001 A 
HETATM   20  C   UNL     1      26.916  47.737  54.642  1.00  0.00     0.001 A 
HETATM   21  C   UNL     1      26.137  47.099  53.675  1.00  0.00     0.016 A 
BRANCH  17  22
HETATM   22  C   UNL     1      27.760  43.689  53.584  1.00  0.00     0.293 C 
HETATM   23  O   UNL     1      27.203  42.780  54.188  1.00  0.00    -0.259 OA
BRANCH  22  24
HETATM   24  O   UNL     1      28.632  43.617  52.559  1.00  0.00    -0.322 OA
HETATM   25  C   UNL     1      29.911  43.049  52.841  1.00  0.00     0.213 C 
ENDBRANCH  22  24
ENDBRANCH  17  22
ENDBRANCH  14  16
ENDBRANCH  13  14
ENDBRANCH   1  13
BRANCH   6  26
HETATM   26  C   UNL     1      22.326  48.127  48.828  1.00  0.00     0.175 C 
BRANCH  26  27
HETATM   27  C   UNL     1      21.862  47.281  47.618  1.00  0.00     0.255 C 
BRANCH  27  28
HETATM   28  N   UNL     1      20.348  47.145  47.502  1.00  0.00    -0.070 N 
HETATM   29  H   UNL     1      19.996  47.910  46.913  1.00  0.00     0.279 HD
HETATM   30  C   UNL     1      19.911  45.830  46.876  1.00  0.00     0.235 C 
HETATM   31  C   UNL     1      18.398  45.820  46.712  1.00  0.00     0.028 C 
HETATM   32  C   UNL     1      17.690  46.019  48.045  1.00  0.00     0.003 C 
HETATM   33  C   UNL     1      18.178  47.286  48.736  1.00  0.00     0.028 C 
HETATM   34  C   UNL     1      19.694  47.310  48.874  1.00  0.00     0.235 C 
ENDBRANCH  27  28
ENDBRANCH  26  27
ENDBRANCH   6  26
TORSDOF 8
ENDMDL
MODEL 4
REMARK VINA RESULT:      -8.2      3.113      8.839
REMARK  8 active torsions:
REMARK  status: ('A' for Active; 'I' for Inactive)
REMARK    1  A    between atoms: O_2  and  C_3 
REMARK    2  A    between atoms: C_3  and  C_4 
REMARK    3  A    between atoms: C_5  and  C_6 
REMARK    4  A    between atoms: C_6  and  C_7 
REMARK    5  A    between atoms: C_7  and  N_8 
REMARK    6  A    between atoms: N_13  and  C_14 
REMARK    7  A    between atoms: C_14  and  C_15 
REMARK    8  A    between atoms: C_15  and  N_16 
ROOT
HETATM    1  N   UNL     1      25.508  43.834  51.827  1.00  0.00    -0.174 N 
HETATM    2  C   UNL     1      25.769  44.694  52.866  1.00  0.00     0.681 C 
HETATM    3  N   UNL     1      25.151  45.873  53.030  1.00  0.00    -0.234 N 
HETATM    4  H   UNL     1      25.423  46.542  53.734  1.00  0.00     0.174 HD
HETATM    5  H   UNL     1      24.617  46.272  52.259  1.00  0.00     0.174 HD
HETATM    6  N   UNL     1      26.749  44.210  53.743  1.00  0.00    -0.180 N 
HETATM    7  C   UNL     1      27.295  43.079  53.053  1.00  0.00     0.079 A 
HETATM    8  C   UNL     1      26.524  42.840  51.902  1.00  0.00     0.079 A 
HETATM    9  C   UNL     1      28.414  42.327  53.337  1.00  0.00     0.032 A 
HETATM   10  C   UNL     1      28.749  41.311  52.435  1.00  0.00     0.002 A 
HETATM   11  C   UNL     1      27.969  41.068  51.288  1.00  0.00     0.002 A 
HETATM   12  C   UNL     1      26.837  41.839  51.010  1.00  0.00     0.032 A 
ENDROOT
BRANCH   1  13
HETATM   13  C   UNL     1      24.558  44.008  50.725  1.00  0.00     0.231 C 
BRANCH  13  14
HETATM   14  C   UNL     1      25.116  45.037  49.768  1.00  0.00     0.179 C 
HETATM   15  O   UNL     1      26.261  44.970  49.328  1.00  0.00    -0.290 OA
BRANCH  14  16
HETATM   16  C   UNL     1      24.244  46.172  49.398  1.00  0.00     0.028 A 
HETATM   17  C   UNL     1      24.738  47.483  49.454  1.00  0.00     0.053 A 
HETATM   18  C   UNL     1      23.933  48.550  49.036  1.00  0.00     0.018 A 
HETATM   19  C   UNL     1      22.638  48.304  48.577  1.00  0.00     0.001 A 
HETATM   20  C   UNL     1      22.143  47.000  48.538  1.00  0.00     0.001 A 
HETATM   21  C   UNL     1      22.943  45.930  48.943  1.00  0.00     0.016 A 
BRANCH  17  22
HETATM   22  C   UNL     1      26.066  47.747  50.046  1.00  0.00     0.293 C 
HETATM   23  O   UNL     1      26.255  47.749  51.257  1.00  0.00    -0.259 OA
BRANCH  22  24
HETATM   24  O   UNL     1      26.949  47.940  49.048  1.00  0.00    -0.322 OA
HETATM   25  C   UNL     1      27.831  49.057  49.176  1.00  0.00     0.213 C 
ENDBRANCH  22  24
ENDBRANCH  17  22
ENDBRANCH  14  16
ENDBRANCH  13  14
ENDBRANCH   1  13
BRANCH   6  26
HETATM   26  C   UNL     1      27.316  44.878  54.922  1.00  0.00     0.175 C 
BRANCH  26  27
HETATM   27  C   UNL     1      28.847  45.085  54.855  1.00  0.00     0.255 C 
BRANCH  27  28
HETATM   28  N   UNL     1      29.589  44.633  56.108  1.00  0.00    -0.070 N 
HETATM   29  H   UNL     1      29.000  43.953  56.608  1.00  0.00     0.279 HD
HETATM   30  C   UNL     1      30.923  43.967  55.808  1.00  0.00     0.235 C 
HETATM   31  C   UNL     1      31.546  43.463  57.102  1.00  0.00     0.028 C 
HETATM   32  C   UNL     1      31.745  44.594  58.103  1.00  0.00     0.003 C 
HETATM   33  C   UNL     1      30.437  45.336  58.352  1.00  0.00     0.028 C 
HETATM   34  C   UNL     1      29.799  45.813  57.056  1.00  0.00     0.235 C 
ENDBRANCH  27  28
ENDBRANCH  26  27
ENDBRANCH   6  26
TORSDOF 8
ENDMDL
MODEL 5
REMARK VINA RESULT:      -8.1      1.779      3.178
REMARK  8 active torsions:
REMARK  status: ('A' for Active; 'I' for Inactive)
REMARK    1  A    between atoms: O_2  and  C_3 
REMARK    2  A    between atoms: C_3  and  C_4 
REMARK    3  A    between atoms: C_5  and  C_6 
REMARK    4  A    between atoms: C_6  and  C_7 
REMARK    5  A    between atoms: C_7  and  N_8 
REMARK    6  A    between atoms: N_13  and  C_14 
REMARK    7  A    between atoms: C_14  and  C_15 
REMARK    8  A    between atoms: C_15  and  N_16 
ROOT
HETATM    1  N   UNL     1      25.101  45.236  49.971  1.00  0.00    -0.174 N 
HETATM    2  C   UNL     1      24.352  46.333  49.620  1.00  0.00     0.681 C 
HETATM    3  N   UNL     1      24.505  47.546  50.170  1.00  0.00    -0.234 N 
HETATM    4  H   UNL     1      23.882  48.317  49.981  1.00  0.00     0.174 HD
HETATM    5  H   UNL     1      25.041  47.644  51.032  1.00  0.00     0.174 HD
HETATM    6  N   UNL     1      23.409  46.053  48.621  1.00  0.00    -0.180 N 
HETATM    7  C   UNL     1      23.425  44.624  48.529  1.00  0.00     0.079 A 
HETATM    8  C   UNL     1      24.469  44.133  49.332  1.00  0.00     0.079 A 
HETATM    9  C   UNL     1      22.574  43.773  47.858  1.00  0.00     0.032 A 
HETATM   10  C   UNL     1      22.794  42.399  48.005  1.00  0.00     0.002 A 
HETATM   11  C   UNL     1      23.847  41.910  48.804  1.00  0.00     0.002 A 
HETATM   12  C   UNL     1      24.702  42.784  49.481  1.00  0.00     0.032 A 
ENDROOT
BRANCH   1  13
HETATM   13  C   UNL     1      26.165  45.151  50.975  1.00  0.00     0.231 C 
BRANCH  13  14
HETATM   14  C   UNL     1      25.530  45.105  52.346  1.00  0.00     0.179 C 
HETATM   15  O   UNL     1      24.516  44.451  52.576  1.00  0.00    -0.290 OA
BRANCH  14  16
HETATM   16  C   UNL     1      26.151  45.914  53.417  1.00  0.00     0.028 A 
HETATM   17  C   UNL     1      27.223  45.396  54.156  1.00  0.00     0.053 A 
HETATM   18  C   UNL     1      27.853  46.190  55.122  1.00  0.00     0.018 A 
HETATM   19  C   UNL     1      27.402  47.490  55.353  1.00  0.00     0.001 A 
HETATM   20  C   UNL     1      26.323  47.999  54.627  1.00  0.00     0.001 A 
HETATM   21  C   UNL     1      25.696  47.216  53.656  1.00  0.00     0.016 A 
BRANCH  17  22
HETATM   22  C   UNL     1      27.622  43.983  53.987  1.00  0.00     0.293 C 
HETATM   23  O   UNL     1      27.010  43.061  54.514  1.00  0.00    -0.259 OA
BRANCH  22  24
HETATM   24  O   UNL     1      28.694  43.935  53.173  1.00  0.00    -0.322 OA
HETATM   25  C   UNL     1      28.797  42.799  52.313  1.00  0.00     0.213 C 
ENDBRANCH  22  24
ENDBRANCH  17  22
ENDBRANCH  14  16
ENDBRANCH  13  14
ENDBRANCH   1  13
BRANCH   6  26
HETATM   26  C   UNL     1      22.409  46.961  48.043  1.00  0.00     0.175 C 
BRANCH  26  27
HETATM   27  C   UNL     1      21.096  47.053  48.856  1.00  0.00     0.255 C 
BRANCH  27  28
HETATM   28  N   UNL     1      20.902  48.387  49.570  1.00  0.00    -0.070 N 
HETATM   29  H   UNL     1      21.202  48.280  50.548  1.00  0.00     0.279 HD
HETATM   30  C   UNL     1      21.706  49.520  48.952  1.00  0.00     0.235 C 
HETATM   31  C   UNL     1      21.528  50.784  49.782  1.00  0.00     0.028 C 
HETATM   32  C   UNL     1      20.062  51.184  49.881  1.00  0.00     0.003 C 
HETATM   33  C   UNL     1      19.219  50.032  50.413  1.00  0.00     0.028 C 
HETATM   34  C   UNL     1      19.420  48.760  49.603  1.00  0.00     0.235 C 
ENDBRANCH  27  28
ENDBRANCH  26  27
ENDBRANCH   6  26
TORSDOF 8
ENDMDL
MODEL 6
REMARK VINA RESULT:      -8.0      1.946      3.623
REMARK  8 active torsions:
REMARK  status: ('A' for Active; 'I' for Inactive)
REMARK    1  A    between atoms: O_2  and  C_3 
REMARK    2  A    between atoms: C_3  and  C_4 
REMARK    3  A    between atoms: C_5  and  C_6 
REMARK    4  A    between atoms: C_6  and  C_7 
REMARK    5  A    between atoms: C_7  and  N_8 
REMARK    6  A    between atoms: N_13  and  C_14 
REMARK    7  A    between atoms: C_14  and  C_15 
REMARK    8  A    between atoms: C_15  and  N_16 
ROOT
HETATM    1  N   UNL     1      25.317  44.844  51.718  1.00  0.00    -0.174 N 
HETATM    2  C   UNL     1      25.096  46.167  51.422  1.00  0.00     0.681 C 
HETATM    3  N   UNL     1      25.428  47.178  52.238  1.00  0.00    -0.234 N 
HETATM    4  H   UNL     1      25.168  48.136  52.059  1.00  0.00     0.174 HD
HETATM    5  H   UNL     1      25.661  46.983  53.211  1.00  0.00     0.174 HD
HETATM    6  N   UNL     1      24.487  46.353  50.173  1.00  0.00    -0.180 N 
HETATM    7  C   UNL     1      24.092  45.031  49.787  1.00  0.00     0.079 A 
HETATM    8  C   UNL     1      24.617  44.116  50.715  1.00  0.00     0.079 A 
HETATM    9  C   UNL     1      23.283  44.619  48.750  1.00  0.00     0.032 A 
HETATM   10  C   UNL     1      23.012  43.250  48.655  1.00  0.00     0.002 A 
HETATM   11  C   UNL     1      23.547  42.333  49.581  1.00  0.00     0.002 A 
HETATM   12  C   UNL     1      24.364  42.765  50.630  1.00  0.00     0.032 A 
ENDROOT
BRANCH   1  13
HETATM   13  C   UNL     1      25.921  44.276  52.926  1.00  0.00     0.231 C 
BRANCH  13  14
HETATM   14  C   UNL     1      27.423  44.421  52.826  1.00  0.00     0.179 C 
HETATM   15  O   UNL     1      28.036  44.185  51.789  1.00  0.00    -0.290 OA
BRANCH  14  16
HETATM   16  C   UNL     1      28.155  44.826  54.045  1.00  0.00     0.028 A 
HETATM   17  C   UNL     1      29.254  44.076  54.485  1.00  0.00     0.053 A 
HETATM   18  C   UNL     1      29.988  44.501  55.599  1.00  0.00     0.018 A 
HETATM   19  C   UNL     1      29.613  45.663  56.275  1.00  0.00     0.001 A 
HETATM   20  C   UNL     1      28.508  46.400  55.845  1.00  0.00     0.001 A 
HETATM   21  C   UNL     1      27.777  45.988  54.729  1.00  0.00     0.016 A 
BRANCH  17  22
HETATM   22  C   UNL     1      29.576  42.788  53.836  1.00  0.00     0.293 C 
HETATM   23  O   UNL     1      30.544  42.650  53.096  1.00  0.00    -0.259 OA
BRANCH  22  24
HETATM   24  O   UNL     1      28.669  41.873  54.227  1.00  0.00    -0.322 OA
HETATM   25  C   UNL     1      28.305  40.878  53.269  1.00  0.00     0.213 C 
ENDBRANCH  22  24
ENDBRANCH  17  22
ENDBRANCH  14  16
ENDBRANCH  13  14
ENDBRANCH   1  13
BRANCH   6  26
HETATM   26  C   UNL     1      24.056  47.615  49.558  1.00  0.00     0.175 C 
BRANCH  26  27
HETATM   27  C   UNL     1      22.562  47.645  49.158  1.00  0.00     0.255 C 
BRANCH  27  28
HETATM   28  N   UNL     1      21.897  49.004  49.347  1.00  0.00    -0.070 N 
HETATM   29  H   UNL     1      22.210  49.398  50.243  1.00  0.00     0.279 HD
HETATM   30  C   UNL     1      22.242  49.998  48.249  1.00  0.00     0.235 C 
HETATM   31  C   UNL     1      21.617  51.348  48.568  1.00  0.00     0.028 C 
HETATM   32  C   UNL     1      20.104  51.243  48.713  1.00  0.00     0.003 C 
HETATM   33  C   UNL     1      19.730  50.186  49.745  1.00  0.00     0.028 C 
HETATM   34  C   UNL     1      20.380  48.843  49.444  1.00  0.00     0.235 C 
ENDBRANCH  27  28
ENDBRANCH  26  27
ENDBRANCH   6  26
TORSDOF 8
ENDMDL
MODEL 7
REMARK VINA RESULT:      -8.0      4.342      8.899
REMARK  8 active torsions:
REMARK  status: ('A' for Active; 'I' for Inactive)
REMARK    1  A    between atoms: O_2  and  C_3 
REMARK    2  A    between atoms: C_3  and  C_4 
REMARK    3  A    between atoms: C_5  and  C_6 
REMARK    4  A    between atoms: C_6  and  C_7 
REMARK    5  A    between atoms: C_7  and  N_8 
REMARK    6  A    between atoms: N_13  and  C_14 
REMARK    7  A    between atoms: C_14  and  C_15 
REMARK    8  A    between atoms: C_15  and  N_16 
ROOT
HETATM    1  N   UNL     1      26.275  43.316  51.713  1.00  0.00    -0.174 N 
HETATM    2  C   UNL     1      26.756  43.438  52.994  1.00  0.00     0.681 C 
HETATM    3  N   UNL     1      27.125  42.397  53.753  1.00  0.00    -0.234 N 
HETATM    4  H   UNL     1      27.377  42.488  54.726  1.00  0.00     0.174 HD
HETATM    5  H   UNL     1      26.854  41.453  53.479  1.00  0.00     0.174 HD
HETATM    6  N   UNL     1      26.824  44.770  53.427  1.00  0.00    -0.180 N 
HETATM    7  C   UNL     1      26.106  45.492  52.420  1.00  0.00     0.079 A 
HETATM    8  C   UNL     1      25.795  44.611  51.370  1.00  0.00     0.079 A 
HETATM    9  C   UNL     1      25.679  46.803  52.408  1.00  0.00     0.032 A 
HETATM   10  C   UNL     1      24.929  47.222  51.304  1.00  0.00     0.002 A 
HETATM   11  C   UNL     1      24.626  46.339  50.249  1.00  0.00     0.002 A 
HETATM   12  C   UNL     1      25.063  45.012  50.274  1.00  0.00     0.032 A 
ENDROOT
BRANCH   1  13
HETATM   13  C   UNL     1      26.063  42.090  50.939  1.00  0.00     0.231 C 
BRANCH  13  14
HETATM   14  C   UNL     1      27.166  41.972  49.912  1.00  0.00     0.179 C 
HETATM   15  O   UNL     1      27.412  42.869  49.110  1.00  0.00    -0.290 OA
BRANCH  14  16
HETATM   16  C   UNL     1      27.931  40.708  49.869  1.00  0.00     0.028 A 
HETATM   17  C   UNL     1      28.131  40.051  48.648  1.00  0.00     0.053 A 
HETATM   18  C   UNL     1      28.915  38.891  48.600  1.00  0.00     0.018 A 
HETATM   19  C   UNL     1      29.482  38.388  49.772  1.00  0.00     0.001 A 
HETATM   20  C   UNL     1      29.267  39.035  50.990  1.00  0.00     0.001 A 
HETATM   21  C   UNL     1      28.495  40.197  51.044  1.00  0.00     0.016 A 
BRANCH  17  22
HETATM   22  C   UNL     1      27.436  40.522  47.432  1.00  0.00     0.293 C 
HETATM   23  O   UNL     1      26.238  40.338  47.248  1.00  0.00    -0.259 OA
BRANCH  22  24
HETATM   24  O   UNL     1      28.325  41.169  46.654  1.00  0.00    -0.322 OA
HETATM   25  C   UNL     1      28.205  40.976  45.244  1.00  0.00     0.213 C 
ENDBRANCH  22  24
ENDBRANCH  17  22
ENDBRANCH  14  16
ENDBRANCH  13  14
ENDBRANCH   1  13
BRANCH   6  26
HETATM   26  C   UNL     1      27.233  45.270  54.746  1.00  0.00     0.175 C 
BRANCH  26  27
HETATM   27  C   UNL     1      28.737  45.615  54.851  1.00  0.00     0.255 C 
BRANCH  27  28
HETATM   28  N   UNL     1      29.485  44.807  55.906  1.00  0.00    -0.070 N 
HETATM   29  H   UNL     1      28.801  44.257  56.441  1.00  0.00     0.279 HD
HETATM   30  C   UNL     1      30.503  43.845  55.314  1.00  0.00     0.235 C 
HETATM   31  C   UNL     1      31.129  43.015  56.426  1.00  0.00     0.028 C 
HETATM   32  C   UNL     1      31.799  43.898  57.471  1.00  0.00     0.003 C 
HETATM   33  C   UNL     1      30.821  44.933  58.015  1.00  0.00     0.028 C 
HETATM   34  C   UNL     1      30.172  45.741  56.902  1.00  0.00     0.235 C 
ENDBRANCH  27  28
ENDBRANCH  26  27
ENDBRANCH   6  26
TORSDOF 8
ENDMDL
MODEL 8
REMARK VINA RESULT:      -8.0      5.519      9.515
REMARK  8 active torsions:
REMARK  status: ('A' for Active; 'I' for Inactive)
REMARK    1  A    between atoms: O_2  and  C_3 
REMARK    2  A    between atoms: C_3  and  C_4 
REMARK    3  A    between atoms: C_5  and  C_6 
REMARK    4  A    between atoms: C_6  and  C_7 
REMARK    5  A    between atoms: C_7  and  N_8 
REMARK    6  A    between atoms: N_13  and  C_14 
REMARK    7  A    between atoms: C_14  and  C_15 
REMARK    8  A    between atoms: C_15  and  N_16 
ROOT
HETATM    1  N   UNL     1      27.473  41.522  50.206  1.00  0.00    -0.174 N 
HETATM    2  C   UNL     1      27.131  41.673  48.884  1.00  0.00     0.681 C 
HETATM    3  N   UNL     1      26.179  42.512  48.452  1.00  0.00    -0.234 N 
HETATM    4  H   UNL     1      25.863  42.539  47.494  1.00  0.00     0.174 HD
HETATM    5  H   UNL     1      25.520  42.911  49.120  1.00  0.00     0.174 HD
HETATM    6  N   UNL     1      27.884  40.857  48.029  1.00  0.00    -0.180 N 
HETATM    7  C   UNL     1      28.570  39.971  48.920  1.00  0.00     0.079 A 
HETATM    8  C   UNL     1      28.337  40.392  50.241  1.00  0.00     0.079 A 
HETATM    9  C   UNL     1      29.301  38.834  48.647  1.00  0.00     0.032 A 
HETATM   10  C   UNL     1      29.806  38.120  49.739  1.00  0.00     0.002 A 
HETATM   11  C   UNL     1      29.578  38.549  51.061  1.00  0.00     0.002 A 
HETATM   12  C   UNL     1      28.834  39.702  51.325  1.00  0.00     0.032 A 
ENDROOT
BRANCH   1  13
HETATM   13  C   UNL     1      26.900  42.199  51.372  1.00  0.00     0.231 C 
BRANCH  13  14
HETATM   14  C   UNL     1      27.638  43.502  51.582  1.00  0.00     0.179 C 
HETATM   15  O   UNL     1      27.582  44.425  50.773  1.00  0.00    -0.290 OA
BRANCH  14  16
HETATM   16  C   UNL     1      28.479  43.626  52.792  1.00  0.00     0.028 A 
HETATM   17  C   UNL     1      27.989  44.296  53.921  1.00  0.00     0.053 A 
HETATM   18  C   UNL     1      28.760  44.352  55.089  1.00  0.00     0.018 A 
HETATM   19  C   UNL     1      30.019  43.750  55.118  1.00  0.00     0.001 A 
HETATM   20  C   UNL     1      30.512  43.097  53.987  1.00  0.00     0.001 A 
HETATM   21  C   UNL     1      29.745  43.029  52.822  1.00  0.00     0.016 A 
BRANCH  17  22
HETATM   22  C   UNL     1      26.707  45.028  53.847  1.00  0.00     0.293 C 
HETATM   23  O   UNL     1      25.627  44.481  54.040  1.00  0.00    -0.259 OA
BRANCH  22  24
HETATM   24  O   UNL     1      26.967  46.321  53.576  1.00  0.00    -0.322 OA
HETATM   25  C   UNL     1      26.051  46.993  52.709  1.00  0.00     0.213 C 
ENDBRANCH  22  24
ENDBRANCH  17  22
ENDBRANCH  14  16
ENDBRANCH  13  14
ENDBRANCH   1  13
BRANCH   6  26
HETATM   26  C   UNL     1      27.757  40.715  46.572  1.00  0.00     0.175 C 
BRANCH  26  27
HETATM   27  C   UNL     1      26.564  39.836  46.126  1.00  0.00     0.255 C 
BRANCH  27  28
HETATM   28  N   UNL     1      26.964  38.442  45.654  1.00  0.00    -0.070 N 
HETATM   29  H   UNL     1      26.355  38.178  44.867  1.00  0.00     0.279 HD
HETATM   30  C   UNL     1      28.406  38.361  45.180  1.00  0.00     0.235 C 
HETATM   31  C   UNL     1      28.688  36.966  44.639  1.00  0.00     0.028 C 
HETATM   32  C   UNL     1      28.427  35.896  45.690  1.00  0.00     0.003 C 
HETATM   33  C   UNL     1      27.014  36.014  46.247  1.00  0.00     0.028 C 
HETATM   34  C   UNL     1      26.721  37.417  46.760  1.00  0.00     0.235 C 
ENDBRANCH  27  28
ENDBRANCH  26  27
ENDBRANCH   6  26
TORSDOF 8
ENDMDL
MODEL 9
REMARK VINA RESULT:      -7.9      4.804      9.072
REMARK  8 active torsions:
REMARK  status: ('A' for Active; 'I' for Inactive)
REMARK    1  A    between atoms: O_2  and  C_3 
REMARK    2  A    between atoms: C_3  and  C_4 
REMARK    3  A    between atoms: C_5  and  C_6 
REMARK    4  A    between atoms: C_6  and  C_7 
REMARK    5  A    between atoms: C_7  and  N_8 
REMARK    6  A    between atoms: N_13  and  C_14 
REMARK    7  A    between atoms: C_14  and  C_15 
REMARK    8  A    between atoms: C_15  and  N_16 
ROOT
HETATM    1  N   UNL     1      26.658  42.306  51.308  1.00  0.00    -0.174 N 
HETATM    2  C   UNL     1      27.100  42.583  52.579  1.00  0.00     0.681 C 
HETATM    3  N   UNL     1      27.436  41.642  53.473  1.00  0.00    -0.234 N 
HETATM    4  H   UNL     1      27.658  41.852  54.435  1.00  0.00     0.174 HD
HETATM    5  H   UNL     1      27.163  40.673  53.310  1.00  0.00     0.174 HD
HETATM    6  N   UNL     1      27.167  43.958  52.846  1.00  0.00    -0.180 N 
HETATM    7  C   UNL     1      26.488  44.553  51.734  1.00  0.00     0.079 A 
HETATM    8  C   UNL     1      26.201  43.551  50.792  1.00  0.00     0.079 A 
HETATM    9  C   UNL     1      26.075  45.855  51.546  1.00  0.00     0.032 A 
HETATM   10  C   UNL     1      25.363  46.138  50.375  1.00  0.00     0.002 A 
HETATM   11  C   UNL     1      25.085  45.132  49.429  1.00  0.00     0.002 A 
HETATM   12  C   UNL     1      25.508  43.816  49.633  1.00  0.00     0.032 A 
ENDROOT
BRANCH   1  13
HETATM   13  C   UNL     1      26.458  40.994  50.687  1.00  0.00     0.231 C 
BRANCH  13  14
HETATM   14  C   UNL     1      27.797  40.476  50.213  1.00  0.00     0.179 C 
HETATM   15  O   UNL     1      28.772  40.404  50.958  1.00  0.00    -0.290 OA
BRANCH  14  16
HETATM   16  C   UNL     1      27.919  40.089  48.792  1.00  0.00     0.028 A 
HETATM   17  C   UNL     1      28.046  38.738  48.442  1.00  0.00     0.053 A 
HETATM   18  C   UNL     1      28.091  38.368  47.092  1.00  0.00     0.018 A 
HETATM   19  C   UNL     1      28.023  39.349  46.101  1.00  0.00     0.001 A 
HETATM   20  C   UNL     1      27.914  40.696  46.452  1.00  0.00     0.001 A 
HETATM   21  C   UNL     1      27.858  41.071  47.796  1.00  0.00     0.016 A 
BRANCH  17  22
HETATM   22  C   UNL     1      28.232  37.716  49.493  1.00  0.00     0.293 C 
HETATM   23  O   UNL     1      27.297  37.074  49.957  1.00  0.00    -0.259 OA
BRANCH  22  24
HETATM   24  O   UNL     1      29.545  37.634  49.782  1.00  0.00    -0.322 OA
HETATM   25  C   UNL     1      29.890  37.117  51.069  1.00  0.00     0.213 C 
ENDBRANCH  22  24
ENDBRANCH  17  22
ENDBRANCH  14  16
ENDBRANCH  13  14
ENDBRANCH   1  13
BRANCH   6  26
HETATM   26  C   UNL     1      27.540  44.616  54.105  1.00  0.00     0.175 C 
BRANCH  26  27
HETATM   27  C   UNL     1      29.057  44.589  54.406  1.00  0.00     0.255 C 
BRANCH  27  28
HETATM   28  N   UNL     1      29.395  44.660  55.892  1.00  0.00    -0.070 N 
HETATM   29  H   UNL     1      28.855  43.935  56.383  1.00  0.00     0.279 HD
HETATM   30  C   UNL     1      30.869  44.427  56.183  1.00  0.00     0.235 C 
HETATM   31  C   UNL     1      31.097  44.419  57.688  1.00  0.00     0.028 C 
HETATM   32  C   UNL     1      30.643  45.724  58.328  1.00  0.00     0.003 C 
HETATM   33  C   UNL     1      29.191  46.026  57.975  1.00  0.00     0.028 C 
HETATM   34  C   UNL     1      28.956  46.004  56.472  1.00  0.00     0.235 C 
ENDBRANCH  27  28
ENDBRANCH  26  27
ENDBRANCH   6  26
TORSDOF 8
ENDMDL
MODEL 10
REMARK VINA RESULT:      -7.9      2.639      5.119
REMARK  8 active torsions:
REMARK  status: ('A' for Active; 'I' for Inactive)
REMARK    1  A    between atoms: O_2  and  C_3 
REMARK    2  A    between atoms: C_3  and  C_4 
REMARK    3  A    between atoms: C_5  and  C_6 
REMARK    4  A    between atoms: C_6  and  C_7 
REMARK    5  A    between atoms: C_7  and  N_8 
REMARK    6  A    between atoms: N_13  and  C_14 
REMARK    7  A    between atoms: C_14  and  C_15 
REMARK    8  A    between atoms: C_15  and  N_16 
ROOT
HETATM    1  N   UNL     1      27.123  43.602  51.232  1.00  0.00    -0.174 N 
HETATM    2  C   UNL     1      25.906  44.238  51.269  1.00  0.00     0.681 C 
HETATM    3  N   UNL     1      25.651  45.311  52.031  1.00  0.00    -0.234 N 
HETATM    4  H   UNL     1      24.727  45.707  52.130  1.00  0.00     0.174 HD
HETATM    5  H   UNL     1      26.295  45.562  52.780  1.00  0.00     0.174 HD
HETATM    6  N   UNL     1      24.956  43.649  50.424  1.00  0.00    -0.180 N 
HETATM    7  C   UNL     1      25.572  42.419  50.024  1.00  0.00     0.079 A 
HETATM    8  C   UNL     1      26.895  42.405  50.497  1.00  0.00     0.079 A 
HETATM    9  C   UNL     1      25.037  41.341  49.353  1.00  0.00     0.032 A 
HETATM   10  C   UNL     1      25.868  40.232  49.157  1.00  0.00     0.002 A 
HETATM   11  C   UNL     1      27.197  40.224  49.625  1.00  0.00     0.002 A 
HETATM   12  C   UNL     1      27.726  41.323  50.306  1.00  0.00     0.032 A 
ENDROOT
BRANCH   1  13
HETATM   13  C   UNL     1      28.339  43.930  51.981  1.00  0.00     0.231 C 
BRANCH  13  14
HETATM   14  C   UNL     1      28.233  43.320  53.361  1.00  0.00     0.179 C 
HETATM   15  O   UNL     1      27.499  42.365  53.600  1.00  0.00    -0.290 OA
BRANCH  14  16
HETATM   16  C   UNL     1      29.022  43.939  54.447  1.00  0.00     0.028 A 
HETATM   17  C   UNL     1      28.485  45.003  55.184  1.00  0.00     0.053 A 
HETATM   18  C   UNL     1      29.206  45.542  56.257  1.00  0.00     0.018 A 
HETATM   19  C   UNL     1      30.462  45.025  56.579  1.00  0.00     0.001 A 
HETATM   20  C   UNL     1      31.001  43.975  55.834  1.00  0.00     0.001 A 
HETATM   21  C   UNL     1      30.285  43.427  54.768  1.00  0.00     0.016 A 
BRANCH  17  22
HETATM   22  C   UNL     1      27.209  45.621  54.768  1.00  0.00     0.293 C 
HETATM   23  O   UNL     1      26.133  45.047  54.886  1.00  0.00    -0.259 OA
BRANCH  22  24
HETATM   24  O   UNL     1      27.465  46.858  54.299  1.00  0.00    -0.322 OA
HETATM   25  C   UNL     1      26.725  47.932  54.881  1.00  0.00     0.213 C 
ENDBRANCH  22  24
ENDBRANCH  17  22
ENDBRANCH  14  16
ENDBRANCH  13  14
ENDBRANCH   1  13
BRANCH   6  26
HETATM   26  C   UNL     1      23.547  44.025  50.249  1.00  0.00     0.175 C 
BRANCH  26  27
HETATM   27  C   UNL     1      23.269  44.855  48.973  1.00  0.00     0.255 C 
BRANCH  27  28
HETATM   28  N   UNL     1      22.742  46.259  49.250  1.00  0.00    -0.070 N 
HETATM   29  H   UNL     1      22.347  46.277  50.200  1.00  0.00     0.279 HD
HETATM   30  C   UNL     1      23.817  47.331  49.168  1.00  0.00     0.235 C 
HETATM   31  C   UNL     1      23.224  48.679  49.551  1.00  0.00     0.028 C 
HETATM   32  C   UNL     1      22.053  49.051  48.652  1.00  0.00     0.003 C 
HETATM   33  C   UNL     1      21.001  47.948  48.647  1.00  0.00     0.028 C 
HETATM   34  C   UNL     1      21.599  46.595  48.293  1.00  0.00     0.235 C 
ENDBRANCH  27  28
ENDBRANCH  26  27
ENDBRANCH   6  26
TORSDOF 8
ENDMDL
