MODEL 1
REMARK VINA RESULT:      -8.4      0.000      0.000
REMARK  3 active torsions:
REMARK  status: ('A' for Active; 'I' for Inactive)
REMARK    1  A    between atoms: C_10  and  C_11 
REMARK    2  A    between atoms: C_11  and  C_12 
REMARK    3  A    between atoms: C_13  and  O_14 
ROOT
HETATM    1  C   UNL     1      25.193  46.212  51.583  1.00  0.00     0.196 C 
HETATM    2  O   UNL     1      24.498  45.212  51.410  1.00  0.00    -0.286 OA
ENDROOT
BRANCH   1   3
HETATM    3  C   UNL     1      25.220  47.255  50.538  1.00  0.00     0.034 A 
HETATM    4  C   UNL     1      26.452  47.801  50.179  1.00  0.00     0.134 A 
HETATM    5  N   UNL     1      26.648  48.766  49.243  1.00  0.00    -0.240 NA
HETATM    6  C   UNL     1      25.496  49.184  48.686  1.00  0.00     0.155 A 
HETATM    7  N   UNL     1      25.364  50.146  47.726  1.00  0.00    -0.260 N 
HETATM    8  C   UNL     1      24.210  48.748  48.965  1.00  0.00     0.038 A 
HETATM    9  N   UNL     1      24.088  50.366  47.350  1.00  0.00    -0.177 NA
HETATM   10  H   UNL     1      26.108  50.680  47.296  1.00  0.00     0.191 HD
HETATM   11  C   UNL     1      23.379  49.519  48.110  1.00  0.00     0.065 A 
HETATM   12  C   UNL     1      21.901  49.464  47.991  1.00  0.00     0.073 C 
HETATM   13  C   UNL     1      24.053  47.747  49.938  1.00  0.00     0.034 A 
ENDBRANCH   1   3
BRANCH   1  14
HETATM   14  C   UNL     1      25.993  46.300  52.830  1.00  0.00     0.051 A 
HETATM   15  C   UNL     1      26.930  45.294  53.123  1.00  0.00     0.101 A 
HETATM   16  C   UNL     1      27.704  45.378  54.288  1.00  0.00     0.069 A 
HETATM   17 CL   UNL     1      28.884  44.179  54.676  1.00  0.00    -0.081 Cl
HETATM   18  C   UNL     1      27.529  46.442  55.173  1.00  0.00     0.050 A 
HETATM   19  C   UNL     1      26.573  47.415  54.897  1.00  0.00     0.036 A 
HETATM   20 CL   UNL     1      26.342  48.719  55.995  1.00  0.00    -0.084 Cl
HETATM   21  C   UNL     1      25.799  47.349  53.737  1.00  0.00     0.042 A 
BRANCH  15  22
HETATM   22  O   UNL     1      27.114  44.221  52.288  1.00  0.00    -0.358 OA
HETATM   23  H   UNL     1      27.578  43.510  52.784  1.00  0.00     0.218 HD
ENDBRANCH  15  22
ENDBRANCH   1  14
TORSDOF 3
ENDMDL
MODEL 2
REMARK VINA RESULT:      -8.2      4.486      7.478
REMARK  3 active torsions:
REMARK  status: ('A' for Active; 'I' for Inactive)
REMARK    1  A    between atoms: C_10  and  C_11 
REMARK    2  A    between atoms: C_11  and  C_12 
REMARK    3  A    between atoms: C_13  and  O_14 
ROOT
HETATM    1  C   UNL     1      26.313  46.308  53.900  1.00  0.00     0.196 C 
HETATM    2  O   UNL     1      25.649  46.910  54.742  1.00  0.00    -0.286 OA
ENDROOT
BRANCH   1   3
HETATM    3  C   UNL     1      27.530  45.589  54.327  1.00  0.00     0.034 A 
HETATM    4  C   UNL     1      27.958  44.502  53.565  1.00  0.00     0.134 A 
HETATM    5  N   UNL     1      29.050  43.737  53.823  1.00  0.00    -0.240 NA
HETATM    6  C   UNL     1      29.697  44.121  54.939  1.00  0.00     0.155 A 
HETATM    7  N   UNL     1      30.818  43.546  55.463  1.00  0.00    -0.260 N 
HETATM    8  C   UNL     1      29.368  45.160  55.796  1.00  0.00     0.038 A 
HETATM    9  N   UNL     1      31.254  44.135  56.595  1.00  0.00    -0.177 NA
HETATM   10  H   UNL     1      31.325  42.753  55.090  1.00  0.00     0.191 HD
HETATM   11  C   UNL     1      30.366  45.118  56.805  1.00  0.00     0.065 A 
HETATM   12  C   UNL     1      30.502  46.011  57.984  1.00  0.00     0.073 C 
HETATM   13  C   UNL     1      28.232  45.928  55.491  1.00  0.00     0.034 A 
ENDBRANCH   1   3
BRANCH   1  14
HETATM   14  C   UNL     1      25.864  46.362  52.486  1.00  0.00     0.051 A 
HETATM   15  C   UNL     1      24.954  45.399  52.013  1.00  0.00     0.101 A 
HETATM   16  C   UNL     1      24.510  45.452  50.685  1.00  0.00     0.069 A 
HETATM   17 CL   UNL     1      23.374  44.307  50.068  1.00  0.00    -0.081 Cl
HETATM   18  C   UNL     1      24.987  46.438  49.822  1.00  0.00     0.050 A 
HETATM   19  C   UNL     1      25.916  47.365  50.286  1.00  0.00     0.036 A 
HETATM   20 CL   UNL     1      26.520  48.573  49.220  1.00  0.00    -0.084 Cl
HETATM   21  C   UNL     1      26.364  47.330  51.607  1.00  0.00     0.042 A 
BRANCH  15  22
HETATM   22  O   UNL     1      24.480  44.400  52.826  1.00  0.00    -0.358 OA
HETATM   23  H   UNL     1      25.028  44.370  53.642  1.00  0.00     0.218 HD
ENDBRANCH  15  22
ENDBRANCH   1  14
TORSDOF 3
ENDMDL
MODEL 3
REMARK VINA RESULT:      -8.2      3.071      4.715
REMARK  3 active torsions:
REMARK  status: ('A' for Active; 'I' for Inactive)
REMARK    1  A    between atoms: C_10  and  C_11 
REMARK    2  A    between atoms: C_11  and  C_12 
REMARK    3  A    between atoms: C_13  and  O_14 
ROOT
HETATM    1  C   UNL     1      27.264  46.257  54.805  1.00  0.00     0.196 C 
HETATM    2  O   UNL     1      27.046  47.218  55.540  1.00  0.00    -0.286 OA
ENDROOT
BRANCH   1   3
HETATM    3  C   UNL     1      26.338  45.985  53.687  1.00  0.00     0.034 A 
HETATM    4  C   UNL     1      25.559  44.829  53.738  1.00  0.00     0.134 A 
HETATM    5  N   UNL     1      24.666  44.434  52.794  1.00  0.00    -0.240 NA
HETATM    6  C   UNL     1      24.614  45.281  51.748  1.00  0.00     0.155 A 
HETATM    7  N   UNL     1      23.824  45.153  50.643  1.00  0.00    -0.260 N 
HETATM    8  C   UNL     1      25.345  46.444  51.560  1.00  0.00     0.038 A 
HETATM    9  N   UNL     1      23.977  46.150  49.748  1.00  0.00    -0.177 NA
HETATM   10  H   UNL     1      23.166  44.409  50.449  1.00  0.00     0.191 HD
HETATM   11  C   UNL     1      24.911  46.937  50.302  1.00  0.00     0.065 A 
HETATM   12  C   UNL     1      25.365  48.165  49.603  1.00  0.00     0.073 C 
HETATM   13  C   UNL     1      26.256  46.816  52.562  1.00  0.00     0.034 A 
ENDBRANCH   1   3
BRANCH   1  14
HETATM   14  C   UNL     1      28.439  45.400  55.104  1.00  0.00     0.051 A 
HETATM   15  C   UNL     1      29.122  45.564  56.322  1.00  0.00     0.101 A 
HETATM   16  C   UNL     1      30.221  44.748  56.621  1.00  0.00     0.069 A 
HETATM   17 CL   UNL     1      31.074  44.896  58.115  1.00  0.00    -0.081 Cl
HETATM   18  C   UNL     1      30.659  43.793  55.703  1.00  0.00     0.050 A 
HETATM   19  C   UNL     1      30.003  43.662  54.483  1.00  0.00     0.036 A 
HETATM   20 CL   UNL     1      30.550  42.498  53.341  1.00  0.00    -0.084 Cl
HETATM   21  C   UNL     1      28.902  44.462  54.172  1.00  0.00     0.042 A 
BRANCH  15  22
HETATM   22  O   UNL     1      28.735  46.508  57.240  1.00  0.00    -0.358 OA
HETATM   23  H   UNL     1      29.272  46.396  58.055  1.00  0.00     0.218 HD
ENDBRANCH  15  22
ENDBRANCH   1  14
TORSDOF 3
ENDMDL
MODEL 4
REMARK VINA RESULT:      -7.9      2.703      3.629
REMARK  3 active torsions:
REMARK  status: ('A' for Active; 'I' for Inactive)
REMARK    1  A    between atoms: C_10  and  C_11 
REMARK    2  A    between atoms: C_11  and  C_12 
REMARK    3  A    between atoms: C_13  and  O_14 
ROOT
HETATM    1  C   UNL     1      25.749  44.411  53.727  1.00  0.00     0.196 C 
HETATM    2  O   UNL     1      24.902  44.096  54.561  1.00  0.00    -0.286 OA
ENDROOT
BRANCH   1   3
HETATM    3  C   UNL     1      25.369  45.321  52.628  1.00  0.00     0.034 A 
HETATM    4  C   UNL     1      25.727  46.666  52.728  1.00  0.00     0.134 A 
HETATM    5  N   UNL     1      25.452  47.628  51.810  1.00  0.00    -0.240 NA
HETATM    6  C   UNL     1      24.752  47.156  50.762  1.00  0.00     0.155 A 
HETATM    7  N   UNL     1      24.319  47.876  49.687  1.00  0.00    -0.260 N 
HETATM    8  C   UNL     1      24.313  45.858  50.550  1.00  0.00     0.038 A 
HETATM    9  N   UNL     1      23.637  47.146  48.782  1.00  0.00    -0.177 NA
HETATM   10  H   UNL     1      24.462  48.865  49.521  1.00  0.00     0.191 HD
HETATM   11  C   UNL     1      23.625  45.913  49.309  1.00  0.00     0.065 A 
HETATM   12  C   UNL     1      22.949  44.800  48.596  1.00  0.00     0.073 C 
HETATM   13  C   UNL     1      24.621  44.893  51.523  1.00  0.00     0.034 A 
ENDBRANCH   1   3
BRANCH   1  14
HETATM   14  C   UNL     1      27.110  43.832  53.859  1.00  0.00     0.051 A 
HETATM   15  C   UNL     1      27.434  42.661  53.151  1.00  0.00     0.101 A 
HETATM   16  C   UNL     1      28.720  42.117  53.254  1.00  0.00     0.069 A 
HETATM   17 CL   UNL     1      29.171  40.695  52.384  1.00  0.00    -0.081 Cl
HETATM   18  C   UNL     1      29.674  42.716  54.077  1.00  0.00     0.050 A 
HETATM   19  C   UNL     1      29.336  43.854  54.804  1.00  0.00     0.036 A 
HETATM   20 CL   UNL     1      30.504  44.586  55.833  1.00  0.00    -0.084 Cl
HETATM   21  C   UNL     1      28.060  44.412  54.708  1.00  0.00     0.042 A 
BRANCH  15  22
HETATM   22  O   UNL     1      26.515  42.030  52.350  1.00  0.00    -0.358 OA
HETATM   23  H   UNL     1      25.644  42.474  52.457  1.00  0.00     0.218 HD
ENDBRANCH  15  22
ENDBRANCH   1  14
TORSDOF 3
ENDMDL
MODEL 5
REMARK VINA RESULT:      -7.9     11.748     12.762
REMARK  3 active torsions:
REMARK  status: ('A' for Active; 'I' for Inactive)
REMARK    1  A    between atoms: C_10  and  C_11 
REMARK    2  A    between atoms: C_11  and  C_12 
REMARK    3  A    between atoms: C_13  and  O_14 
ROOT
HETATM    1  C   UNL     1      32.302  48.470  41.095  1.00  0.00     0.196 C 
HETATM    2  O   UNL     1      32.825  47.357  41.075  1.00  0.00    -0.286 OA
ENDROOT
BRANCH   1   3
HETATM    3  C   UNL     1      31.046  48.685  40.348  1.00  0.00     0.034 A 
HETATM    4  C   UNL     1      30.180  47.603  40.183  1.00  0.00     0.134 A 
HETATM    5  N   UNL     1      28.994  47.633  39.522  1.00  0.00    -0.240 NA
HETATM    6  C   UNL     1      28.727  48.844  38.997  1.00  0.00     0.155 A 
HETATM    7  N   UNL     1      27.622  49.186  38.273  1.00  0.00    -0.260 N 
HETATM    8  C   UNL     1      29.506  49.989  39.065  1.00  0.00     0.038 A 
HETATM    9  N   UNL     1      27.614  50.472  37.868  1.00  0.00    -0.177 NA
HETATM   10  H   UNL     1      26.846  48.583  38.028  1.00  0.00     0.191 HD
HETATM   11  C   UNL     1      28.767  50.964  38.344  1.00  0.00     0.065 A 
HETATM   12  C   UNL     1      29.135  52.381  38.097  1.00  0.00     0.073 C 
HETATM   13  C   UNL     1      30.724  49.915  39.760  1.00  0.00     0.034 A 
ENDBRANCH   1   3
BRANCH   1  14
HETATM   14  C   UNL     1      32.982  49.550  41.854  1.00  0.00     0.051 A 
HETATM   15  C   UNL     1      34.321  49.863  41.560  1.00  0.00     0.101 A 
HETATM   16  C   UNL     1      34.966  50.892  42.257  1.00  0.00     0.069 A 
HETATM   17 CL   UNL     1      36.601  51.328  41.912  1.00  0.00    -0.081 Cl
HETATM   18  C   UNL     1      34.295  51.590  43.261  1.00  0.00     0.050 A 
HETATM   19  C   UNL     1      32.982  51.250  43.573  1.00  0.00     0.036 A 
HETATM   20 CL   UNL     1      32.157  52.097  44.823  1.00  0.00    -0.084 Cl
HETATM   21  C   UNL     1      32.323  50.231  42.884  1.00  0.00     0.042 A 
BRANCH  15  22
HETATM   22  O   UNL     1      35.021  49.182  40.595  1.00  0.00    -0.358 OA
HETATM   23  H   UNL     1      35.216  49.797  39.853  1.00  0.00     0.218 HD
ENDBRANCH  15  22
ENDBRANCH   1  14
TORSDOF 3
ENDMDL
MODEL 6
REMARK VINA RESULT:      -7.8      2.798      4.053
REMARK  3 active torsions:
REMARK  status: ('A' for Active; 'I' for Inactive)
REMARK    1  A    between atoms: C_10  and  C_11 
REMARK    2  A    between atoms: C_11  and  C_12 
REMARK    3  A    between atoms: C_13  and  O_14 
ROOT
HETATM    1  C   UNL     1      25.748  44.423  53.815  1.00  0.00     0.196 C 
HETATM    2  O   UNL     1      24.921  44.164  54.687  1.00  0.00    -0.286 OA
ENDROOT
BRANCH   1   3
HETATM    3  C   UNL     1      25.357  45.306  52.697  1.00  0.00     0.034 A 
HETATM    4  C   UNL     1      25.651  46.666  52.794  1.00  0.00     0.134 A 
HETATM    5  N   UNL     1      25.359  47.607  51.860  1.00  0.00    -0.240 NA
HETATM    6  C   UNL     1      24.710  47.094  50.797  1.00  0.00     0.155 A 
HETATM    7  N   UNL     1      24.275  47.785  49.704  1.00  0.00    -0.260 N 
HETATM    8  C   UNL     1      24.337  45.776  50.586  1.00  0.00     0.038 A 
HETATM    9  N   UNL     1      23.652  47.017  48.787  1.00  0.00    -0.177 NA
HETATM   10  H   UNL     1      24.377  48.778  49.533  1.00  0.00     0.191 HD
HETATM   11  C   UNL     1      23.681  45.789  49.326  1.00  0.00     0.065 A 
HETATM   12  C   UNL     1      23.077  44.641  48.606  1.00  0.00     0.073 C 
HETATM   13  C   UNL     1      24.661  44.834  51.576  1.00  0.00     0.034 A 
ENDBRANCH   1   3
BRANCH   1  14
HETATM   14  C   UNL     1      27.095  43.806  53.921  1.00  0.00     0.051 A 
HETATM   15  C   UNL     1      28.076  44.422  54.718  1.00  0.00     0.101 A 
HETATM   16  C   UNL     1      29.343  43.838  54.839  1.00  0.00     0.069 A 
HETATM   17 CL   UNL     1      30.571  44.546  55.826  1.00  0.00    -0.081 Cl
HETATM   18  C   UNL     1      29.646  42.663  54.152  1.00  0.00     0.050 A 
HETATM   19  C   UNL     1      28.682  42.078  53.335  1.00  0.00     0.036 A 
HETATM   20 CL   UNL     1      29.057  40.638  52.472  1.00  0.00    -0.084 Cl
HETATM   21  C   UNL     1      27.413  42.644  53.208  1.00  0.00     0.042 A 
BRANCH  15  22
HETATM   22  O   UNL     1      27.823  45.591  55.390  1.00  0.00    -0.358 OA
HETATM   23  H   UNL     1      26.933  45.920  55.131  1.00  0.00     0.218 HD
ENDBRANCH  15  22
ENDBRANCH   1  14
TORSDOF 3
ENDMDL
MODEL 7
REMARK VINA RESULT:      -7.6      5.083      8.062
REMARK  3 active torsions:
REMARK  status: ('A' for Active; 'I' for Inactive)
REMARK    1  A    between atoms: C_10  and  C_11 
REMARK    2  A    between atoms: C_11  and  C_12 
REMARK    3  A    between atoms: C_13  and  O_14 
ROOT
HETATM    1  C   UNL     1      28.425  42.778  52.603  1.00  0.00     0.196 C 
HETATM    2  O   UNL     1      28.889  41.644  52.501  1.00  0.00    -0.286 OA
ENDROOT
BRANCH   1   3
HETATM    3  C   UNL     1      28.780  43.595  53.781  1.00  0.00     0.034 A 
HETATM    4  C   UNL     1      28.057  44.764  54.018  1.00  0.00     0.134 A 
HETATM    5  N   UNL     1      28.259  45.623  55.051  1.00  0.00    -0.240 NA
HETATM    6  C   UNL     1      29.279  45.244  55.845  1.00  0.00     0.155 A 
HETATM    7  N   UNL     1      29.729  45.901  56.952  1.00  0.00    -0.260 N 
HETATM    8  C   UNL     1      30.089  44.127  55.710  1.00  0.00     0.038 A 
HETATM    9  N   UNL     1      30.770  45.295  57.559  1.00  0.00    -0.177 NA
HETATM   10  H   UNL     1      29.365  46.764  57.336  1.00  0.00     0.191 HD
HETATM   11  C   UNL     1      30.997  44.214  56.798  1.00  0.00     0.065 A 
HETATM   12  C   UNL     1      32.092  43.273  57.144  1.00  0.00     0.073 C 
HETATM   13  C   UNL     1      29.844  43.264  54.630  1.00  0.00     0.034 A 
ENDBRANCH   1   3
BRANCH   1  14
HETATM   14  C   UNL     1      27.503  43.255  51.541  1.00  0.00     0.051 A 
HETATM   15  C   UNL     1      26.527  42.382  51.029  1.00  0.00     0.101 A 
HETATM   16  C   UNL     1      25.641  42.828  50.041  1.00  0.00     0.069 A 
HETATM   17 CL   UNL     1      24.410  41.799  49.401  1.00  0.00    -0.081 Cl
HETATM   18  C   UNL     1      25.740  44.127  49.541  1.00  0.00     0.050 A 
HETATM   19  C   UNL     1      26.732  44.975  50.024  1.00  0.00     0.036 A 
HETATM   20 CL   UNL     1      26.869  46.571  49.398  1.00  0.00    -0.084 Cl
HETATM   21  C   UNL     1      27.619  44.548  51.014  1.00  0.00     0.042 A 
BRANCH  15  22
HETATM   22  O   UNL     1      26.414  41.090  51.479  1.00  0.00    -0.358 OA
HETATM   23  H   UNL     1      25.543  40.732  51.197  1.00  0.00     0.218 HD
ENDBRANCH  15  22
ENDBRANCH   1  14
TORSDOF 3
ENDMDL
MODEL 8
REMARK VINA RESULT:      -7.5     11.270     12.543
REMARK  3 active torsions:
REMARK  status: ('A' for Active; 'I' for Inactive)
REMARK    1  A    between atoms: C_10  and  C_11 
REMARK    2  A    between atoms: C_11  and  C_12 
REMARK    3  A    between atoms: C_13  and  O_14 
ROOT
HETATM    1  C   UNL     1      32.401  48.352  41.117  1.00  0.00     0.196 C 
HETATM    2  O   UNL     1      32.959  47.257  41.140  1.00  0.00    -0.286 OA
ENDROOT
BRANCH   1   3
HETATM    3  C   UNL     1      31.147  48.502  40.351  1.00  0.00     0.034 A 
HETATM    4  C   UNL     1      31.153  49.330  39.229  1.00  0.00     0.134 A 
HETATM    5  N   UNL     1      30.088  49.576  38.422  1.00  0.00    -0.240 NA
HETATM    6  C   UNL     1      28.973  48.943  38.833  1.00  0.00     0.155 A 
HETATM    7  N   UNL     1      27.746  48.999  38.239  1.00  0.00    -0.260 N 
HETATM    8  C   UNL     1      28.824  48.117  39.936  1.00  0.00     0.038 A 
HETATM    9  N   UNL     1      26.804  48.266  38.867  1.00  0.00    -0.177 NA
HETATM   10  H   UNL     1      27.496  49.521  37.409  1.00  0.00     0.191 HD
HETATM   11  C   UNL     1      27.458  47.730  39.909  1.00  0.00     0.065 A 
HETATM   12  C   UNL     1      26.747  46.842  40.862  1.00  0.00     0.073 C 
HETATM   13  C   UNL     1      29.951  47.887  40.742  1.00  0.00     0.034 A 
ENDBRANCH   1   3
BRANCH   1  14
HETATM   14  C   UNL     1      33.040  49.478  41.846  1.00  0.00     0.051 A 
HETATM   15  C   UNL     1      34.364  49.836  41.539  1.00  0.00     0.101 A 
HETATM   16  C   UNL     1      34.969  50.909  42.207  1.00  0.00     0.069 A 
HETATM   17 CL   UNL     1      36.585  51.401  41.846  1.00  0.00    -0.081 Cl
HETATM   18  C   UNL     1      34.273  51.605  43.195  1.00  0.00     0.050 A 
HETATM   19  C   UNL     1      32.975  51.221  43.521  1.00  0.00     0.036 A 
HETATM   20 CL   UNL     1      32.120  52.067  44.750  1.00  0.00    -0.084 Cl
HETATM   21  C   UNL     1      32.356  50.159  42.860  1.00  0.00     0.042 A 
BRANCH  15  22
HETATM   22  O   UNL     1      35.088  49.160  40.590  1.00  0.00    -0.358 OA
HETATM   23  H   UNL     1      35.750  49.773  40.200  1.00  0.00     0.218 HD
ENDBRANCH  15  22
ENDBRANCH   1  14
TORSDOF 3
ENDMDL
MODEL 9
REMARK VINA RESULT:      -7.4     11.723     12.835
REMARK  3 active torsions:
REMARK  status: ('A' for Active; 'I' for Inactive)
REMARK    1  A    between atoms: C_10  and  C_11 
REMARK    2  A    between atoms: C_11  and  C_12 
REMARK    3  A    between atoms: C_13  and  O_14 
ROOT
HETATM    1  C   UNL     1      32.367  48.356  41.006  1.00  0.00     0.196 C 
HETATM    2  O   UNL     1      32.836  47.221  41.056  1.00  0.00    -0.286 OA
ENDROOT
BRANCH   1   3
HETATM    3  C   UNL     1      31.102  48.578  40.277  1.00  0.00     0.034 A 
HETATM    4  C   UNL     1      30.241  47.495  40.101  1.00  0.00     0.134 A 
HETATM    5  N   UNL     1      29.047  47.530  39.455  1.00  0.00    -0.240 NA
HETATM    6  C   UNL     1      28.767  48.749  38.956  1.00  0.00     0.155 A 
HETATM    7  N   UNL     1      27.652  49.098  38.251  1.00  0.00    -0.260 N 
HETATM    8  C   UNL     1      29.540  49.897  39.036  1.00  0.00     0.038 A 
HETATM    9  N   UNL     1      27.632  50.391  37.870  1.00  0.00    -0.177 NA
HETATM   10  H   UNL     1      26.877  48.495  38.003  1.00  0.00     0.191 HD
HETATM   11  C   UNL     1      28.789  50.881  38.342  1.00  0.00     0.065 A 
HETATM   12  C   UNL     1      29.145  52.304  38.117  1.00  0.00     0.073 C 
HETATM   13  C   UNL     1      30.767  49.817  39.716  1.00  0.00     0.034 A 
ENDBRANCH   1   3
BRANCH   1  14
HETATM   14  C   UNL     1      33.120  49.454  41.665  1.00  0.00     0.051 A 
HETATM   15  C   UNL     1      32.557  50.108  42.776  1.00  0.00     0.101 A 
HETATM   16  C   UNL     1      33.267  51.131  43.416  1.00  0.00     0.069 A 
HETATM   17 CL   UNL     1      32.627  51.945  44.798  1.00  0.00    -0.081 Cl
HETATM   18  C   UNL     1      34.518  51.525  42.940  1.00  0.00     0.050 A 
HETATM   19  C   UNL     1      35.053  50.899  41.817  1.00  0.00     0.036 A 
HETATM   20 CL   UNL     1      36.587  51.393  41.216  1.00  0.00    -0.084 Cl
HETATM   21  C   UNL     1      34.361  49.873  41.172  1.00  0.00     0.042 A 
BRANCH  15  22
HETATM   22  O   UNL     1      31.319  49.764  43.258  1.00  0.00    -0.358 OA
HETATM   23  H   UNL     1      31.042  48.918  42.843  1.00  0.00     0.218 HD
ENDBRANCH  15  22
ENDBRANCH   1  14
TORSDOF 3
ENDMDL
MODEL 10
REMARK VINA RESULT:      -7.3      5.061      7.535
REMARK  3 active torsions:
REMARK  status: ('A' for Active; 'I' for Inactive)
REMARK    1  A    between atoms: C_10  and  C_11 
REMARK    2  A    between atoms: C_11  and  C_12 
REMARK    3  A    between atoms: C_13  and  O_14 
ROOT
HETATM    1  C   UNL     1      26.445  45.602  52.593  1.00  0.00     0.196 C 
HETATM    2  O   UNL     1      25.969  46.620  52.096  1.00  0.00    -0.286 OA
ENDROOT
BRANCH   1   3
HETATM    3  C   UNL     1      27.262  45.716  53.818  1.00  0.00     0.034 A 
HETATM    4  C   UNL     1      26.994  46.766  54.696  1.00  0.00     0.134 A 
HETATM    5  N   UNL     1      27.651  47.012  55.859  1.00  0.00    -0.240 NA
HETATM    6  C   UNL     1      28.644  46.131  56.086  1.00  0.00     0.155 A 
HETATM    7  N   UNL     1      29.486  46.121  57.160  1.00  0.00    -0.260 N 
HETATM    8  C   UNL     1      29.031  45.065  55.290  1.00  0.00     0.038 A 
HETATM    9  N   UNL     1      30.391  45.122  57.131  1.00  0.00    -0.177 NA
HETATM   10  H   UNL     1      29.488  46.769  57.937  1.00  0.00     0.191 HD
HETATM   11  C   UNL     1      30.120  44.478  55.985  1.00  0.00     0.065 A 
HETATM   12  C   UNL     1      30.922  43.295  55.585  1.00  0.00     0.073 C 
HETATM   13  C   UNL     1      28.322  44.844  54.097  1.00  0.00     0.034 A 
ENDBRANCH   1   3
BRANCH   1  14
HETATM   14  C   UNL     1      26.192  44.307  51.912  1.00  0.00     0.051 A 
HETATM   15  C   UNL     1      24.902  44.019  51.431  1.00  0.00     0.101 A 
HETATM   16  C   UNL     1      24.658  42.809  50.770  1.00  0.00     0.069 A 
HETATM   17 CL   UNL     1      23.096  42.424  50.140  1.00  0.00    -0.081 Cl
HETATM   18  C   UNL     1      25.681  41.874  50.613  1.00  0.00     0.050 A 
HETATM   19  C   UNL     1      26.946  42.147  51.125  1.00  0.00     0.036 A 
HETATM   20 CL   UNL     1      28.206  40.990  50.947  1.00  0.00    -0.084 Cl
HETATM   21  C   UNL     1      27.208  43.352  51.779  1.00  0.00     0.042 A 
BRANCH  15  22
HETATM   22  O   UNL     1      23.865  44.905  51.587  1.00  0.00    -0.358 OA
HETATM   23  H   UNL     1      24.235  45.807  51.711  1.00  0.00     0.218 HD
ENDBRANCH  15  22
ENDBRANCH   1  14
TORSDOF 3
ENDMDL
