MODEL 1
REMARK VINA RESULT:      -9.3      0.000      0.000
REMARK  5 active torsions:
REMARK  status: ('A' for Active; 'I' for Inactive)
REMARK    1  A    between atoms: C_4  and  C_5 
REMARK    2  A    between atoms: C_5  and  N_6 
REMARK    3  A    between atoms: C_9  and  N_10 
REMARK       I    between atoms: N_10  and  C_11 
REMARK       I    between atoms: C_11  and  N_12 
REMARK    4  A    between atoms: N_12  and  N_13 
REMARK       I    between atoms: N_13  and  C_14 
REMARK    5  A    between atoms: C_14  and  C_15 
ROOT
HETATM    1  N   UNL     1      25.985  45.632  51.330  1.00  0.00    -0.336 N 
HETATM    2  C   UNL     1      25.232  46.770  51.160  1.00  0.00     0.335 C 
HETATM    3  N   UNL     1      24.765  46.902  49.877  1.00  0.00    -0.249 N 
HETATM    4  O   UNL     1      24.998  47.559  52.069  1.00  0.00    -0.246 OA
HETATM    5  H   UNL     1      25.734  44.897  50.676  1.00  0.00     0.164 HD
HETATM    6  H   UNL     1      25.261  46.471  49.098  1.00  0.00     0.192 HD
ENDROOT
BRANCH   1   7
HETATM    7  C   UNL     1      26.397  45.216  52.667  1.00  0.00     0.112 C 
HETATM    8  C   UNL     1      27.806  44.568  52.704  1.00  0.00     0.260 C 
HETATM    9  N   UNL     1      28.136  44.116  54.116  1.00  0.00    -0.065 N 
HETATM   10  H   UNL     1      28.061  44.951  54.710  1.00  0.00     0.280 HD
HETATM   11  C   UNL     1      27.144  43.111  54.630  1.00  0.00     0.235 C 
HETATM   12  C   UNL     1      25.759  43.744  54.634  1.00  0.00     0.030 C 
HETATM   13  C   UNL     1      25.359  44.246  53.250  1.00  0.00     0.028 C 
BRANCH   9  14
HETATM   14  C   UNL     1      29.583  43.685  54.279  1.00  0.00     0.273 C 
BRANCH  14  15
HETATM   15  C   UNL     1      30.235  44.042  55.587  1.00  0.00    -0.033 A 
HETATM   16  C   UNL     1      31.169  43.177  56.178  1.00  0.00     0.009 A 
HETATM   17  C   UNL     1      31.762  43.502  57.398  1.00  0.00     0.001 A 
HETATM   18  C   UNL     1      31.434  44.693  58.039  1.00  0.00     0.000 A 
HETATM   19  C   UNL     1      30.517  45.566  57.459  1.00  0.00     0.001 A 
HETATM   20  C   UNL     1      29.921  45.246  56.238  1.00  0.00     0.009 A 
ENDBRANCH  14  15
ENDBRANCH   9  14
ENDBRANCH   1   7
BRANCH   3  21
HETATM   21  N   UNL     1      24.082  48.079  49.543  1.00  0.00    -0.261 N 
HETATM   22  C   UNL     1      22.776  47.986  49.092  1.00  0.00     0.277 C 
HETATM   23  O   UNL     1      22.248  46.880  48.959  1.00  0.00    -0.265 OA
HETATM   24  H   UNL     1      24.562  48.968  49.662  1.00  0.00     0.190 HD
BRANCH  22  25
HETATM   25  C   UNL     1      22.101  49.239  48.800  1.00  0.00     0.075 A 
HETATM   26  S   UNL     1      20.431  49.480  49.119  1.00  0.00    -0.077 SA
HETATM   27  C   UNL     1      20.488  51.069  48.538  1.00  0.00     0.052 A 
HETATM   28 BR   UNL     1      18.994  52.198  48.503  1.00  0.00    -0.043 Br
HETATM   29  C   UNL     1      21.731  51.442  48.097  1.00  0.00     0.028 A 
HETATM   30  C   UNL     1      22.669  50.379  48.253  1.00  0.00     0.026 A 
ENDBRANCH  22  25
ENDBRANCH   3  21
TORSDOF 5
ENDMDL
MODEL 2
REMARK VINA RESULT:      -8.9      4.307     11.026
REMARK  5 active torsions:
REMARK  status: ('A' for Active; 'I' for Inactive)
REMARK    1  A    between atoms: C_4  and  C_5 
REMARK    2  A    between atoms: C_5  and  N_6 
REMARK    3  A    between atoms: C_9  and  N_10 
REMARK       I    between atoms: N_10  and  C_11 
REMARK       I    between atoms: C_11  and  N_12 
REMARK    4  A    between atoms: N_12  and  N_13 
REMARK       I    between atoms: N_13  and  C_14 
REMARK    5  A    between atoms: C_14  and  C_15 
ROOT
HETATM    1  N   UNL     1      24.715  46.635  50.447  1.00  0.00    -0.336 N 
HETATM    2  C   UNL     1      25.614  46.613  51.487  1.00  0.00     0.335 C 
HETATM    3  N   UNL     1      26.187  45.378  51.659  1.00  0.00    -0.249 N 
HETATM    4  O   UNL     1      25.878  47.601  52.164  1.00  0.00    -0.246 OA
HETATM    5  H   UNL     1      24.919  45.935  49.740  1.00  0.00     0.164 HD
HETATM    6  H   UNL     1      25.699  44.535  51.359  1.00  0.00     0.192 HD
ENDROOT
BRANCH   1   7
HETATM    7  C   UNL     1      24.158  47.902  49.984  1.00  0.00     0.112 C 
HETATM    8  C   UNL     1      22.830  47.740  49.198  1.00  0.00     0.260 C 
HETATM    9  N   UNL     1      22.346  49.093  48.707  1.00  0.00    -0.065 N 
HETATM   10  H   UNL     1      22.251  49.685  49.541  1.00  0.00     0.280 HD
HETATM   11  C   UNL     1      23.349  49.754  47.802  1.00  0.00     0.235 C 
HETATM   12  C   UNL     1      24.649  49.952  48.570  1.00  0.00     0.030 C 
HETATM   13  C   UNL     1      25.192  48.635  49.118  1.00  0.00     0.028 C 
BRANCH   9  14
HETATM   14  C   UNL     1      20.941  49.049  48.132  1.00  0.00     0.273 C 
BRANCH  14  15
HETATM   15  C   UNL     1      19.995  50.112  48.620  1.00  0.00    -0.033 A 
HETATM   16  C   UNL     1      19.003  49.805  49.565  1.00  0.00     0.009 A 
HETATM   17  C   UNL     1      18.117  50.788  50.007  1.00  0.00     0.001 A 
HETATM   18  C   UNL     1      18.212  52.086  49.514  1.00  0.00     0.000 A 
HETATM   19  C   UNL     1      19.198  52.408  48.584  1.00  0.00     0.001 A 
HETATM   20  C   UNL     1      20.087  51.428  48.139  1.00  0.00     0.009 A 
ENDBRANCH  14  15
ENDBRANCH   9  14
ENDBRANCH   1   7
BRANCH   3  21
HETATM   21  N   UNL     1      27.034  45.193  52.759  1.00  0.00    -0.261 N 
HETATM   22  C   UNL     1      28.005  44.208  52.693  1.00  0.00     0.277 C 
HETATM   23  O   UNL     1      28.091  43.494  51.693  1.00  0.00    -0.265 OA
HETATM   24  H   UNL     1      26.919  45.802  53.567  1.00  0.00     0.190 HD
BRANCH  22  25
HETATM   25  C   UNL     1      28.884  44.087  53.845  1.00  0.00     0.075 A 
HETATM   26  S   UNL     1      28.871  45.220  55.134  1.00  0.00    -0.077 SA
HETATM   27  C   UNL     1      30.082  44.379  55.965  1.00  0.00     0.052 A 
HETATM   28 BR   UNL     1      30.758  44.932  57.622  1.00  0.00    -0.043 Br
HETATM   29  C   UNL     1      30.516  43.258  55.305  1.00  0.00     0.028 A 
HETATM   30  C   UNL     1      29.815  43.087  54.074  1.00  0.00     0.026 A 
ENDBRANCH  22  25
ENDBRANCH   3  21
TORSDOF 5
ENDMDL
MODEL 3
REMARK VINA RESULT:      -8.8      1.692      1.927
REMARK  5 active torsions:
REMARK  status: ('A' for Active; 'I' for Inactive)
REMARK    1  A    between atoms: C_4  and  C_5 
REMARK    2  A    between atoms: C_5  and  N_6 
REMARK    3  A    between atoms: C_9  and  N_10 
REMARK       I    between atoms: N_10  and  C_11 
REMARK       I    between atoms: C_11  and  N_12 
REMARK    4  A    between atoms: N_12  and  N_13 
REMARK       I    between atoms: N_13  and  C_14 
REMARK    5  A    between atoms: C_14  and  C_15 
ROOT
HETATM    1  N   UNL     1      27.012  44.734  51.022  1.00  0.00    -0.336 N 
HETATM    2  C   UNL     1      25.733  45.227  50.902  1.00  0.00     0.335 C 
HETATM    3  N   UNL     1      25.540  45.899  49.721  1.00  0.00    -0.249 N 
HETATM    4  O   UNL     1      24.869  45.061  51.755  1.00  0.00    -0.246 OA
HETATM    5  H   UNL     1      27.447  44.558  50.122  1.00  0.00     0.164 HD
HETATM    6  H   UNL     1      26.325  46.332  49.236  1.00  0.00     0.192 HD
ENDROOT
BRANCH   1   7
HETATM    7  C   UNL     1      27.348  43.824  52.111  1.00  0.00     0.112 C 
HETATM    8  C   UNL     1      28.834  43.908  52.548  1.00  0.00     0.260 C 
HETATM    9  N   UNL     1      29.115  42.895  53.644  1.00  0.00    -0.065 N 
HETATM   10  H   UNL     1      28.458  43.106  54.406  1.00  0.00     0.280 HD
HETATM   11  C   UNL     1      28.838  41.488  53.192  1.00  0.00     0.235 C 
HETATM   12  C   UNL     1      27.373  41.378  52.793  1.00  0.00     0.030 C 
HETATM   13  C   UNL     1      27.004  42.383  51.705  1.00  0.00     0.028 C 
BRANCH   9  14
HETATM   14  C   UNL     1      30.481  43.074  54.283  1.00  0.00     0.273 C 
BRANCH  14  15
HETATM   15  C   UNL     1      30.510  43.858  55.567  1.00  0.00    -0.033 A 
HETATM   16  C   UNL     1      31.334  43.455  56.630  1.00  0.00     0.009 A 
HETATM   17  C   UNL     1      31.351  44.174  57.826  1.00  0.00     0.001 A 
HETATM   18  C   UNL     1      30.549  45.302  57.973  1.00  0.00     0.000 A 
HETATM   19  C   UNL     1      29.735  45.720  56.924  1.00  0.00     0.001 A 
HETATM   20  C   UNL     1      29.716  45.005  55.725  1.00  0.00     0.009 A 
ENDBRANCH  14  15
ENDBRANCH   9  14
ENDBRANCH   1   7
BRANCH   3  21
HETATM   21  N   UNL     1      24.315  46.550  49.528  1.00  0.00    -0.261 N 
HETATM   22  C   UNL     1      24.294  47.935  49.496  1.00  0.00     0.277 C 
HETATM   23  O   UNL     1      25.336  48.570  49.669  1.00  0.00    -0.265 OA
HETATM   24  H   UNL     1      23.480  45.983  49.398  1.00  0.00     0.190 HD
BRANCH  22  25
HETATM   25  C   UNL     1      23.004  48.558  49.250  1.00  0.00     0.075 A 
HETATM   26  S   UNL     1      22.783  50.260  49.287  1.00  0.00    -0.077 SA
HETATM   27  C   UNL     1      21.137  50.114  48.917  1.00  0.00     0.052 A 
HETATM   28 BR   UNL     1      19.997  51.589  48.735  1.00  0.00    -0.043 Br
HETATM   29  C   UNL     1      20.727  48.815  48.767  1.00  0.00     0.028 A 
HETATM   30  C   UNL     1      21.814  47.911  48.957  1.00  0.00     0.026 A 
ENDBRANCH  22  25
ENDBRANCH   3  21
TORSDOF 5
ENDMDL
MODEL 4
REMARK VINA RESULT:      -8.6      1.793      2.943
REMARK  5 active torsions:
REMARK  status: ('A' for Active; 'I' for Inactive)
REMARK    1  A    between atoms: C_4  and  C_5 
REMARK    2  A    between atoms: C_5  and  N_6 
REMARK    3  A    between atoms: C_9  and  N_10 
REMARK       I    between atoms: N_10  and  C_11 
REMARK       I    between atoms: C_11  and  N_12 
REMARK    4  A    between atoms: N_12  and  N_13 
REMARK       I    between atoms: N_13  and  C_14 
REMARK    5  A    between atoms: C_14  and  C_15 
ROOT
HETATM    1  N   UNL     1      25.109  47.472  50.324  1.00  0.00    -0.336 N 
HETATM    2  C   UNL     1      23.947  47.734  49.635  1.00  0.00     0.335 C 
HETATM    3  N   UNL     1      23.843  49.052  49.267  1.00  0.00    -0.249 N 
HETATM    4  O   UNL     1      23.117  46.871  49.371  1.00  0.00    -0.246 OA
HETATM    5  H   UNL     1      25.855  48.118  50.088  1.00  0.00     0.164 HD
HETATM    6  H   UNL     1      24.322  49.778  49.799  1.00  0.00     0.192 HD
ENDROOT
BRANCH   1   7
HETATM    7  C   UNL     1      25.492  46.096  50.621  1.00  0.00     0.112 C 
HETATM    8  C   UNL     1      25.822  45.857  52.117  1.00  0.00     0.260 C 
HETATM    9  N   UNL     1      26.263  44.420  52.333  1.00  0.00    -0.065 N 
HETATM   10  H   UNL     1      25.494  43.830  51.990  1.00  0.00     0.280 HD
HETATM   11  C   UNL     1      27.483  44.079  51.522  1.00  0.00     0.235 C 
HETATM   12  C   UNL     1      27.164  44.274  50.046  1.00  0.00     0.030 C 
HETATM   13  C   UNL     1      26.691  45.694  49.750  1.00  0.00     0.028 C 
BRANCH   9  14
HETATM   14  C   UNL     1      26.380  44.048  53.800  1.00  0.00     0.273 C 
BRANCH  14  15
HETATM   15  C   UNL     1      27.765  44.103  54.385  1.00  0.00    -0.033 A 
HETATM   16  C   UNL     1      28.618  42.991  54.305  1.00  0.00     0.009 A 
HETATM   17  C   UNL     1      29.897  43.037  54.860  1.00  0.00     0.001 A 
HETATM   18  C   UNL     1      30.340  44.193  55.498  1.00  0.00     0.000 A 
HETATM   19  C   UNL     1      29.508  45.307  55.576  1.00  0.00     0.001 A 
HETATM   20  C   UNL     1      28.228  45.265  55.022  1.00  0.00     0.009 A 
ENDBRANCH  14  15
ENDBRANCH   9  14
ENDBRANCH   1   7
BRANCH   3  21
HETATM   21  N   UNL     1      22.652  49.473  48.662  1.00  0.00    -0.261 N 
HETATM   22  C   UNL     1      21.885  50.435  49.299  1.00  0.00     0.277 C 
HETATM   23  O   UNL     1      22.238  50.879  50.393  1.00  0.00    -0.265 OA
HETATM   24  H   UNL     1      22.397  49.072  47.762  1.00  0.00     0.190 HD
BRANCH  22  25
HETATM   25  C   UNL     1      20.681  50.866  48.607  1.00  0.00     0.075 A 
HETATM   26  S   UNL     1      20.014  49.990  47.290  1.00  0.00    -0.077 SA
HETATM   27  C   UNL     1      18.744  51.097  47.120  1.00  0.00     0.052 A 
HETATM   28 BR   UNL     1      17.406  50.924  45.821  1.00  0.00    -0.043 Br
HETATM   29  C   UNL     1      18.796  52.126  48.024  1.00  0.00     0.028 A 
HETATM   30  C   UNL     1      19.921  51.989  48.890  1.00  0.00     0.026 A 
ENDBRANCH  22  25
ENDBRANCH   3  21
TORSDOF 5
ENDMDL
MODEL 5
REMARK VINA RESULT:      -8.4      1.958      2.428
REMARK  5 active torsions:
REMARK  status: ('A' for Active; 'I' for Inactive)
REMARK    1  A    between atoms: C_4  and  C_5 
REMARK    2  A    between atoms: C_5  and  N_6 
REMARK    3  A    between atoms: C_9  and  N_10 
REMARK       I    between atoms: N_10  and  C_11 
REMARK       I    between atoms: C_11  and  N_12 
REMARK    4  A    between atoms: N_12  and  N_13 
REMARK       I    between atoms: N_13  and  C_14 
REMARK    5  A    between atoms: C_14  and  C_15 
ROOT
HETATM    1  N   UNL     1      26.112  44.755  50.379  1.00  0.00    -0.336 N 
HETATM    2  C   UNL     1      24.830  45.247  50.460  1.00  0.00     0.335 C 
HETATM    3  N   UNL     1      24.570  46.190  49.498  1.00  0.00    -0.249 N 
HETATM    4  O   UNL     1      24.016  44.862  51.292  1.00  0.00    -0.246 OA
HETATM    5  H   UNL     1      26.494  44.815  49.441  1.00  0.00     0.164 HD
HETATM    6  H   UNL     1      25.327  46.740  49.093  1.00  0.00     0.192 HD
ENDROOT
BRANCH   1   7
HETATM    7  C   UNL     1      26.509  43.605  51.185  1.00  0.00     0.112 C 
HETATM    8  C   UNL     1      27.985  43.663  51.658  1.00  0.00     0.260 C 
HETATM    9  N   UNL     1      28.333  42.409  52.441  1.00  0.00    -0.065 N 
HETATM   10  H   UNL     1      27.662  42.360  53.218  1.00  0.00     0.280 HD
HETATM   11  C   UNL     1      28.153  41.165  51.616  1.00  0.00     0.235 C 
HETATM   12  C   UNL     1      26.699  41.073  51.173  1.00  0.00     0.030 C 
HETATM   13  C   UNL     1      26.264  42.311  50.395  1.00  0.00     0.028 C 
BRANCH   9  14
HETATM   14  C   UNL     1      29.683  42.496  53.132  1.00  0.00     0.273 C 
BRANCH  14  15
HETATM   15  C   UNL     1      29.771  43.452  54.290  1.00  0.00    -0.033 A 
HETATM   16  C   UNL     1      28.802  44.453  54.463  1.00  0.00     0.009 A 
HETATM   17  C   UNL     1      28.892  45.349  55.529  1.00  0.00     0.001 A 
HETATM   18  C   UNL     1      29.945  45.253  56.435  1.00  0.00     0.000 A 
HETATM   19  C   UNL     1      30.907  44.258  56.282  1.00  0.00     0.001 A 
HETATM   20  C   UNL     1      30.821  43.359  55.217  1.00  0.00     0.009 A 
ENDBRANCH  14  15
ENDBRANCH   9  14
ENDBRANCH   1   7
BRANCH   3  21
HETATM   21  N   UNL     1      23.338  46.855  49.544  1.00  0.00    -0.261 N 
HETATM   22  C   UNL     1      23.290  48.194  49.196  1.00  0.00     0.277 C 
HETATM   23  O   UNL     1      24.325  48.788  48.886  1.00  0.00    -0.265 OA
HETATM   24  H   UNL     1      22.511  46.325  49.814  1.00  0.00     0.190 HD
BRANCH  22  25
HETATM   25  C   UNL     1      21.979  48.824  49.220  1.00  0.00     0.075 A 
HETATM   26  S   UNL     1      21.772  50.505  49.494  1.00  0.00    -0.077 SA
HETATM   27  C   UNL     1      20.089  50.381  49.357  1.00  0.00     0.052 A 
HETATM   28 BR   UNL     1      18.939  51.850  49.523  1.00  0.00    -0.043 Br
HETATM   29  C   UNL     1      19.657  49.103  49.112  1.00  0.00     0.028 A 
HETATM   30  C   UNL     1      20.757  48.199  49.030  1.00  0.00     0.026 A 
ENDBRANCH  22  25
ENDBRANCH   3  21
TORSDOF 5
ENDMDL
MODEL 6
REMARK VINA RESULT:      -8.3      6.047      7.956
REMARK  5 active torsions:
REMARK  status: ('A' for Active; 'I' for Inactive)
REMARK    1  A    between atoms: C_4  and  C_5 
REMARK    2  A    between atoms: C_5  and  N_6 
REMARK    3  A    between atoms: C_9  and  N_10 
REMARK       I    between atoms: N_10  and  C_11 
REMARK       I    between atoms: C_11  and  N_12 
REMARK    4  A    between atoms: N_12  and  N_13 
REMARK       I    between atoms: N_13  and  C_14 
REMARK    5  A    between atoms: C_14  and  C_15 
ROOT
HETATM    1  N   UNL     1      26.587  42.909  52.950  1.00  0.00    -0.336 N 
HETATM    2  C   UNL     1      27.100  42.154  51.922  1.00  0.00     0.335 C 
HETATM    3  N   UNL     1      26.459  40.948  51.788  1.00  0.00    -0.249 N 
HETATM    4  O   UNL     1      28.015  42.537  51.202  1.00  0.00    -0.246 OA
HETATM    5  H   UNL     1      25.616  42.690  53.148  1.00  0.00     0.164 HD
HETATM    6  H   UNL     1      25.996  40.516  52.586  1.00  0.00     0.192 HD
ENDROOT
BRANCH   1   7
HETATM    7  C   UNL     1      27.002  44.298  53.119  1.00  0.00     0.112 C 
HETATM    8  C   UNL     1      27.444  44.638  54.567  1.00  0.00     0.260 C 
HETATM    9  N   UNL     1      27.807  46.109  54.671  1.00  0.00    -0.065 N 
HETATM   10  H   UNL     1      28.544  46.273  53.975  1.00  0.00     0.280 HD
HETATM   11  C   UNL     1      26.649  46.999  54.313  1.00  0.00     0.235 C 
HETATM   12  C   UNL     1      26.225  46.703  52.880  1.00  0.00     0.030 C 
HETATM   13  C   UNL     1      25.863  45.233  52.687  1.00  0.00     0.028 C 
BRANCH   9  14
HETATM   14  C   UNL     1      28.467  46.466  55.991  1.00  0.00     0.273 C 
BRANCH  14  15
HETATM   15  C   UNL     1      29.551  45.534  56.460  1.00  0.00    -0.033 A 
HETATM   16  C   UNL     1      30.085  44.569  55.592  1.00  0.00     0.009 A 
HETATM   17  C   UNL     1      31.081  43.695  56.031  1.00  0.00     0.001 A 
HETATM   18  C   UNL     1      31.555  43.777  57.337  1.00  0.00     0.000 A 
HETATM   19  C   UNL     1      31.041  44.736  58.206  1.00  0.00     0.001 A 
HETATM   20  C   UNL     1      30.046  45.613  57.771  1.00  0.00     0.009 A 
ENDBRANCH  14  15
ENDBRANCH   9  14
ENDBRANCH   1   7
BRANCH   3  21
HETATM   21  N   UNL     1      26.963  40.036  50.851  1.00  0.00    -0.261 N 
HETATM   22  C   UNL     1      26.335  39.929  49.621  1.00  0.00     0.277 C 
HETATM   23  O   UNL     1      25.333  40.606  49.380  1.00  0.00    -0.265 OA
HETATM   24  H   UNL     1      27.787  39.493  51.098  1.00  0.00     0.190 HD
BRANCH  22  25
HETATM   25  C   UNL     1      26.923  38.999  48.672  1.00  0.00     0.075 A 
HETATM   26  S   UNL     1      27.591  39.511  47.176  1.00  0.00    -0.077 SA
HETATM   27  C   UNL     1      28.016  37.928  46.755  1.00  0.00     0.052 A 
HETATM   28 BR   UNL     1      28.875  37.493  45.148  1.00  0.00    -0.043 Br
HETATM   29  C   UNL     1      27.670  37.001  47.704  1.00  0.00     0.028 A 
HETATM   30  C   UNL     1      27.038  37.626  48.820  1.00  0.00     0.026 A 
ENDBRANCH  22  25
ENDBRANCH   3  21
TORSDOF 5
ENDMDL
MODEL 7
REMARK VINA RESULT:      -8.1      4.406     10.820
REMARK  5 active torsions:
REMARK  status: ('A' for Active; 'I' for Inactive)
REMARK    1  A    between atoms: C_4  and  C_5 
REMARK    2  A    between atoms: C_5  and  N_6 
REMARK    3  A    between atoms: C_9  and  N_10 
REMARK       I    between atoms: N_10  and  C_11 
REMARK       I    between atoms: C_11  and  N_12 
REMARK    4  A    between atoms: N_12  and  N_13 
REMARK       I    between atoms: N_13  and  C_14 
REMARK    5  A    between atoms: C_14  and  C_15 
ROOT
HETATM    1  N   UNL     1      23.077  45.455  49.564  1.00  0.00    -0.336 N 
HETATM    2  C   UNL     1      24.396  45.290  49.917  1.00  0.00     0.335 C 
HETATM    3  N   UNL     1      24.588  44.200  50.728  1.00  0.00    -0.249 N 
HETATM    4  O   UNL     1      25.291  46.032  49.528  1.00  0.00    -0.246 OA
HETATM    5  H   UNL     1      22.559  44.582  49.574  1.00  0.00     0.164 HD
HETATM    6  H   UNL     1      23.832  43.851  51.316  1.00  0.00     0.192 HD
ENDROOT
BRANCH   1   7
HETATM    7  C   UNL     1      22.706  46.435  48.548  1.00  0.00     0.112 C 
HETATM    8  C   UNL     1      22.502  47.864  49.116  1.00  0.00     0.260 C 
HETATM    9  N   UNL     1      22.067  48.808  48.009  1.00  0.00    -0.065 N 
HETATM   10  H   UNL     1      22.796  48.762  47.288  1.00  0.00     0.280 HD
HETATM   11  C   UNL     1      20.778  48.369  47.371  1.00  0.00     0.235 C 
HETATM   12  C   UNL     1      20.972  46.980  46.776  1.00  0.00     0.030 C 
HETATM   13  C   UNL     1      21.433  45.972  47.825  1.00  0.00     0.028 C 
BRANCH   9  14
HETATM   14  C   UNL     1      22.071  50.266  48.436  1.00  0.00     0.273 C 
BRANCH  14  15
HETATM   15  C   UNL     1      20.739  50.839  48.838  1.00  0.00    -0.033 A 
HETATM   16  C   UNL     1      20.170  51.898  48.113  1.00  0.00     0.009 A 
HETATM   17  C   UNL     1      18.942  52.438  48.494  1.00  0.00     0.001 A 
HETATM   18  C   UNL     1      18.267  51.928  49.599  1.00  0.00     0.000 A 
HETATM   19  C   UNL     1      18.813  50.870  50.322  1.00  0.00     0.001 A 
HETATM   20  C   UNL     1      20.042  50.326  49.944  1.00  0.00     0.009 A 
ENDBRANCH  14  15
ENDBRANCH   9  14
ENDBRANCH   1   7
BRANCH   3  21
HETATM   21  N   UNL     1      25.870  43.989  51.254  1.00  0.00    -0.261 N 
HETATM   22  C   UNL     1      26.027  43.952  52.629  1.00  0.00     0.277 C 
HETATM   23  O   UNL     1      25.056  44.135  53.366  1.00  0.00    -0.265 OA
HETATM   24  H   UNL     1      26.643  43.851  50.606  1.00  0.00     0.190 HD
BRANCH  22  25
HETATM   25  C   UNL     1      27.370  43.688  53.121  1.00  0.00     0.075 A 
HETATM   26  S   UNL     1      27.935  44.298  54.622  1.00  0.00    -0.077 SA
HETATM   27  C   UNL     1      29.448  43.566  54.417  1.00  0.00     0.052 A 
HETATM   28 BR   UNL     1      30.828  43.702  55.677  1.00  0.00    -0.043 Br
HETATM   29  C   UNL     1      29.560  42.868  53.243  1.00  0.00     0.028 A 
HETATM   30  C   UNL     1      28.349  42.937  52.491  1.00  0.00     0.026 A 
ENDBRANCH  22  25
ENDBRANCH   3  21
TORSDOF 5
ENDMDL
MODEL 8
REMARK VINA RESULT:      -7.9      4.373     10.654
REMARK  5 active torsions:
REMARK  status: ('A' for Active; 'I' for Inactive)
REMARK    1  A    between atoms: C_4  and  C_5 
REMARK    2  A    between atoms: C_5  and  N_6 
REMARK    3  A    between atoms: C_9  and  N_10 
REMARK       I    between atoms: N_10  and  C_11 
REMARK       I    between atoms: C_11  and  N_12 
REMARK    4  A    between atoms: N_12  and  N_13 
REMARK       I    between atoms: N_13  and  C_14 
REMARK    5  A    between atoms: C_14  and  C_15 
ROOT
HETATM    1  N   UNL     1      22.719  45.562  49.270  1.00  0.00    -0.336 N 
HETATM    2  C   UNL     1      23.780  46.106  49.954  1.00  0.00     0.335 C 
HETATM    3  N   UNL     1      24.295  45.247  50.891  1.00  0.00    -0.249 N 
HETATM    4  O   UNL     1      24.218  47.229  49.727  1.00  0.00    -0.246 OA
HETATM    5  H   UNL     1      22.755  44.548  49.237  1.00  0.00     0.164 HD
HETATM    6  H   UNL     1      23.711  44.520  51.304  1.00  0.00     0.192 HD
ENDROOT
BRANCH   1   7
HETATM    7  C   UNL     1      22.171  46.243  48.101  1.00  0.00     0.112 C 
HETATM    8  C   UNL     1      20.754  46.828  48.338  1.00  0.00     0.260 C 
HETATM    9  N   UNL     1      20.234  47.471  47.063  1.00  0.00    -0.065 N 
HETATM   10  H   UNL     1      20.926  48.183  46.799  1.00  0.00     0.280 HD
HETATM   11  C   UNL     1      20.153  46.485  45.931  1.00  0.00     0.235 C 
HETATM   12  C   UNL     1      21.544  45.927  45.662  1.00  0.00     0.030 C 
HETATM   13  C   UNL     1      22.147  45.280  46.906  1.00  0.00     0.028 C 
BRANCH   9  14
HETATM   14  C   UNL     1      18.958  48.265  47.276  1.00  0.00     0.273 C 
BRANCH  14  15
HETATM   15  C   UNL     1      19.090  49.519  48.097  1.00  0.00    -0.033 A 
HETATM   16  C   UNL     1      18.222  49.760  49.174  1.00  0.00     0.009 A 
HETATM   17  C   UNL     1      18.336  50.929  49.927  1.00  0.00     0.001 A 
HETATM   18  C   UNL     1      19.317  51.867  49.617  1.00  0.00     0.000 A 
HETATM   19  C   UNL     1      20.191  51.636  48.558  1.00  0.00     0.001 A 
HETATM   20  C   UNL     1      20.081  50.468  47.802  1.00  0.00     0.009 A 
ENDBRANCH  14  15
ENDBRANCH   9  14
ENDBRANCH   1   7
BRANCH   3  21
HETATM   21  N   UNL     1      25.305  45.724  51.737  1.00  0.00    -0.261 N 
HETATM   22  C   UNL     1      25.420  45.184  53.007  1.00  0.00     0.277 C 
HETATM   23  O   UNL     1      24.622  44.324  53.386  1.00  0.00    -0.265 OA
HETATM   24  H   UNL     1      25.935  46.440  51.383  1.00  0.00     0.190 HD
BRANCH  22  25
HETATM   25  C   UNL     1      26.511  45.684  53.828  1.00  0.00     0.075 A 
HETATM   26  S   UNL     1      27.670  44.644  54.550  1.00  0.00    -0.077 SA
HETATM   27  C   UNL     1      28.494  45.949  55.246  1.00  0.00     0.052 A 
HETATM   28 BR   UNL     1      30.029  45.743  56.300  1.00  0.00    -0.043 Br
HETATM   29  C   UNL     1      27.927  47.164  54.962  1.00  0.00     0.028 A 
HETATM   30  C   UNL     1      26.776  47.009  54.134  1.00  0.00     0.026 A 
ENDBRANCH  22  25
ENDBRANCH   3  21
TORSDOF 5
ENDMDL
MODEL 9
REMARK VINA RESULT:      -7.8      2.346      2.456
REMARK  5 active torsions:
REMARK  status: ('A' for Active; 'I' for Inactive)
REMARK    1  A    between atoms: C_4  and  C_5 
REMARK    2  A    between atoms: C_5  and  N_6 
REMARK    3  A    between atoms: C_9  and  N_10 
REMARK       I    between atoms: N_10  and  C_11 
REMARK       I    between atoms: C_11  and  N_12 
REMARK    4  A    between atoms: N_12  and  N_13 
REMARK       I    between atoms: N_13  and  C_14 
REMARK    5  A    between atoms: C_14  and  C_15 
ROOT
HETATM    1  N   UNL     1      25.779  44.470  50.695  1.00  0.00    -0.336 N 
HETATM    2  C   UNL     1      24.720  45.226  50.251  1.00  0.00     0.335 C 
HETATM    3  N   UNL     1      24.236  44.791  49.044  1.00  0.00    -0.249 N 
HETATM    4  O   UNL     1      24.260  46.170  50.884  1.00  0.00    -0.246 OA
HETATM    5  H   UNL     1      25.760  43.522  50.333  1.00  0.00     0.164 HD
HETATM    6  H   UNL     1      24.839  44.286  48.395  1.00  0.00     0.192 HD
ENDROOT
BRANCH   1   7
HETATM    7  C   UNL     1      26.296  44.652  52.048  1.00  0.00     0.112 C 
HETATM    8  C   UNL     1      27.688  44.003  52.268  1.00  0.00     0.260 C 
HETATM    9  N   UNL     1      28.129  44.191  53.709  1.00  0.00    -0.065 N 
HETATM   10  H   UNL     1      28.125  45.203  53.882  1.00  0.00     0.280 HD
HETATM   11  C   UNL     1      27.162  43.568  54.678  1.00  0.00     0.235 C 
HETATM   12  C   UNL     1      25.797  44.220  54.499  1.00  0.00     0.030 C 
HETATM   13  C   UNL     1      25.291  44.094  53.065  1.00  0.00     0.028 C 
BRANCH   9  14
HETATM   14  C   UNL     1      29.574  43.788  53.945  1.00  0.00     0.273 C 
BRANCH  14  15
HETATM   15  C   UNL     1      30.126  44.085  55.313  1.00  0.00    -0.033 A 
HETATM   16  C   UNL     1      30.973  43.168  55.955  1.00  0.00     0.009 A 
HETATM   17  C   UNL     1      31.473  43.437  57.229  1.00  0.00     0.001 A 
HETATM   18  C   UNL     1      31.137  44.624  57.875  1.00  0.00     0.000 A 
HETATM   19  C   UNL     1      30.307  45.548  57.246  1.00  0.00     0.001 A 
HETATM   20  C   UNL     1      29.804  45.283  55.971  1.00  0.00     0.009 A 
ENDBRANCH  14  15
ENDBRANCH   9  14
ENDBRANCH   1   7
BRANCH   3  21
HETATM   21  N   UNL     1      23.232  45.548  48.426  1.00  0.00    -0.261 N 
HETATM   22  C   UNL     1      21.916  45.132  48.545  1.00  0.00     0.277 C 
HETATM   23  O   UNL     1      21.650  44.096  49.158  1.00  0.00    -0.265 OA
HETATM   24  H   UNL     1      23.500  46.391  47.924  1.00  0.00     0.190 HD
BRANCH  22  25
HETATM   25  C   UNL     1      20.911  45.977  47.921  1.00  0.00     0.075 A 
HETATM   26  S   UNL     1      19.233  45.622  48.001  1.00  0.00    -0.077 SA
HETATM   27  C   UNL     1      18.838  47.001  47.101  1.00  0.00     0.052 A 
HETATM   28 BR   UNL     1      17.077  47.466  46.666  1.00  0.00    -0.043 Br
HETATM   29  C   UNL     1      19.932  47.736  46.726  1.00  0.00     0.028 A 
HETATM   30  C   UNL     1      21.136  47.142  47.206  1.00  0.00     0.026 A 
ENDBRANCH  22  25
ENDBRANCH   3  21
TORSDOF 5
ENDMDL
MODEL 10
REMARK VINA RESULT:      -7.6      4.542     10.939
REMARK  5 active torsions:
REMARK  status: ('A' for Active; 'I' for Inactive)
REMARK    1  A    between atoms: C_4  and  C_5 
REMARK    2  A    between atoms: C_5  and  N_6 
REMARK    3  A    between atoms: C_9  and  N_10 
REMARK       I    between atoms: N_10  and  C_11 
REMARK       I    between atoms: C_11  and  N_12 
REMARK    4  A    between atoms: N_12  and  N_13 
REMARK       I    between atoms: N_13  and  C_14 
REMARK    5  A    between atoms: C_14  and  C_15 
ROOT
HETATM    1  N   UNL     1      22.653  45.105  49.480  1.00  0.00    -0.336 N 
HETATM    2  C   UNL     1      23.995  44.965  49.745  1.00  0.00     0.335 C 
HETATM    3  N   UNL     1      24.238  44.064  50.751  1.00  0.00    -0.249 N 
HETATM    4  O   UNL     1      24.866  45.570  49.130  1.00  0.00    -0.246 OA
HETATM    5  H   UNL     1      22.119  44.277  49.721  1.00  0.00     0.164 HD
HETATM    6  H   UNL     1      23.532  43.879  51.463  1.00  0.00     0.192 HD
ENDROOT
BRANCH   1   7
HETATM    7  C   UNL     1      22.210  45.863  48.314  1.00  0.00     0.112 C 
HETATM    8  C   UNL     1      20.798  46.482  48.480  1.00  0.00     0.260 C 
HETATM    9  N   UNL     1      20.391  47.205  47.209  1.00  0.00    -0.065 N 
HETATM   10  H   UNL     1      21.120  47.906  47.031  1.00  0.00     0.280 HD
HETATM   11  C   UNL     1      20.361  46.281  46.023  1.00  0.00     0.235 C 
HETATM   12  C   UNL     1      21.751  45.691  45.823  1.00  0.00     0.030 C 
HETATM   13  C   UNL     1      22.244  44.963  47.070  1.00  0.00     0.028 C 
BRANCH   9  14
HETATM   14  C   UNL     1      19.126  48.029  47.373  1.00  0.00     0.273 C 
BRANCH  14  15
HETATM   15  C   UNL     1      19.298  49.380  48.013  1.00  0.00    -0.033 A 
HETATM   16  C   UNL     1      18.286  49.919  48.823  1.00  0.00     0.009 A 
HETATM   17  C   UNL     1      18.440  51.177  49.405  1.00  0.00     0.001 A 
HETATM   18  C   UNL     1      19.603  51.910  49.188  1.00  0.00     0.000 A 
HETATM   19  C   UNL     1      20.620  51.383  48.394  1.00  0.00     0.001 A 
HETATM   20  C   UNL     1      20.471  50.124  47.811  1.00  0.00     0.009 A 
ENDBRANCH  14  15
ENDBRANCH   9  14
ENDBRANCH   1   7
BRANCH   3  21
HETATM   21  N   UNL     1      25.558  43.916  51.198  1.00  0.00    -0.261 N 
HETATM   22  C   UNL     1      25.809  43.953  52.559  1.00  0.00     0.277 C 
HETATM   23  O   UNL     1      24.884  44.145  53.351  1.00  0.00    -0.265 OA
HETATM   24  H   UNL     1      26.290  43.768  50.506  1.00  0.00     0.190 HD
BRANCH  22  25
HETATM   25  C   UNL     1      27.189  43.752  52.970  1.00  0.00     0.075 A 
HETATM   26  S   UNL     1      27.716  44.015  54.582  1.00  0.00    -0.077 SA
HETATM   27  C   UNL     1      29.305  43.574  54.198  1.00  0.00     0.052 A 
HETATM   28 BR   UNL     1      30.693  43.557  55.454  1.00  0.00    -0.043 Br
HETATM   29  C   UNL     1      29.470  43.234  52.880  1.00  0.00     0.028 A 
HETATM   30  C   UNL     1      28.239  43.334  52.168  1.00  0.00     0.026 A 
ENDBRANCH  22  25
ENDBRANCH   3  21
TORSDOF 5
ENDMDL
