MODEL 1
REMARK VINA RESULT:     -10.0      0.000      0.000
REMARK  8 active torsions:
REMARK  status: ('A' for Active; 'I' for Inactive)
REMARK    1  A    between atoms: C_4  and  C_5 
REMARK    2  A    between atoms: C_5  and  N_6 
REMARK    3  A    between atoms: C_5  and  C_36 
REMARK    4  A    between atoms: N_10  and  C_11 
REMARK    5  A    between atoms: C_13  and  C_14 
REMARK       I    between atoms: C_14  and  N_15 
REMARK    6  A    between atoms: N_15  and  C_16 
REMARK    7  A    between atoms: C_19  and  O_20 
REMARK    8  A    between atoms: O_20  and  C_21 
ROOT
HETATM    1  C   UNL     1      21.200  44.311  46.354  1.00  0.00     0.181 C 
HETATM    2  N   UNL     1      21.262  43.326  47.284  1.00  0.00    -0.249 NA
HETATM    3  C   UNL     1      22.173  42.190  47.119  1.00  0.00     0.164 C 
HETATM    4  C   UNL     1      22.783  42.104  45.747  1.00  0.00     0.134 C 
HETATM    5  C   UNL     1      22.953  43.472  45.151  1.00  0.00     0.247 C 
HETATM    6  O   UNL     1      23.935  43.714  44.455  1.00  0.00    -0.271 OA
HETATM    7  N   UNL     1      21.927  44.371  45.292  1.00  0.00    -0.185 NA
HETATM    8  H   UNL     1      21.425  43.740  48.208  1.00  0.00     0.131 HD
ENDROOT
BRANCH   1   9
HETATM    9  N   UNL     1      20.250  45.274  46.639  1.00  0.00    -0.353 N 
HETATM   10  C   UNL     1      20.143  46.552  45.917  1.00  0.00     0.153 C 
HETATM   11  C   UNL     1      20.890  47.650  46.695  1.00  0.00     0.256 C 
HETATM   12  N   UNL     1      20.310  47.755  48.107  1.00  0.00    -0.056 N 
HETATM   13  H   UNL     1      19.306  47.914  47.988  1.00  0.00     0.281 HD
HETATM   14  C   UNL     1      20.403  46.407  48.833  1.00  0.00     0.256 C 
HETATM   15  C   UNL     1      19.669  45.329  48.000  1.00  0.00     0.153 C 
BRANCH  12  16
HETATM   16  C   UNL     1      20.800  48.992  48.861  1.00  0.00     0.254 C 
BRANCH  16  17
HETATM   17  C   UNL     1      19.878  50.204  48.759  1.00  0.00    -0.023 A 
HETATM   18  C   UNL     1      19.580  50.939  49.924  1.00  0.00     0.009 A 
HETATM   19  C   UNL     1      18.720  52.038  49.883  1.00  0.00     0.001 A 
HETATM   20  C   UNL     1      18.144  52.428  48.679  1.00  0.00     0.000 A 
HETATM   21  C   UNL     1      18.433  51.723  47.514  1.00  0.00     0.001 A 
HETATM   22  C   UNL     1      19.293  50.623  47.552  1.00  0.00     0.009 A 
ENDBRANCH  16  17
BRANCH  16  23
HETATM   23  C   UNL     1      22.304  49.224  48.713  1.00  0.00    -0.023 A 
HETATM   24  C   UNL     1      22.858  50.281  47.973  1.00  0.00     0.009 A 
HETATM   25  C   UNL     1      24.242  50.458  47.894  1.00  0.00     0.001 A 
HETATM   26  C   UNL     1      25.102  49.585  48.552  1.00  0.00     0.000 A 
HETATM   27  C   UNL     1      24.580  48.537  49.301  1.00  0.00     0.001 A 
HETATM   28  C   UNL     1      23.197  48.359  49.386  1.00  0.00     0.009 A 
ENDBRANCH  16  23
ENDBRANCH  12  16
ENDBRANCH   1   9
BRANCH   3  29
HETATM   29  C   UNL     1      23.218  42.217  48.251  1.00  0.00     0.240 C 
HETATM   30  N   UNL     1      23.276  43.426  48.929  1.00  0.00    -0.326 N 
HETATM   31  H   UNL     1      22.615  44.148  48.668  1.00  0.00     0.169 HD
HETATM   32  O   UNL     1      23.985  41.263  48.388  1.00  0.00    -0.271 OA
BRANCH  30  33
HETATM   33  C   UNL     1      24.304  43.846  49.803  1.00  0.00     0.034 A 
HETATM   34  C   UNL     1      24.323  43.281  51.087  1.00  0.00     0.032 A 
HETATM   35  C   UNL     1      25.251  43.711  52.043  1.00  0.00     0.039 A 
HETATM   36  C   UNL     1      26.198  44.676  51.707  1.00  0.00     0.076 A 
HETATM   37  C   UNL     1      26.195  45.229  50.428  1.00  0.00     0.039 A 
HETATM   38  C   UNL     1      25.256  44.814  49.479  1.00  0.00     0.032 A 
BRANCH  36  39
HETATM   39  O   UNL     1      27.102  45.210  52.595  1.00  0.00    -0.311 OA
BRANCH  39  40
HETATM   40  C   UNL     1      28.116  44.417  53.079  1.00  0.00     0.076 A 
HETATM   41  C   UNL     1      28.812  43.489  52.301  1.00  0.00     0.037 A 
HETATM   42  C   UNL     1      29.863  42.762  52.861  1.00  0.00     0.003 A 
HETATM   43  C   UNL     1      30.237  42.981  54.188  1.00  0.00     0.000 A 
HETATM   44  C   UNL     1      29.562  43.931  54.955  1.00  0.00     0.003 A 
HETATM   45  C   UNL     1      28.505  44.652  54.399  1.00  0.00     0.037 A 
ENDBRANCH  39  40
ENDBRANCH  36  39
ENDBRANCH  30  33
ENDBRANCH   3  29
TORSDOF 8
ENDMDL
MODEL 2
REMARK VINA RESULT:      -9.9      3.113      5.785
REMARK  8 active torsions:
REMARK  status: ('A' for Active; 'I' for Inactive)
REMARK    1  A    between atoms: C_4  and  C_5 
REMARK    2  A    between atoms: C_5  and  N_6 
REMARK    3  A    between atoms: C_5  and  C_36 
REMARK    4  A    between atoms: N_10  and  C_11 
REMARK    5  A    between atoms: C_13  and  C_14 
REMARK       I    between atoms: C_14  and  N_15 
REMARK    6  A    between atoms: N_15  and  C_16 
REMARK    7  A    between atoms: C_19  and  O_20 
REMARK    8  A    between atoms: O_20  and  C_21 
ROOT
HETATM    1  C   UNL     1      21.180  49.604  49.317  1.00  0.00     0.181 C 
HETATM    2  N   UNL     1      21.635  48.326  49.356  1.00  0.00    -0.249 NA
HETATM    3  C   UNL     1      22.854  47.938  48.641  1.00  0.00     0.164 C 
HETATM    4  C   UNL     1      23.350  48.989  47.686  1.00  0.00     0.134 C 
HETATM    5  C   UNL     1      23.014  50.365  48.184  1.00  0.00     0.247 C 
HETATM    6  O   UNL     1      23.805  51.287  48.004  1.00  0.00    -0.271 OA
HETATM    7  N   UNL     1      21.763  50.577  48.705  1.00  0.00    -0.185 NA
HETATM    8  H   UNL     1      21.724  48.026  50.332  1.00  0.00     0.131 HD
ENDROOT
BRANCH   1   9
HETATM    9  N   UNL     1      19.992  49.782  50.000  1.00  0.00    -0.353 N 
HETATM   10  C   UNL     1      18.886  48.811  49.976  1.00  0.00     0.153 C 
HETATM   11  C   UNL     1      17.857  49.225  48.909  1.00  0.00     0.256 C 
HETATM   12  N   UNL     1      17.354  50.639  49.211  1.00  0.00    -0.056 N 
HETATM   13  H   UNL     1      16.999  50.612  50.170  1.00  0.00     0.281 HD
HETATM   14  C   UNL     1      18.523  51.631  49.262  1.00  0.00     0.256 C 
HETATM   15  C   UNL     1      19.547  51.157  50.321  1.00  0.00     0.153 C 
BRANCH  12  16
HETATM   16  C   UNL     1      16.138  51.031  48.370  1.00  0.00     0.254 C 
BRANCH  16  17
HETATM   17  C   UNL     1      16.362  50.965  46.862  1.00  0.00    -0.023 A 
HETATM   18  C   UNL     1      17.352  51.781  46.279  1.00  0.00     0.009 A 
HETATM   19  C   UNL     1      17.574  51.774  44.901  1.00  0.00     0.001 A 
HETATM   20  C   UNL     1      16.814  50.949  44.078  1.00  0.00     0.000 A 
HETATM   21  C   UNL     1      15.838  50.127  44.633  1.00  0.00     0.001 A 
HETATM   22  C   UNL     1      15.614  50.133  46.012  1.00  0.00     0.009 A 
ENDBRANCH  16  17
BRANCH  16  23
HETATM   23  C   UNL     1      15.394  52.244  48.930  1.00  0.00    -0.023 A 
HETATM   24  C   UNL     1      15.188  52.463  50.302  1.00  0.00     0.009 A 
HETATM   25  C   UNL     1      14.521  53.605  50.757  1.00  0.00     0.001 A 
HETATM   26  C   UNL     1      14.048  54.551  49.854  1.00  0.00     0.000 A 
HETATM   27  C   UNL     1      14.248  54.364  48.491  1.00  0.00     0.001 A 
HETATM   28  C   UNL     1      14.918  53.226  48.033  1.00  0.00     0.009 A 
ENDBRANCH  16  23
ENDBRANCH  12  16
ENDBRANCH   1   9
BRANCH   3  29
HETATM   29  C   UNL     1      23.916  47.493  49.664  1.00  0.00     0.240 C 
HETATM   30  N   UNL     1      24.355  46.190  49.482  1.00  0.00    -0.326 N 
HETATM   31  H   UNL     1      23.993  45.674  48.690  1.00  0.00     0.169 HD
HETATM   32  O   UNL     1      24.196  48.236  50.605  1.00  0.00    -0.271 OA
BRANCH  30  33
HETATM   33  C   UNL     1      25.094  45.419  50.409  1.00  0.00     0.034 A 
HETATM   34  C   UNL     1      26.427  45.132  50.083  1.00  0.00     0.032 A 
HETATM   35  C   UNL     1      27.199  44.298  50.901  1.00  0.00     0.039 A 
HETATM   36  C   UNL     1      26.656  43.784  52.078  1.00  0.00     0.076 A 
HETATM   37  C   UNL     1      25.337  44.080  52.415  1.00  0.00     0.039 A 
HETATM   38  C   UNL     1      24.560  44.897  51.588  1.00  0.00     0.032 A 
BRANCH  36  39
HETATM   39  O   UNL     1      27.310  42.904  52.907  1.00  0.00    -0.311 OA
BRANCH  39  40
HETATM   40  C   UNL     1      28.243  43.386  53.795  1.00  0.00     0.076 A 
HETATM   41  C   UNL     1      29.460  42.752  54.061  1.00  0.00     0.037 A 
HETATM   42  C   UNL     1      30.371  43.339  54.939  1.00  0.00     0.003 A 
HETATM   43  C   UNL     1      30.081  44.570  55.529  1.00  0.00     0.000 A 
HETATM   44  C   UNL     1      28.881  45.219  55.239  1.00  0.00     0.003 A 
HETATM   45  C   UNL     1      27.964  44.628  54.368  1.00  0.00     0.037 A 
ENDBRANCH  39  40
ENDBRANCH  36  39
ENDBRANCH  30  33
ENDBRANCH   3  29
TORSDOF 8
ENDMDL
MODEL 3
REMARK VINA RESULT:      -9.9      2.289      7.966
REMARK  8 active torsions:
REMARK  status: ('A' for Active; 'I' for Inactive)
REMARK    1  A    between atoms: C_4  and  C_5 
REMARK    2  A    between atoms: C_5  and  N_6 
REMARK    3  A    between atoms: C_5  and  C_36 
REMARK    4  A    between atoms: N_10  and  C_11 
REMARK    5  A    between atoms: C_13  and  C_14 
REMARK       I    between atoms: C_14  and  N_15 
REMARK    6  A    between atoms: N_15  and  C_16 
REMARK    7  A    between atoms: C_19  and  O_20 
REMARK    8  A    between atoms: O_20  and  C_21 
ROOT
HETATM    1  C   UNL     1      24.510  42.008  48.350  1.00  0.00     0.181 C 
HETATM    2  N   UNL     1      24.234  43.074  47.558  1.00  0.00    -0.249 NA
HETATM    3  C   UNL     1      23.491  42.911  46.306  1.00  0.00     0.164 C 
HETATM    4  C   UNL     1      23.330  41.475  45.886  1.00  0.00     0.134 C 
HETATM    5  C   UNL     1      23.261  40.573  47.084  1.00  0.00     0.247 C 
HETATM    6  O   UNL     1      22.521  39.593  47.065  1.00  0.00    -0.271 OA
HETATM    7  N   UNL     1      24.136  40.798  48.115  1.00  0.00    -0.185 NA
HETATM    8  H   UNL     1      23.773  43.802  48.115  1.00  0.00     0.131 HD
ENDROOT
BRANCH   1   9
HETATM    9  N   UNL     1      25.265  42.333  49.461  1.00  0.00    -0.353 N 
HETATM   10  C   UNL     1      24.720  42.394  50.827  1.00  0.00     0.153 C 
HETATM   11  C   UNL     1      24.344  43.846  51.170  1.00  0.00     0.256 C 
HETATM   12  N   UNL     1      25.578  44.739  51.020  1.00  0.00    -0.056 N 
HETATM   13  H   UNL     1      26.299  44.325  51.616  1.00  0.00     0.281 HD
HETATM   14  C   UNL     1      26.150  44.639  49.600  1.00  0.00     0.256 C 
HETATM   15  C   UNL     1      26.481  43.161  49.287  1.00  0.00     0.153 C 
BRANCH  12  16
HETATM   16  C   UNL     1      25.373  46.141  51.596  1.00  0.00     0.254 C 
BRANCH  16  17
HETATM   17  C   UNL     1      25.385  47.260  50.560  1.00  0.00    -0.023 A 
HETATM   18  C   UNL     1      26.614  47.848  50.200  1.00  0.00     0.009 A 
HETATM   19  C   UNL     1      26.672  48.893  49.276  1.00  0.00     0.001 A 
HETATM   20  C   UNL     1      25.504  49.371  48.691  1.00  0.00     0.000 A 
HETATM   21  C   UNL     1      24.279  48.798  49.024  1.00  0.00     0.001 A 
HETATM   22  C   UNL     1      24.219  47.752  49.948  1.00  0.00     0.009 A 
ENDBRANCH  16  17
BRANCH  16  23
HETATM   23  C   UNL     1      26.137  46.366  52.901  1.00  0.00    -0.023 A 
HETATM   24  C   UNL     1      27.164  45.521  53.355  1.00  0.00     0.009 A 
HETATM   25  C   UNL     1      27.846  45.792  54.545  1.00  0.00     0.001 A 
HETATM   26  C   UNL     1      27.520  46.910  55.305  1.00  0.00     0.000 A 
HETATM   27  C   UNL     1      26.516  47.768  54.873  1.00  0.00     0.001 A 
HETATM   28  C   UNL     1      25.835  47.504  53.682  1.00  0.00     0.009 A 
ENDBRANCH  16  23
ENDBRANCH  12  16
ENDBRANCH   1   9
BRANCH   3  29
HETATM   29  C   UNL     1      22.152  43.667  46.414  1.00  0.00     0.240 C 
HETATM   30  N   UNL     1      22.218  44.982  45.977  1.00  0.00    -0.326 N 
HETATM   31  H   UNL     1      23.093  45.310  45.589  1.00  0.00     0.169 HD
HETATM   32  O   UNL     1      21.197  43.128  46.973  1.00  0.00    -0.271 OA
BRANCH  30  33
HETATM   33  C   UNL     1      21.255  45.990  46.213  1.00  0.00     0.034 A 
HETATM   34  C   UNL     1      21.291  46.631  47.459  1.00  0.00     0.032 A 
HETATM   35  C   UNL     1      20.317  47.575  47.806  1.00  0.00     0.039 A 
HETATM   36  C   UNL     1      19.326  47.919  46.888  1.00  0.00     0.076 A 
HETATM   37  C   UNL     1      19.295  47.297  45.642  1.00  0.00     0.039 A 
HETATM   38  C   UNL     1      20.256  46.341  45.303  1.00  0.00     0.032 A 
BRANCH  36  39
HETATM   39  O   UNL     1      18.290  48.780  47.162  1.00  0.00    -0.311 OA
BRANCH  39  40
HETATM   40  C   UNL     1      18.523  49.881  47.953  1.00  0.00     0.076 A 
HETATM   41  C   UNL     1      19.366  50.933  47.589  1.00  0.00     0.037 A 
HETATM   42  C   UNL     1      19.504  52.036  48.432  1.00  0.00     0.003 A 
HETATM   43  C   UNL     1      18.781  52.102  49.623  1.00  0.00     0.000 A 
HETATM   44  C   UNL     1      17.914  51.067  49.972  1.00  0.00     0.003 A 
HETATM   45  C   UNL     1      17.782  49.958  49.134  1.00  0.00     0.037 A 
ENDBRANCH  39  40
ENDBRANCH  36  39
ENDBRANCH  30  33
ENDBRANCH   3  29
TORSDOF 8
ENDMDL
MODEL 4
REMARK VINA RESULT:      -9.9      2.330      4.332
REMARK  8 active torsions:
REMARK  status: ('A' for Active; 'I' for Inactive)
REMARK    1  A    between atoms: C_4  and  C_5 
REMARK    2  A    between atoms: C_5  and  N_6 
REMARK    3  A    between atoms: C_5  and  C_36 
REMARK    4  A    between atoms: N_10  and  C_11 
REMARK    5  A    between atoms: C_13  and  C_14 
REMARK       I    between atoms: C_14  and  N_15 
REMARK    6  A    between atoms: N_15  and  C_16 
REMARK    7  A    between atoms: C_19  and  O_20 
REMARK    8  A    between atoms: O_20  and  C_21 
ROOT
HETATM    1  C   UNL     1      22.903  45.122  48.488  1.00  0.00     0.181 C 
HETATM    2  N   UNL     1      23.313  45.463  49.736  1.00  0.00    -0.249 NA
HETATM    3  C   UNL     1      23.637  44.437  50.730  1.00  0.00     0.164 C 
HETATM    4  C   UNL     1      23.213  43.052  50.324  1.00  0.00     0.134 C 
HETATM    5  C   UNL     1      23.271  42.892  48.832  1.00  0.00     0.247 C 
HETATM    6  O   UNL     1      23.623  41.819  48.349  1.00  0.00    -0.271 OA
HETATM    7  N   UNL     1      22.794  43.914  48.052  1.00  0.00    -0.185 NA
HETATM    8  H   UNL     1      24.106  46.110  49.668  1.00  0.00     0.131 HD
ENDROOT
BRANCH   1   9
HETATM    9  N   UNL     1      22.588  46.211  47.699  1.00  0.00    -0.353 N 
HETATM   10  C   UNL     1      22.524  47.592  48.204  1.00  0.00     0.153 C 
HETATM   11  C   UNL     1      21.069  47.947  48.555  1.00  0.00     0.256 C 
HETATM   12  N   UNL     1      20.188  47.764  47.317  1.00  0.00    -0.056 N 
HETATM   13  H   UNL     1      20.611  48.338  46.583  1.00  0.00     0.281 HD
HETATM   14  C   UNL     1      20.291  46.328  46.787  1.00  0.00     0.256 C 
HETATM   15  C   UNL     1      21.773  46.003  46.480  1.00  0.00     0.153 C 
BRANCH  12  16
HETATM   16  C   UNL     1      18.785  48.347  47.491  1.00  0.00     0.254 C 
BRANCH  16  17
HETATM   17  C   UNL     1      17.870  48.168  46.284  1.00  0.00    -0.023 A 
HETATM   18  C   UNL     1      16.755  47.311  46.390  1.00  0.00     0.009 A 
HETATM   19  C   UNL     1      15.905  47.095  45.305  1.00  0.00     0.001 A 
HETATM   20  C   UNL     1      16.148  47.732  44.092  1.00  0.00     0.000 A 
HETATM   21  C   UNL     1      17.236  48.591  43.968  1.00  0.00     0.001 A 
HETATM   22  C   UNL     1      18.088  48.809  45.053  1.00  0.00     0.009 A 
ENDBRANCH  16  17
BRANCH  16  23
HETATM   23  C   UNL     1      18.789  49.707  48.190  1.00  0.00    -0.023 A 
HETATM   24  C   UNL     1      19.595  50.785  47.788  1.00  0.00     0.009 A 
HETATM   25  C   UNL     1      19.536  52.015  48.451  1.00  0.00     0.001 A 
HETATM   26  C   UNL     1      18.673  52.195  49.526  1.00  0.00     0.000 A 
HETATM   27  C   UNL     1      17.857  51.148  49.937  1.00  0.00     0.001 A 
HETATM   28  C   UNL     1      17.908  49.919  49.275  1.00  0.00     0.009 A 
ENDBRANCH  16  23
ENDBRANCH  12  16
ENDBRANCH   1   9
BRANCH   3  29
HETATM   29  C   UNL     1      25.133  44.538  51.086  1.00  0.00     0.240 C 
HETATM   30  N   UNL     1      25.635  43.405  51.710  1.00  0.00    -0.326 N 
HETATM   31  H   UNL     1      25.013  42.615  51.830  1.00  0.00     0.169 HD
HETATM   32  O   UNL     1      25.722  45.606  50.923  1.00  0.00    -0.271 OA
BRANCH  30  33
HETATM   33  C   UNL     1      26.865  43.306  52.398  1.00  0.00     0.034 A 
HETATM   34  C   UNL     1      26.822  43.360  53.799  1.00  0.00     0.032 A 
HETATM   35  C   UNL     1      28.002  43.362  54.552  1.00  0.00     0.039 A 
HETATM   36  C   UNL     1      29.235  43.261  53.909  1.00  0.00     0.076 A 
HETATM   37  C   UNL     1      29.284  43.190  52.518  1.00  0.00     0.039 A 
HETATM   38  C   UNL     1      28.106  43.208  51.766  1.00  0.00     0.032 A 
BRANCH  36  39
HETATM   39  O   UNL     1      30.447  43.324  54.555  1.00  0.00    -0.311 OA
BRANCH  39  40
HETATM   40  C   UNL     1      30.553  44.062  55.712  1.00  0.00     0.076 A 
HETATM   41  C   UNL     1      29.885  45.271  55.923  1.00  0.00     0.037 A 
HETATM   42  C   UNL     1      30.010  45.927  57.148  1.00  0.00     0.003 A 
HETATM   43  C   UNL     1      30.777  45.365  58.170  1.00  0.00     0.000 A 
HETATM   44  C   UNL     1      31.417  44.142  57.969  1.00  0.00     0.003 A 
HETATM   45  C   UNL     1      31.301  43.488  56.742  1.00  0.00     0.037 A 
ENDBRANCH  39  40
ENDBRANCH  36  39
ENDBRANCH  30  33
ENDBRANCH   3  29
TORSDOF 8
ENDMDL
MODEL 5
REMARK VINA RESULT:      -9.5      1.549      3.421
REMARK  8 active torsions:
REMARK  status: ('A' for Active; 'I' for Inactive)
REMARK    1  A    between atoms: C_4  and  C_5 
REMARK    2  A    between atoms: C_5  and  N_6 
REMARK    3  A    between atoms: C_5  and  C_36 
REMARK    4  A    between atoms: N_10  and  C_11 
REMARK    5  A    between atoms: C_13  and  C_14 
REMARK       I    between atoms: C_14  and  N_15 
REMARK    6  A    between atoms: N_15  and  C_16 
REMARK    7  A    between atoms: C_19  and  O_20 
REMARK    8  A    between atoms: O_20  and  C_21 
ROOT
HETATM    1  C   UNL     1      21.055  44.375  47.294  1.00  0.00     0.181 C 
HETATM    2  N   UNL     1      21.484  44.057  48.541  1.00  0.00    -0.249 NA
HETATM    3  C   UNL     1      22.676  43.229  48.740  1.00  0.00     0.164 C 
HETATM    4  C   UNL     1      23.170  42.575  47.478  1.00  0.00     0.134 C 
HETATM    5  C   UNL     1      22.874  43.433  46.281  1.00  0.00     0.247 C 
HETATM    6  O   UNL     1      23.679  43.483  45.356  1.00  0.00    -0.271 OA
HETATM    7  N   UNL     1      21.642  44.028  46.201  1.00  0.00    -0.185 NA
HETATM    8  H   UNL     1      21.590  44.915  49.093  1.00  0.00     0.131 HD
ENDROOT
BRANCH   1   9
HETATM    9  N   UNL     1      19.888  45.115  47.290  1.00  0.00    -0.353 N 
HETATM   10  C   UNL     1      19.353  45.785  46.093  1.00  0.00     0.153 C 
HETATM   11  C   UNL     1      19.799  47.257  46.081  1.00  0.00     0.256 C 
HETATM   12  N   UNL     1      19.324  47.942  47.364  1.00  0.00    -0.056 N 
HETATM   13  H   UNL     1      18.312  47.795  47.403  1.00  0.00     0.281 HD
HETATM   14  C   UNL     1      19.866  47.213  48.600  1.00  0.00     0.256 C 
HETATM   15  C   UNL     1      19.422  45.732  48.553  1.00  0.00     0.153 C 
BRANCH  12  16
HETATM   16  C   UNL     1      19.482  49.463  47.322  1.00  0.00     0.254 C 
BRANCH  16  17
HETATM   17  C   UNL     1      20.746  49.988  47.996  1.00  0.00    -0.023 A 
HETATM   18  C   UNL     1      20.672  50.448  49.327  1.00  0.00     0.009 A 
HETATM   19  C   UNL     1      21.796  50.962  49.975  1.00  0.00     0.001 A 
HETATM   20  C   UNL     1      23.016  51.024  49.310  1.00  0.00     0.000 A 
HETATM   21  C   UNL     1      23.114  50.565  48.000  1.00  0.00     0.001 A 
HETATM   22  C   UNL     1      21.991  50.051  47.348  1.00  0.00     0.009 A 
ENDBRANCH  16  17
BRANCH  16  23
HETATM   23  C   UNL     1      18.170  50.205  47.583  1.00  0.00    -0.023 A 
HETATM   24  C   UNL     1      18.022  51.594  47.435  1.00  0.00     0.009 A 
HETATM   25  C   UNL     1      16.790  52.214  47.664  1.00  0.00     0.001 A 
HETATM   26  C   UNL     1      15.683  51.464  48.043  1.00  0.00     0.000 A 
HETATM   27  C   UNL     1      15.799  50.086  48.185  1.00  0.00     0.001 A 
HETATM   28  C   UNL     1      17.027  49.461  47.953  1.00  0.00     0.009 A 
ENDBRANCH  16  23
ENDBRANCH  12  16
ENDBRANCH   1   9
BRANCH   3  29
HETATM   29  C   UNL     1      23.754  44.064  49.456  1.00  0.00     0.240 C 
HETATM   30  N   UNL     1      24.610  43.311  50.246  1.00  0.00    -0.326 N 
HETATM   31  H   UNL     1      24.493  42.305  50.247  1.00  0.00     0.169 HD
HETATM   32  O   UNL     1      23.709  45.292  49.390  1.00  0.00    -0.271 OA
BRANCH  30  33
HETATM   33  C   UNL     1      25.498  43.808  51.228  1.00  0.00     0.034 A 
HETATM   34  C   UNL     1      25.014  43.901  52.540  1.00  0.00     0.032 A 
HETATM   35  C   UNL     1      25.797  44.469  53.553  1.00  0.00     0.039 A 
HETATM   36  C   UNL     1      27.090  44.905  53.268  1.00  0.00     0.076 A 
HETATM   37  C   UNL     1      27.582  44.801  51.968  1.00  0.00     0.039 A 
HETATM   38  C   UNL     1      26.792  44.251  50.953  1.00  0.00     0.032 A 
BRANCH  36  39
HETATM   39  O   UNL     1      27.906  45.537  54.176  1.00  0.00    -0.311 OA
BRANCH  39  40
HETATM   40  C   UNL     1      28.893  44.817  54.806  1.00  0.00     0.076 A 
HETATM   41  C   UNL     1      29.286  43.534  54.415  1.00  0.00     0.037 A 
HETATM   42  C   UNL     1      30.334  42.897  55.080  1.00  0.00     0.003 A 
HETATM   43  C   UNL     1      31.007  43.548  56.114  1.00  0.00     0.000 A 
HETATM   44  C   UNL     1      30.636  44.841  56.483  1.00  0.00     0.003 A 
HETATM   45  C   UNL     1      29.582  45.477  55.825  1.00  0.00     0.037 A 
ENDBRANCH  39  40
ENDBRANCH  36  39
ENDBRANCH  30  33
ENDBRANCH   3  29
TORSDOF 8
ENDMDL
MODEL 6
REMARK VINA RESULT:      -8.9      1.699      2.385
REMARK  8 active torsions:
REMARK  status: ('A' for Active; 'I' for Inactive)
REMARK    1  A    between atoms: C_4  and  C_5 
REMARK    2  A    between atoms: C_5  and  N_6 
REMARK    3  A    between atoms: C_5  and  C_36 
REMARK    4  A    between atoms: N_10  and  C_11 
REMARK    5  A    between atoms: C_13  and  C_14 
REMARK       I    between atoms: C_14  and  N_15 
REMARK    6  A    between atoms: N_15  and  C_16 
REMARK    7  A    between atoms: C_19  and  O_20 
REMARK    8  A    between atoms: O_20  and  C_21 
ROOT
HETATM    1  C   UNL     1      19.969  45.128  46.286  1.00  0.00     0.181 C 
HETATM    2  N   UNL     1      20.222  43.892  46.784  1.00  0.00    -0.249 NA
HETATM    3  C   UNL     1      21.246  43.033  46.184  1.00  0.00     0.164 C 
HETATM    4  C   UNL     1      21.751  43.536  44.859  1.00  0.00     0.134 C 
HETATM    5  C   UNL     1      21.709  45.036  44.806  1.00  0.00     0.247 C 
HETATM    6  O   UNL     1      22.597  45.649  44.220  1.00  0.00    -0.271 OA
HETATM    7  N   UNL     1      20.598  45.670  45.299  1.00  0.00    -0.185 NA
HETATM    8  H   UNL     1      20.407  43.962  47.790  1.00  0.00     0.131 HD
ENDROOT
BRANCH   1   9
HETATM    9  N   UNL     1      18.937  45.779  46.935  1.00  0.00    -0.353 N 
HETATM   10  C   UNL     1      18.249  46.961  46.391  1.00  0.00     0.153 C 
HETATM   11  C   UNL     1      18.873  48.239  46.978  1.00  0.00     0.256 C 
HETATM   12  N   UNL     1      18.782  48.192  48.505  1.00  0.00    -0.056 N 
HETATM   13  H   UNL     1      17.792  48.052  48.724  1.00  0.00     0.281 HD
HETATM   14  C   UNL     1      19.477  46.939  49.052  1.00  0.00     0.256 C 
HETATM   15  C   UNL     1      18.842  45.683  48.410  1.00  0.00     0.153 C 
BRANCH  12  16
HETATM   16  C   UNL     1      19.126  49.529  49.164  1.00  0.00     0.254 C 
BRANCH  16  17
HETATM   17  C   UNL     1      18.017  50.575  49.095  1.00  0.00    -0.023 A 
HETATM   18  C   UNL     1      18.284  51.887  49.537  1.00  0.00     0.009 A 
HETATM   19  C   UNL     1      17.293  52.869  49.519  1.00  0.00     0.001 A 
HETATM   20  C   UNL     1      16.017  52.564  49.056  1.00  0.00     0.000 A 
HETATM   21  C   UNL     1      15.735  51.278  48.605  1.00  0.00     0.001 A 
HETATM   22  C   UNL     1      16.725  50.292  48.622  1.00  0.00     0.009 A 
ENDBRANCH  16  17
BRANCH  16  23
HETATM   23  C   UNL     1      20.557  49.984  48.874  1.00  0.00    -0.023 A 
HETATM   24  C   UNL     1      21.108  50.037  47.583  1.00  0.00     0.009 A 
HETATM   25  C   UNL     1      22.416  50.487  47.377  1.00  0.00     0.001 A 
HETATM   26  C   UNL     1      23.199  50.893  48.452  1.00  0.00     0.000 A 
HETATM   27  C   UNL     1      22.674  50.861  49.738  1.00  0.00     0.001 A 
HETATM   28  C   UNL     1      21.366  50.417  49.948  1.00  0.00     0.009 A 
ENDBRANCH  16  23
ENDBRANCH  12  16
ENDBRANCH   1   9
BRANCH   3  29
HETATM   29  C   UNL     1      22.368  42.794  47.213  1.00  0.00     0.240 C 
HETATM   30  N   UNL     1      22.377  43.714  48.251  1.00  0.00    -0.326 N 
HETATM   31  H   UNL     1      21.642  44.410  48.275  1.00  0.00     0.169 HD
HETATM   32  O   UNL     1      23.217  41.931  46.992  1.00  0.00    -0.271 OA
BRANCH  30  33
HETATM   33  C   UNL     1      23.430  43.927  49.171  1.00  0.00     0.034 A 
HETATM   34  C   UNL     1      24.419  44.852  48.808  1.00  0.00     0.032 A 
HETATM   35  C   UNL     1      25.543  45.052  49.619  1.00  0.00     0.039 A 
HETATM   36  C   UNL     1      25.660  44.362  50.825  1.00  0.00     0.076 A 
HETATM   37  C   UNL     1      24.672  43.454  51.198  1.00  0.00     0.039 A 
HETATM   38  C   UNL     1      23.559  43.240  50.379  1.00  0.00     0.032 A 
BRANCH  36  39
HETATM   39  O   UNL     1      26.755  44.440  51.652  1.00  0.00    -0.311 OA
BRANCH  39  40
HETATM   40  C   UNL     1      26.757  45.356  52.678  1.00  0.00     0.076 A 
HETATM   41  C   UNL     1      25.962  46.504  52.694  1.00  0.00     0.037 A 
HETATM   42  C   UNL     1      25.989  47.352  53.802  1.00  0.00     0.003 A 
HETATM   43  C   UNL     1      26.789  47.041  54.903  1.00  0.00     0.000 A 
HETATM   44  C   UNL     1      27.559  45.878  54.900  1.00  0.00     0.003 A 
HETATM   45  C   UNL     1      27.539  45.033  53.789  1.00  0.00     0.037 A 
ENDBRANCH  39  40
ENDBRANCH  36  39
ENDBRANCH  30  33
ENDBRANCH   3  29
TORSDOF 8
ENDMDL
MODEL 7
REMARK VINA RESULT:      -8.7      2.419      4.588
REMARK  8 active torsions:
REMARK  status: ('A' for Active; 'I' for Inactive)
REMARK    1  A    between atoms: C_4  and  C_5 
REMARK    2  A    between atoms: C_5  and  N_6 
REMARK    3  A    between atoms: C_5  and  C_36 
REMARK    4  A    between atoms: N_10  and  C_11 
REMARK    5  A    between atoms: C_13  and  C_14 
REMARK       I    between atoms: C_14  and  N_15 
REMARK    6  A    between atoms: N_15  and  C_16 
REMARK    7  A    between atoms: C_19  and  O_20 
REMARK    8  A    between atoms: O_20  and  C_21 
ROOT
HETATM    1  C   UNL     1      21.440  44.483  48.744  1.00  0.00     0.181 C 
HETATM    2  N   UNL     1      21.973  44.246  49.968  1.00  0.00    -0.249 NA
HETATM    3  C   UNL     1      22.952  43.175  50.170  1.00  0.00     0.164 C 
HETATM    4  C   UNL     1      23.073  42.243  48.995  1.00  0.00     0.134 C 
HETATM    5  C   UNL     1      22.803  42.968  47.708  1.00  0.00     0.247 C 
HETATM    6  O   UNL     1      23.441  42.676  46.701  1.00  0.00    -0.271 OA
HETATM    7  N   UNL     1      21.749  43.844  47.668  1.00  0.00    -0.185 NA
HETATM    8  H   UNL     1      22.364  45.116  50.343  1.00  0.00     0.131 HD
ENDROOT
BRANCH   1   9
HETATM    9  N   UNL     1      20.494  45.490  48.744  1.00  0.00    -0.353 N 
HETATM   10  C   UNL     1      19.085  45.285  48.370  1.00  0.00     0.153 C 
HETATM   11  C   UNL     1      18.883  45.661  46.891  1.00  0.00     0.256 C 
HETATM   12  N   UNL     1      19.314  47.112  46.673  1.00  0.00    -0.056 N 
HETATM   13  H   UNL     1      18.774  47.670  47.341  1.00  0.00     0.281 HD
HETATM   14  C   UNL     1      20.774  47.314  47.097  1.00  0.00     0.256 C 
HETATM   15  C   UNL     1      20.938  46.893  48.577  1.00  0.00     0.153 C 
BRANCH  12  16
HETATM   16  C   UNL     1      18.899  47.658  45.306  1.00  0.00     0.254 C 
BRANCH  16  17
HETATM   17  C   UNL     1      18.442  49.114  45.316  1.00  0.00    -0.023 A 
HETATM   18  C   UNL     1      18.315  49.802  44.092  1.00  0.00     0.009 A 
HETATM   19  C   UNL     1      17.926  51.141  44.054  1.00  0.00     0.001 A 
HETATM   20  C   UNL     1      17.653  51.821  45.236  1.00  0.00     0.000 A 
HETATM   21  C   UNL     1      17.761  51.159  46.456  1.00  0.00     0.001 A 
HETATM   22  C   UNL     1      18.150  49.818  46.497  1.00  0.00     0.009 A 
ENDBRANCH  16  17
BRANCH  16  23
HETATM   23  C   UNL     1      18.082  46.658  44.488  1.00  0.00    -0.023 A 
HETATM   24  C   UNL     1      18.642  45.794  43.533  1.00  0.00     0.009 A 
HETATM   25  C   UNL     1      17.848  44.882  42.833  1.00  0.00     0.001 A 
HETATM   26  C   UNL     1      16.480  44.810  43.072  1.00  0.00     0.000 A 
HETATM   27  C   UNL     1      15.901  45.645  44.021  1.00  0.00     0.001 A 
HETATM   28  C   UNL     1      16.692  46.556  44.725  1.00  0.00     0.009 A 
ENDBRANCH  16  23
ENDBRANCH  12  16
ENDBRANCH   1   9
BRANCH   3  29
HETATM   29  C   UNL     1      24.296  43.797  50.596  1.00  0.00     0.240 C 
HETATM   30  N   UNL     1      24.816  43.256  51.762  1.00  0.00    -0.326 N 
HETATM   31  H   UNL     1      24.316  42.490  52.195  1.00  0.00     0.169 HD
HETATM   32  O   UNL     1      24.733  44.770  49.981  1.00  0.00    -0.271 OA
BRANCH  30  33
HETATM   33  C   UNL     1      25.862  43.801  52.542  1.00  0.00     0.034 A 
HETATM   34  C   UNL     1      25.497  44.548  53.671  1.00  0.00     0.032 A 
HETATM   35  C   UNL     1      26.467  45.198  54.443  1.00  0.00     0.039 A 
HETATM   36  C   UNL     1      27.816  45.064  54.119  1.00  0.00     0.076 A 
HETATM   37  C   UNL     1      28.186  44.310  53.008  1.00  0.00     0.039 A 
HETATM   38  C   UNL     1      27.216  43.677  52.225  1.00  0.00     0.032 A 
BRANCH  36  39
HETATM   39  O   UNL     1      28.832  45.718  54.774  1.00  0.00    -0.311 OA
BRANCH  39  40
HETATM   40  C   UNL     1      29.649  45.009  55.624  1.00  0.00     0.076 A 
HETATM   41  C   UNL     1      30.263  43.802  55.281  1.00  0.00     0.037 A 
HETATM   42  C   UNL     1      31.118  43.176  56.189  1.00  0.00     0.003 A 
HETATM   43  C   UNL     1      31.381  43.767  57.425  1.00  0.00     0.000 A 
HETATM   44  C   UNL     1      30.793  44.988  57.755  1.00  0.00     0.003 A 
HETATM   45  C   UNL     1      29.931  45.611  56.852  1.00  0.00     0.037 A 
ENDBRANCH  39  40
ENDBRANCH  36  39
ENDBRANCH  30  33
ENDBRANCH   3  29
TORSDOF 8
ENDMDL
MODEL 8
REMARK VINA RESULT:      -8.7      4.316      8.173
REMARK  8 active torsions:
REMARK  status: ('A' for Active; 'I' for Inactive)
REMARK    1  A    between atoms: C_4  and  C_5 
REMARK    2  A    between atoms: C_5  and  N_6 
REMARK    3  A    between atoms: C_5  and  C_36 
REMARK    4  A    between atoms: N_10  and  C_11 
REMARK    5  A    between atoms: C_13  and  C_14 
REMARK       I    between atoms: C_14  and  N_15 
REMARK    6  A    between atoms: N_15  and  C_16 
REMARK    7  A    between atoms: C_19  and  O_20 
REMARK    8  A    between atoms: O_20  and  C_21 
ROOT
HETATM    1  C   UNL     1      23.218  42.780  47.800  1.00  0.00     0.181 C 
HETATM    2  N   UNL     1      23.946  42.624  46.667  1.00  0.00    -0.249 NA
HETATM    3  C   UNL     1      23.293  42.503  45.361  1.00  0.00     0.164 C 
HETATM    4  C   UNL     1      21.805  42.295  45.451  1.00  0.00     0.134 C 
HETATM    5  C   UNL     1      21.244  42.976  46.665  1.00  0.00     0.247 C 
HETATM    6  O   UNL     1      20.135  43.502  46.609  1.00  0.00    -0.271 OA
HETATM    7  N   UNL     1      21.933  42.868  47.846  1.00  0.00    -0.185 NA
HETATM    8  H   UNL     1      24.648  43.370  46.609  1.00  0.00     0.131 HD
ENDROOT
BRANCH   1   9
HETATM    9  N   UNL     1      23.990  42.822  48.945  1.00  0.00    -0.353 N 
HETATM   10  C   UNL     1      23.433  42.985  50.298  1.00  0.00     0.153 C 
HETATM   11  C   UNL     1      23.485  44.468  50.704  1.00  0.00     0.256 C 
HETATM   12  N   UNL     1      24.931  44.963  50.632  1.00  0.00    -0.056 N 
HETATM   13  H   UNL     1      25.475  44.331  51.225  1.00  0.00     0.281 HD
HETATM   14  C   UNL     1      25.505  44.758  49.224  1.00  0.00     0.256 C 
HETATM   15  C   UNL     1      25.400  43.261  48.845  1.00  0.00     0.153 C 
BRANCH  12  16
HETATM   16  C   UNL     1      25.123  46.338  51.273  1.00  0.00     0.254 C 
BRANCH  16  17
HETATM   17  C   UNL     1      25.384  47.469  50.283  1.00  0.00    -0.023 A 
HETATM   18  C   UNL     1      26.714  47.853  50.015  1.00  0.00     0.009 A 
HETATM   19  C   UNL     1      27.000  48.900  49.137  1.00  0.00     0.001 A 
HETATM   20  C   UNL     1      25.965  49.582  48.506  1.00  0.00     0.000 A 
HETATM   21  C   UNL     1      24.645  49.212  48.747  1.00  0.00     0.001 A 
HETATM   22  C   UNL     1      24.356  48.165  49.625  1.00  0.00     0.009 A 
ENDBRANCH  16  17
BRANCH  16  23
HETATM   23  C   UNL     1      25.974  46.290  52.543  1.00  0.00    -0.023 A 
HETATM   24  C   UNL     1      25.955  47.290  53.529  1.00  0.00     0.009 A 
HETATM   25  C   UNL     1      26.737  47.179  54.683  1.00  0.00     0.001 A 
HETATM   26  C   UNL     1      27.551  46.068  54.878  1.00  0.00     0.000 A 
HETATM   27  C   UNL     1      27.579  45.058  53.924  1.00  0.00     0.001 A 
HETATM   28  C   UNL     1      26.796  45.163  52.771  1.00  0.00     0.009 A 
ENDBRANCH  16  23
ENDBRANCH  12  16
ENDBRANCH   1   9
BRANCH   3  29
HETATM   29  C   UNL     1      23.688  43.709  44.487  1.00  0.00     0.240 C 
HETATM   30  N   UNL     1      24.469  43.373  43.392  1.00  0.00    -0.326 N 
HETATM   31  H   UNL     1      24.666  42.393  43.233  1.00  0.00     0.169 HD
HETATM   32  O   UNL     1      23.410  44.847  44.868  1.00  0.00    -0.271 OA
BRANCH  30  33
HETATM   33  C   UNL     1      25.209  44.268  42.587  1.00  0.00     0.034 A 
HETATM   34  C   UNL     1      24.546  45.415  42.128  1.00  0.00     0.032 A 
HETATM   35  C   UNL     1      25.177  46.305  41.251  1.00  0.00     0.039 A 
HETATM   36  C   UNL     1      26.497  46.077  40.863  1.00  0.00     0.076 A 
HETATM   37  C   UNL     1      27.167  44.948  41.329  1.00  0.00     0.039 A 
HETATM   38  C   UNL     1      26.529  44.049  42.190  1.00  0.00     0.032 A 
BRANCH  36  39
HETATM   39  O   UNL     1      27.176  46.853  39.954  1.00  0.00    -0.311 OA
BRANCH  39  40
HETATM   40  C   UNL     1      28.386  47.402  40.312  1.00  0.00     0.076 A 
HETATM   41  C   UNL     1      28.553  48.272  41.391  1.00  0.00     0.037 A 
HETATM   42  C   UNL     1      29.827  48.741  41.714  1.00  0.00     0.003 A 
HETATM   43  C   UNL     1      30.936  48.321  40.978  1.00  0.00     0.000 A 
HETATM   44  C   UNL     1      30.773  47.427  39.920  1.00  0.00     0.003 A 
HETATM   45  C   UNL     1      29.498  46.964  39.590  1.00  0.00     0.037 A 
ENDBRANCH  39  40
ENDBRANCH  36  39
ENDBRANCH  30  33
ENDBRANCH   3  29
TORSDOF 8
ENDMDL
MODEL 9
REMARK VINA RESULT:      -8.7      2.052      3.826
REMARK  8 active torsions:
REMARK  status: ('A' for Active; 'I' for Inactive)
REMARK    1  A    between atoms: C_4  and  C_5 
REMARK    2  A    between atoms: C_5  and  N_6 
REMARK    3  A    between atoms: C_5  and  C_36 
REMARK    4  A    between atoms: N_10  and  C_11 
REMARK    5  A    between atoms: C_13  and  C_14 
REMARK       I    between atoms: C_14  and  N_15 
REMARK    6  A    between atoms: N_15  and  C_16 
REMARK    7  A    between atoms: C_19  and  O_20 
REMARK    8  A    between atoms: O_20  and  C_21 
ROOT
HETATM    1  C   UNL     1      20.501  44.782  45.941  1.00  0.00     0.181 C 
HETATM    2  N   UNL     1      20.840  44.202  47.119  1.00  0.00    -0.249 NA
HETATM    3  C   UNL     1      22.140  43.547  47.291  1.00  0.00     0.164 C 
HETATM    4  C   UNL     1      22.890  43.355  46.001  1.00  0.00     0.134 C 
HETATM    5  C   UNL     1      22.571  44.453  45.029  1.00  0.00     0.247 C 
HETATM    6  O   UNL     1      23.450  44.883  44.287  1.00  0.00    -0.271 OA
HETATM    7  N   UNL     1      21.264  44.848  44.904  1.00  0.00    -0.185 NA
HETATM    8  H   UNL     1      20.716  44.878  47.880  1.00  0.00     0.131 HD
ENDROOT
BRANCH   1   9
HETATM    9  N   UNL     1      19.221  45.303  45.936  1.00  0.00    -0.353 N 
HETATM   10  C   UNL     1      18.606  45.942  44.761  1.00  0.00     0.153 C 
HETATM   11  C   UNL     1      18.782  47.468  44.851  1.00  0.00     0.256 C 
HETATM   12  N   UNL     1      18.159  47.974  46.153  1.00  0.00    -0.056 N 
HETATM   13  H   UNL     1      17.189  47.649  46.146  1.00  0.00     0.281 HD
HETATM   14  C   UNL     1      18.790  47.276  47.364  1.00  0.00     0.256 C 
HETATM   15  C   UNL     1      18.620  45.745  47.215  1.00  0.00     0.153 C 
BRANCH  12  16
HETATM   16  C   UNL     1      18.043  49.499  46.205  1.00  0.00     0.254 C 
BRANCH  16  17
HETATM   17  C   UNL     1      18.735  50.147  47.400  1.00  0.00    -0.023 A 
HETATM   18  C   UNL     1      18.025  50.288  48.610  1.00  0.00     0.009 A 
HETATM   19  C   UNL     1      18.607  50.899  49.722  1.00  0.00     0.001 A 
HETATM   20  C   UNL     1      19.911  51.378  49.650  1.00  0.00     0.000 A 
HETATM   21  C   UNL     1      20.635  51.239  48.469  1.00  0.00     0.001 A 
HETATM   22  C   UNL     1      20.054  50.629  47.355  1.00  0.00     0.009 A 
ENDBRANCH  16  17
BRANCH  16  23
HETATM   23  C   UNL     1      16.651  50.003  45.824  1.00  0.00    -0.023 A 
HETATM   24  C   UNL     1      16.383  51.329  45.445  1.00  0.00     0.009 A 
HETATM   25  C   UNL     1      15.093  51.727  45.082  1.00  0.00     0.001 A 
HETATM   26  C   UNL     1      14.045  50.813  45.089  1.00  0.00     0.000 A 
HETATM   27  C   UNL     1      14.285  49.492  45.449  1.00  0.00     0.001 A 
HETATM   28  C   UNL     1      15.574  49.089  45.808  1.00  0.00     0.009 A 
ENDBRANCH  16  23
ENDBRANCH  12  16
ENDBRANCH   1   9
BRANCH   3  29
HETATM   29  C   UNL     1      22.949  44.309  48.359  1.00  0.00     0.240 C 
HETATM   30  N   UNL     1      24.204  43.771  48.596  1.00  0.00    -0.326 N 
HETATM   31  H   UNL     1      24.497  42.982  48.033  1.00  0.00     0.169 HD
HETATM   32  O   UNL     1      22.409  45.216  48.992  1.00  0.00    -0.271 OA
BRANCH  30  33
HETATM   33  C   UNL     1      25.047  44.065  49.693  1.00  0.00     0.034 A 
HETATM   34  C   UNL     1      24.744  43.449  50.916  1.00  0.00     0.032 A 
HETATM   35  C   UNL     1      25.470  43.758  52.072  1.00  0.00     0.039 A 
HETATM   36  C   UNL     1      26.539  44.651  52.002  1.00  0.00     0.076 A 
HETATM   37  C   UNL     1      26.855  45.254  50.786  1.00  0.00     0.039 A 
HETATM   38  C   UNL     1      26.116  44.960  49.636  1.00  0.00     0.032 A 
BRANCH  36  39
HETATM   39  O   UNL     1      27.265  45.068  53.092  1.00  0.00    -0.311 OA
BRANCH  39  40
HETATM   40  C   UNL     1      28.346  44.324  53.503  1.00  0.00     0.076 A 
HETATM   41  C   UNL     1      29.009  43.405  52.686  1.00  0.00     0.037 A 
HETATM   42  C   UNL     1      30.131  42.730  53.169  1.00  0.00     0.003 A 
HETATM   43  C   UNL     1      30.607  42.993  54.455  1.00  0.00     0.000 A 
HETATM   44  C   UNL     1      29.964  43.934  55.258  1.00  0.00     0.003 A 
HETATM   45  C   UNL     1      28.836  44.603  54.780  1.00  0.00     0.037 A 
ENDBRANCH  39  40
ENDBRANCH  36  39
ENDBRANCH  30  33
ENDBRANCH   3  29
TORSDOF 8
ENDMDL
MODEL 10
REMARK VINA RESULT:      -8.5      3.745      8.139
REMARK  8 active torsions:
REMARK  status: ('A' for Active; 'I' for Inactive)
REMARK    1  A    between atoms: C_4  and  C_5 
REMARK    2  A    between atoms: C_5  and  N_6 
REMARK    3  A    between atoms: C_5  and  C_36 
REMARK    4  A    between atoms: N_10  and  C_11 
REMARK    5  A    between atoms: C_13  and  C_14 
REMARK       I    between atoms: C_14  and  N_15 
REMARK    6  A    between atoms: N_15  and  C_16 
REMARK    7  A    between atoms: C_19  and  O_20 
REMARK    8  A    between atoms: O_20  and  C_21 
ROOT
HETATM    1  C   UNL     1      22.458  42.691  46.555  1.00  0.00     0.181 C 
HETATM    2  N   UNL     1      23.571  43.409  46.848  1.00  0.00    -0.249 NA
HETATM    3  C   UNL     1      23.471  44.758  47.411  1.00  0.00     0.164 C 
HETATM    4  C   UNL     1      22.080  45.329  47.359  1.00  0.00     0.134 C 
HETATM    5  C   UNL     1      21.052  44.241  47.474  1.00  0.00     0.247 C 
HETATM    6  O   UNL     1      20.012  44.451  48.093  1.00  0.00    -0.271 OA
HETATM    7  N   UNL     1      21.248  43.086  46.762  1.00  0.00    -0.185 NA
HETATM    8  H   UNL     1      24.185  42.851  47.451  1.00  0.00     0.131 HD
ENDROOT
BRANCH   1   9
HETATM    9  N   UNL     1      22.733  41.464  45.982  1.00  0.00    -0.353 N 
HETATM   10  C   UNL     1      22.926  40.228  46.757  1.00  0.00     0.153 C 
HETATM   11  C   UNL     1      24.429  39.993  46.991  1.00  0.00     0.256 C 
HETATM   12  N   UNL     1      25.147  39.924  45.642  1.00  0.00    -0.056 N 
HETATM   13  H   UNL     1      24.671  39.193  45.106  1.00  0.00     0.281 HD
HETATM   14  C   UNL     1      24.910  41.208  44.835  1.00  0.00     0.256 C 
HETATM   15  C   UNL     1      23.389  41.422  44.655  1.00  0.00     0.153 C 
BRANCH  12  16
HETATM   16  C   UNL     1      26.589  39.426  45.759  1.00  0.00     0.254 C 
BRANCH  16  17
HETATM   17  C   UNL     1      27.237  39.675  47.117  1.00  0.00    -0.023 A 
HETATM   18  C   UNL     1      27.653  38.572  47.891  1.00  0.00     0.009 A 
HETATM   19  C   UNL     1      28.227  38.750  49.150  1.00  0.00     0.001 A 
HETATM   20  C   UNL     1      28.400  40.032  49.662  1.00  0.00     0.000 A 
HETATM   21  C   UNL     1      28.007  41.136  48.911  1.00  0.00     0.001 A 
HETATM   22  C   UNL     1      27.433  40.961  47.650  1.00  0.00     0.009 A 
ENDBRANCH  16  17
BRANCH  16  23
HETATM   23  C   UNL     1      27.419  39.709  44.507  1.00  0.00    -0.023 A 
HETATM   24  C   UNL     1      27.167  39.118  43.258  1.00  0.00     0.009 A 
HETATM   25  C   UNL     1      27.946  39.435  42.140  1.00  0.00     0.001 A 
HETATM   26  C   UNL     1      28.990  40.348  42.246  1.00  0.00     0.000 A 
HETATM   27  C   UNL     1      29.254  40.955  43.467  1.00  0.00     0.001 A 
HETATM   28  C   UNL     1      28.475  40.645  44.585  1.00  0.00     0.009 A 
ENDBRANCH  16  23
ENDBRANCH  12  16
ENDBRANCH   1   9
BRANCH   3  29
HETATM   29  C   UNL     1      24.078  44.757  48.828  1.00  0.00     0.240 C 
HETATM   30  N   UNL     1      25.365  44.245  48.883  1.00  0.00    -0.326 N 
HETATM   31  H   UNL     1      25.805  43.970  48.013  1.00  0.00     0.169 HD
HETATM   32  O   UNL     1      23.372  45.072  49.786  1.00  0.00    -0.271 OA
BRANCH  30  33
HETATM   33  C   UNL     1      26.060  43.856  50.051  1.00  0.00     0.034 A 
HETATM   34  C   UNL     1      27.290  44.482  50.302  1.00  0.00     0.032 A 
HETATM   35  C   UNL     1      28.084  44.088  51.386  1.00  0.00     0.039 A 
HETATM   36  C   UNL     1      27.631  43.097  52.255  1.00  0.00     0.076 A 
HETATM   37  C   UNL     1      26.403  42.483  52.020  1.00  0.00     0.039 A 
HETATM   38  C   UNL     1      25.618  42.863  50.927  1.00  0.00     0.032 A 
BRANCH  36  39
HETATM   39  O   UNL     1      28.368  42.597  53.302  1.00  0.00    -0.311 OA
BRANCH  39  40
HETATM   40  C   UNL     1      28.928  43.470  54.206  1.00  0.00     0.076 A 
HETATM   41  C   UNL     1      28.261  44.583  54.724  1.00  0.00     0.037 A 
HETATM   42  C   UNL     1      28.887  45.386  55.677  1.00  0.00     0.003 A 
HETATM   43  C   UNL     1      30.166  45.064  56.133  1.00  0.00     0.000 A 
HETATM   44  C   UNL     1      30.819  43.934  55.641  1.00  0.00     0.003 A 
HETATM   45  C   UNL     1      30.197  43.135  54.681  1.00  0.00     0.037 A 
ENDBRANCH  39  40
ENDBRANCH  36  39
ENDBRANCH  30  33
ENDBRANCH   3  29
TORSDOF 8
ENDMDL
