MODEL 1
REMARK VINA RESULT:      -9.8      0.000      0.000
REMARK  8 active torsions:
REMARK  status: ('A' for Active; 'I' for Inactive)
REMARK    1  A    between atoms: C_3  and  N_4 
REMARK       I    between atoms: N_4  and  C_5 
REMARK    2  A    between atoms: C_5  and  C_6 
REMARK    3  A    between atoms: C_13  and  C_14 
REMARK       I    between atoms: C_14  and  N_15 
REMARK    4  A    between atoms: N_15  and  CA_16 
REMARK    5  A    between atoms: CA_16  and  C_17 
REMARK    6  A    between atoms: CA_16  and  C_27 
REMARK    7  A    between atoms: C_20  and  C_21 
REMARK    8  A    between atoms: C_27  and  O_28 
ROOT
HETATM    1  C   UNL     1      26.743  43.151  50.568  1.00  0.00     0.252 C 
HETATM    2  N   UNL     1      27.124  43.112  51.891  1.00  0.00    -0.346 N 
HETATM    3  O   UNL     1      27.503  42.867  49.649  1.00  0.00    -0.268 OA
HETATM    4  H   UNL     1      26.536  43.556  52.585  1.00  0.00     0.163 HD
ENDROOT
BRANCH   1   5
HETATM    5  C   UNL     1      25.344  43.548  50.277  1.00  0.00     0.034 A 
HETATM    6  C   UNL     1      25.092  44.869  49.884  1.00  0.00     0.047 A 
HETATM    7  C   UNL     1      23.797  45.300  49.544  1.00  0.00     0.042 A 
HETATM    8  C   UNL     1      22.760  44.351  49.501  1.00  0.00    -0.035 A 
HETATM    9  C   UNL     1      21.382  44.612  48.954  1.00  0.00     0.050 C 
HETATM   10  C   UNL     1      23.022  43.030  49.925  1.00  0.00     0.010 A 
HETATM   11  C   UNL     1      24.299  42.628  50.314  1.00  0.00     0.017 A 
BRANCH   7  12
HETATM   12  N   UNL     1      23.692  46.670  49.226  1.00  0.00    -0.321 N 
HETATM   13  C   UNL     1      24.141  47.768  49.939  1.00  0.00     0.279 C 
HETATM   14  O   UNL     1      24.779  47.730  50.983  1.00  0.00    -0.265 OA
HETATM   15  H   UNL     1      23.419  46.898  48.275  1.00  0.00     0.169 HD
BRANCH  13  16
HETATM   16  C   UNL     1      23.833  49.026  49.278  1.00  0.00     0.142 A 
HETATM   17  O   UNL     1      22.877  49.854  49.812  1.00  0.00    -0.317 OA
HETATM   18  C   UNL     1      22.792  50.940  49.000  1.00  0.00     0.143 A 
HETATM   19  C   UNL     1      23.674  50.832  47.952  1.00  0.00     0.027 A 
HETATM   20  C   UNL     1      24.344  49.598  48.128  1.00  0.00     0.045 A 
ENDBRANCH  13  16
ENDBRANCH   7  12
ENDBRANCH   1   5
BRANCH   2  21
HETATM   21  CA  UNL     1      28.482  42.734  52.285  1.00  0.00     0.141 C 
BRANCH  21  22
HETATM   22  C   UNL     1      28.900  43.489  53.536  1.00  0.00    -0.033 A 
HETATM   23  C   UNL     1      28.132  44.548  54.047  1.00  0.00     0.010 A 
HETATM   24  C   UNL     1      28.510  45.196  55.227  1.00  0.00     0.017 A 
HETATM   25  C   UNL     1      29.664  44.803  55.919  1.00  0.00     0.047 A 
HETATM   26  C   UNL     1      30.433  43.750  55.407  1.00  0.00     0.017 A 
HETATM   27  C   UNL     1      30.057  43.103  54.227  1.00  0.00     0.010 A 
BRANCH  25  28
HETATM   28  C   UNL     1      30.059  45.466  57.217  1.00  0.00     0.417 C 
HETATM   29  F   UNL     1      29.002  45.978  57.907  1.00  0.00    -0.166 F 
HETATM   30  F   UNL     1      30.681  44.607  58.070  1.00  0.00    -0.166 F 
HETATM   31  F   UNL     1      30.923  46.505  57.037  1.00  0.00    -0.166 F 
ENDBRANCH  25  28
ENDBRANCH  21  22
BRANCH  21  32
HETATM   32  C   UNL     1      28.627  41.203  52.490  1.00  0.00     0.194 C 
BRANCH  32  33
HETATM   33  O   UNL     1      27.566  40.653  53.271  1.00  0.00    -0.399 OA
HETATM   34  H   UNL     1      27.934  40.436  54.156  1.00  0.00     0.209 HD
ENDBRANCH  32  33
ENDBRANCH  21  32
ENDBRANCH   2  21
TORSDOF 8
ENDMDL
MODEL 2
REMARK VINA RESULT:      -9.8      2.315      3.705
REMARK  8 active torsions:
REMARK  status: ('A' for Active; 'I' for Inactive)
REMARK    1  A    between atoms: C_3  and  N_4 
REMARK       I    between atoms: N_4  and  C_5 
REMARK    2  A    between atoms: C_5  and  C_6 
REMARK    3  A    between atoms: C_13  and  C_14 
REMARK       I    between atoms: C_14  and  N_15 
REMARK    4  A    between atoms: N_15  and  CA_16 
REMARK    5  A    between atoms: CA_16  and  C_17 
REMARK    6  A    between atoms: CA_16  and  C_27 
REMARK    7  A    between atoms: C_20  and  C_21 
REMARK    8  A    between atoms: C_27  and  O_28 
ROOT
HETATM    1  C   UNL     1      26.646  45.802  50.302  1.00  0.00     0.252 C 
HETATM    2  N   UNL     1      26.444  45.517  51.634  1.00  0.00    -0.346 N 
HETATM    3  O   UNL     1      27.331  45.098  49.568  1.00  0.00    -0.268 OA
HETATM    4  H   UNL     1      26.057  46.233  52.236  1.00  0.00     0.163 HD
ENDROOT
BRANCH   1   5
HETATM    5  C   UNL     1      25.985  47.014  49.760  1.00  0.00     0.034 A 
HETATM    6  C   UNL     1      24.585  47.076  49.780  1.00  0.00     0.047 A 
HETATM    7  C   UNL     1      23.894  48.215  49.329  1.00  0.00     0.042 A 
HETATM    8  C   UNL     1      24.636  49.349  48.951  1.00  0.00    -0.035 A 
HETATM    9  C   UNL     1      24.044  50.700  48.654  1.00  0.00     0.050 C 
HETATM   10  C   UNL     1      26.045  49.263  48.910  1.00  0.00     0.010 A 
HETATM   11  C   UNL     1      26.718  48.108  49.307  1.00  0.00     0.017 A 
BRANCH   7  12
HETATM   12  N   UNL     1      22.488  48.105  49.356  1.00  0.00    -0.321 N 
HETATM   13  C   UNL     1      21.617  47.799  48.325  1.00  0.00     0.279 C 
HETATM   14  O   UNL     1      21.939  47.506  47.181  1.00  0.00    -0.265 OA
HETATM   15  H   UNL     1      22.051  48.063  50.272  1.00  0.00     0.169 HD
BRANCH  13  16
HETATM   16  C   UNL     1      20.228  47.790  48.753  1.00  0.00     0.142 A 
HETATM   17  O   UNL     1      19.851  48.531  49.845  1.00  0.00    -0.317 OA
HETATM   18  C   UNL     1      18.518  48.336  50.019  1.00  0.00     0.143 A 
HETATM   19  C   UNL     1      18.024  47.483  49.062  1.00  0.00     0.027 A 
HETATM   20  C   UNL     1      19.125  47.128  48.246  1.00  0.00     0.045 A 
ENDBRANCH  13  16
ENDBRANCH   7  12
ENDBRANCH   1   5
BRANCH   2  21
HETATM   21  CA  UNL     1      27.052  44.345  52.266  1.00  0.00     0.141 C 
BRANCH  21  22
HETATM   22  C   UNL     1      27.793  44.751  53.530  1.00  0.00    -0.033 A 
HETATM   23  C   UNL     1      27.408  45.874  54.280  1.00  0.00     0.010 A 
HETATM   24  C   UNL     1      28.073  46.199  55.466  1.00  0.00     0.017 A 
HETATM   25  C   UNL     1      29.138  45.412  55.926  1.00  0.00     0.047 A 
HETATM   26  C   UNL     1      29.525  44.294  55.176  1.00  0.00     0.017 A 
HETATM   27  C   UNL     1      28.862  43.969  53.990  1.00  0.00     0.010 A 
BRANCH  25  28
HETATM   28  C   UNL     1      29.836  45.728  57.228  1.00  0.00     0.417 C 
HETATM   29  F   UNL     1      30.376  44.633  57.832  1.00  0.00    -0.166 F 
HETATM   30  F   UNL     1      30.861  46.609  57.066  1.00  0.00    -0.166 F 
HETATM   31  F   UNL     1      29.003  46.288  58.150  1.00  0.00    -0.166 F 
ENDBRANCH  25  28
ENDBRANCH  21  22
BRANCH  21  32
HETATM   32  C   UNL     1      26.011  43.236  52.568  1.00  0.00     0.194 C 
BRANCH  32  33
HETATM   33  O   UNL     1      24.814  43.754  53.150  1.00  0.00    -0.399 OA
HETATM   34  H   UNL     1      24.261  44.109  52.419  1.00  0.00     0.209 HD
ENDBRANCH  32  33
ENDBRANCH  21  32
ENDBRANCH   2  21
TORSDOF 8
ENDMDL
MODEL 3
REMARK VINA RESULT:      -9.7      2.363      3.691
REMARK  8 active torsions:
REMARK  status: ('A' for Active; 'I' for Inactive)
REMARK    1  A    between atoms: C_3  and  N_4 
REMARK       I    between atoms: N_4  and  C_5 
REMARK    2  A    between atoms: C_5  and  C_6 
REMARK    3  A    between atoms: C_13  and  C_14 
REMARK       I    between atoms: C_14  and  N_15 
REMARK    4  A    between atoms: N_15  and  CA_16 
REMARK    5  A    between atoms: CA_16  and  C_17 
REMARK    6  A    between atoms: CA_16  and  C_27 
REMARK    7  A    between atoms: C_20  and  C_21 
REMARK    8  A    between atoms: C_27  and  O_28 
ROOT
HETATM    1  C   UNL     1      25.271  45.738  51.315  1.00  0.00     0.252 C 
HETATM    2  N   UNL     1      26.204  45.638  52.322  1.00  0.00    -0.346 N 
HETATM    3  O   UNL     1      24.352  44.937  51.178  1.00  0.00    -0.268 OA
HETATM    4  H   UNL     1      27.051  46.189  52.263  1.00  0.00     0.163 HD
ENDROOT
BRANCH   1   5
HETATM    5  C   UNL     1      25.404  46.880  50.378  1.00  0.00     0.034 A 
HETATM    6  C   UNL     1      24.243  47.556  49.979  1.00  0.00     0.047 A 
HETATM    7  C   UNL     1      24.300  48.678  49.133  1.00  0.00     0.042 A 
HETATM    8  C   UNL     1      25.561  49.186  48.771  1.00  0.00    -0.035 A 
HETATM    9  C   UNL     1      25.786  50.492  48.057  1.00  0.00     0.050 C 
HETATM   10  C   UNL     1      26.721  48.480  49.158  1.00  0.00     0.010 A 
HETATM   11  C   UNL     1      26.649  47.335  49.951  1.00  0.00     0.017 A 
BRANCH   7  12
HETATM   12  N   UNL     1      23.047  49.214  48.774  1.00  0.00    -0.321 N 
HETATM   13  C   UNL     1      22.327  50.232  49.375  1.00  0.00     0.279 C 
HETATM   14  O   UNL     1      22.701  50.902  50.330  1.00  0.00    -0.265 OA
HETATM   15  H   UNL     1      22.689  48.962  47.857  1.00  0.00     0.169 HD
BRANCH  13  16
HETATM   16  C   UNL     1      21.063  50.492  48.708  1.00  0.00     0.142 A 
HETATM   17  O   UNL     1      20.413  49.468  48.066  1.00  0.00    -0.317 OA
HETATM   18  C   UNL     1      19.277  49.987  47.534  1.00  0.00     0.143 A 
HETATM   19  C   UNL     1      19.178  51.328  47.818  1.00  0.00     0.027 A 
HETATM   20  C   UNL     1      20.329  51.656  48.572  1.00  0.00     0.045 A 
ENDBRANCH  13  16
ENDBRANCH   7  12
ENDBRANCH   1   5
BRANCH   2  21
HETATM   21  CA  UNL     1      26.162  44.548  53.299  1.00  0.00     0.141 C 
BRANCH  21  22
HETATM   22  C   UNL     1      27.477  44.466  54.056  1.00  0.00    -0.033 A 
HETATM   23  C   UNL     1      27.939  45.530  54.848  1.00  0.00     0.010 A 
HETATM   24  C   UNL     1      29.128  45.412  55.574  1.00  0.00     0.017 A 
HETATM   25  C   UNL     1      29.882  44.232  55.523  1.00  0.00     0.047 A 
HETATM   26  C   UNL     1      29.424  43.171  54.730  1.00  0.00     0.017 A 
HETATM   27  C   UNL     1      28.237  43.288  54.003  1.00  0.00     0.010 A 
BRANCH  25  28
HETATM   28  C   UNL     1      31.145  44.077  56.338  1.00  0.00     0.417 C 
HETATM   29  F   UNL     1      31.133  44.794  57.496  1.00  0.00    -0.166 F 
HETATM   30  F   UNL     1      31.372  42.785  56.700  1.00  0.00    -0.166 F 
HETATM   31  F   UNL     1      32.259  44.478  55.663  1.00  0.00    -0.166 F 
ENDBRANCH  25  28
ENDBRANCH  21  22
BRANCH  21  32
HETATM   32  C   UNL     1      24.968  44.687  54.279  1.00  0.00     0.194 C 
BRANCH  32  33
HETATM   33  O   UNL     1      24.804  43.535  55.107  1.00  0.00    -0.399 OA
HETATM   34  H   UNL     1      25.584  42.954  54.962  1.00  0.00     0.209 HD
ENDBRANCH  32  33
ENDBRANCH  21  32
ENDBRANCH   2  21
TORSDOF 8
ENDMDL
MODEL 4
REMARK VINA RESULT:      -9.5      3.348      6.422
REMARK  8 active torsions:
REMARK  status: ('A' for Active; 'I' for Inactive)
REMARK    1  A    between atoms: C_3  and  N_4 
REMARK       I    between atoms: N_4  and  C_5 
REMARK    2  A    between atoms: C_5  and  C_6 
REMARK    3  A    between atoms: C_13  and  C_14 
REMARK       I    between atoms: C_14  and  N_15 
REMARK    4  A    between atoms: N_15  and  CA_16 
REMARK    5  A    between atoms: CA_16  and  C_17 
REMARK    6  A    between atoms: CA_16  and  C_27 
REMARK    7  A    between atoms: C_20  and  C_21 
REMARK    8  A    between atoms: C_27  and  O_28 
ROOT
HETATM    1  C   UNL     1      25.397  44.632  53.250  1.00  0.00     0.252 C 
HETATM    2  N   UNL     1      26.447  45.517  53.345  1.00  0.00    -0.346 N 
HETATM    3  O   UNL     1      24.647  44.386  54.189  1.00  0.00    -0.268 OA
HETATM    4  H   UNL     1      27.153  45.521  52.619  1.00  0.00     0.163 HD
ENDROOT
BRANCH   1   5
HETATM    5  C   UNL     1      25.182  43.973  51.938  1.00  0.00     0.034 A 
HETATM    6  C   UNL     1      25.989  42.877  51.602  1.00  0.00     0.047 A 
HETATM    7  C   UNL     1      25.806  42.174  50.398  1.00  0.00     0.042 A 
HETATM    8  C   UNL     1      24.723  42.520  49.571  1.00  0.00    -0.035 A 
HETATM    9  C   UNL     1      24.273  41.731  48.371  1.00  0.00     0.050 C 
HETATM   10  C   UNL     1      23.935  43.643  49.909  1.00  0.00     0.010 A 
HETATM   11  C   UNL     1      24.160  44.368  51.079  1.00  0.00     0.017 A 
BRANCH   7  12
HETATM   12  N   UNL     1      26.732  41.133  50.173  1.00  0.00    -0.321 N 
HETATM   13  C   UNL     1      27.593  40.947  49.105  1.00  0.00     0.279 C 
HETATM   14  O   UNL     1      27.740  41.716  48.164  1.00  0.00    -0.265 OA
HETATM   15  H   UNL     1      26.941  40.530  50.963  1.00  0.00     0.169 HD
BRANCH  13  16
HETATM   16  C   UNL     1      28.391  39.739  49.236  1.00  0.00     0.142 A 
HETATM   17  O   UNL     1      28.765  39.050  48.109  1.00  0.00    -0.317 OA
HETATM   18  C   UNL     1      29.488  37.976  48.520  1.00  0.00     0.143 A 
HETATM   19  C   UNL     1      29.589  37.956  49.890  1.00  0.00     0.027 A 
HETATM   20  C   UNL     1      28.880  39.090  50.354  1.00  0.00     0.045 A 
ENDBRANCH  13  16
ENDBRANCH   7  12
ENDBRANCH   1   5
BRANCH   2  21
HETATM   21  CA  UNL     1      26.744  46.220  54.595  1.00  0.00     0.141 C 
BRANCH  21  22
HETATM   22  C   UNL     1      27.997  45.647  55.237  1.00  0.00    -0.033 A 
HETATM   23  C   UNL     1      28.546  46.205  56.403  1.00  0.00     0.010 A 
HETATM   24  C   UNL     1      29.671  45.631  57.004  1.00  0.00     0.017 A 
HETATM   25  C   UNL     1      30.273  44.492  56.452  1.00  0.00     0.047 A 
HETATM   26  C   UNL     1      29.728  43.938  55.286  1.00  0.00     0.017 A 
HETATM   27  C   UNL     1      28.605  44.511  54.684  1.00  0.00     0.010 A 
BRANCH  25  28
HETATM   28  C   UNL     1      31.461  43.838  57.116  1.00  0.00     0.417 C 
HETATM   29  F   UNL     1      32.579  43.828  56.337  1.00  0.00    -0.166 F 
HETATM   30  F   UNL     1      31.816  44.460  58.272  1.00  0.00    -0.166 F 
HETATM   31  F   UNL     1      31.229  42.536  57.447  1.00  0.00    -0.166 F 
ENDBRANCH  25  28
ENDBRANCH  21  22
BRANCH  21  32
HETATM   32  C   UNL     1      26.880  47.750  54.387  1.00  0.00     0.194 C 
BRANCH  32  33
HETATM   33  O   UNL     1      25.697  48.460  54.757  1.00  0.00    -0.399 OA
HETATM   34  H   UNL     1      25.283  47.973  55.503  1.00  0.00     0.209 HD
ENDBRANCH  32  33
ENDBRANCH  21  32
ENDBRANCH   2  21
TORSDOF 8
ENDMDL
MODEL 5
REMARK VINA RESULT:      -8.8      2.438      3.961
REMARK  8 active torsions:
REMARK  status: ('A' for Active; 'I' for Inactive)
REMARK    1  A    between atoms: C_3  and  N_4 
REMARK       I    between atoms: N_4  and  C_5 
REMARK    2  A    between atoms: C_5  and  C_6 
REMARK    3  A    between atoms: C_13  and  C_14 
REMARK       I    between atoms: C_14  and  N_15 
REMARK    4  A    between atoms: N_15  and  CA_16 
REMARK    5  A    between atoms: CA_16  and  C_17 
REMARK    6  A    between atoms: CA_16  and  C_27 
REMARK    7  A    between atoms: C_20  and  C_21 
REMARK    8  A    between atoms: C_27  and  O_28 
ROOT
HETATM    1  C   UNL     1      27.466  43.545  51.122  1.00  0.00     0.252 C 
HETATM    2  N   UNL     1      28.023  43.900  52.331  1.00  0.00    -0.346 N 
HETATM    3  O   UNL     1      27.770  42.517  50.526  1.00  0.00    -0.268 OA
HETATM    4  H   UNL     1      27.901  44.847  52.668  1.00  0.00     0.163 HD
ENDROOT
BRANCH   1   5
HETATM    5  C   UNL     1      26.450  44.461  50.549  1.00  0.00     0.034 A 
HETATM    6  C   UNL     1      25.658  44.001  49.488  1.00  0.00     0.047 A 
HETATM    7  C   UNL     1      24.642  44.797  48.931  1.00  0.00     0.042 A 
HETATM    8  C   UNL     1      24.354  46.038  49.526  1.00  0.00    -0.035 A 
HETATM    9  C   UNL     1      23.169  46.900  49.183  1.00  0.00     0.050 C 
HETATM   10  C   UNL     1      25.177  46.502  50.577  1.00  0.00     0.010 A 
HETATM   11  C   UNL     1      26.219  45.726  51.085  1.00  0.00     0.017 A 
BRANCH   7  12
HETATM   12  N   UNL     1      23.971  44.220  47.833  1.00  0.00    -0.321 N 
HETATM   13  C   UNL     1      22.793  43.494  47.814  1.00  0.00     0.279 C 
HETATM   14  O   UNL     1      22.077  43.269  48.782  1.00  0.00    -0.265 OA
HETATM   15  H   UNL     1      24.274  44.511  46.908  1.00  0.00     0.169 HD
BRANCH  13  16
HETATM   16  C   UNL     1      22.427  43.058  46.476  1.00  0.00     0.142 A 
HETATM   17  O   UNL     1      23.240  43.373  45.417  1.00  0.00    -0.317 OA
HETATM   18  C   UNL     1      22.663  42.852  44.303  1.00  0.00     0.143 A 
HETATM   19  C   UNL     1      21.493  42.207  44.620  1.00  0.00     0.027 A 
HETATM   20  C   UNL     1      21.337  42.340  46.020  1.00  0.00     0.045 A 
ENDBRANCH  13  16
ENDBRANCH   7  12
ENDBRANCH   1   5
BRANCH   2  21
HETATM   21  CA  UNL     1      29.035  43.066  52.981  1.00  0.00     0.141 C 
BRANCH  21  22
HETATM   22  C   UNL     1      29.495  43.708  54.280  1.00  0.00    -0.033 A 
HETATM   23  C   UNL     1      28.842  44.828  54.819  1.00  0.00     0.010 A 
HETATM   24  C   UNL     1      29.252  45.371  56.040  1.00  0.00     0.017 A 
HETATM   25  C   UNL     1      30.325  44.810  56.747  1.00  0.00     0.047 A 
HETATM   26  C   UNL     1      30.979  43.695  56.207  1.00  0.00     0.017 A 
HETATM   27  C   UNL     1      30.571  43.152  54.986  1.00  0.00     0.010 A 
BRANCH  25  28
HETATM   28  C   UNL     1      30.749  45.361  58.088  1.00  0.00     0.417 C 
HETATM   29  F   UNL     1      29.805  45.210  59.058  1.00  0.00    -0.166 F 
HETATM   30  F   UNL     1      31.873  44.759  58.563  1.00  0.00    -0.166 F 
HETATM   31  F   UNL     1      31.027  46.694  58.045  1.00  0.00    -0.166 F 
ENDBRANCH  25  28
ENDBRANCH  21  22
BRANCH  21  32
HETATM   32  C   UNL     1      28.531  41.620  53.228  1.00  0.00     0.194 C 
BRANCH  32  33
HETATM   33  O   UNL     1      29.136  40.672  52.348  1.00  0.00    -0.399 OA
HETATM   34  H   UNL     1      28.960  39.777  52.714  1.00  0.00     0.209 HD
ENDBRANCH  32  33
ENDBRANCH  21  32
ENDBRANCH   2  21
TORSDOF 8
ENDMDL
MODEL 6
REMARK VINA RESULT:      -8.8      5.976     10.586
REMARK  8 active torsions:
REMARK  status: ('A' for Active; 'I' for Inactive)
REMARK    1  A    between atoms: C_3  and  N_4 
REMARK       I    between atoms: N_4  and  C_5 
REMARK    2  A    between atoms: C_5  and  C_6 
REMARK    3  A    between atoms: C_13  and  C_14 
REMARK       I    between atoms: C_14  and  N_15 
REMARK    4  A    between atoms: N_15  and  CA_16 
REMARK    5  A    between atoms: CA_16  and  C_17 
REMARK    6  A    between atoms: CA_16  and  C_27 
REMARK    7  A    between atoms: C_20  and  C_21 
REMARK    8  A    between atoms: C_27  and  O_28 
ROOT
HETATM    1  C   UNL     1      23.600  48.514  49.389  1.00  0.00     0.252 C 
HETATM    2  N   UNL     1      22.299  48.963  49.433  1.00  0.00    -0.346 N 
HETATM    3  O   UNL     1      24.552  49.253  49.162  1.00  0.00    -0.268 OA
HETATM    4  H   UNL     1      21.546  48.288  49.409  1.00  0.00     0.163 HD
ENDROOT
BRANCH   1   5
HETATM    5  C   UNL     1      23.827  47.071  49.644  1.00  0.00     0.034 A 
HETATM    6  C   UNL     1      24.763  46.704  50.620  1.00  0.00     0.047 A 
HETATM    7  C   UNL     1      24.992  45.356  50.948  1.00  0.00     0.042 A 
HETATM    8  C   UNL     1      24.185  44.370  50.353  1.00  0.00    -0.035 A 
HETATM    9  C   UNL     1      24.163  42.920  50.757  1.00  0.00     0.050 C 
HETATM   10  C   UNL     1      23.265  44.751  49.351  1.00  0.00     0.010 A 
HETATM   11  C   UNL     1      23.087  46.087  48.994  1.00  0.00     0.017 A 
BRANCH   7  12
HETATM   12  N   UNL     1      26.004  45.142  51.907  1.00  0.00    -0.321 N 
HETATM   13  C   UNL     1      25.883  44.780  53.237  1.00  0.00     0.279 C 
HETATM   14  O   UNL     1      24.835  44.520  53.815  1.00  0.00    -0.265 OA
HETATM   15  H   UNL     1      26.954  45.062  51.557  1.00  0.00     0.169 HD
BRANCH  13  16
HETATM   16  C   UNL     1      27.170  44.665  53.904  1.00  0.00     0.142 A 
HETATM   17  O   UNL     1      27.642  45.716  54.649  1.00  0.00    -0.317 OA
HETATM   18  C   UNL     1      28.849  45.343  55.146  1.00  0.00     0.143 A 
HETATM   19  C   UNL     1      29.169  44.071  54.737  1.00  0.00     0.027 A 
HETATM   20  C   UNL     1      28.089  43.633  53.934  1.00  0.00     0.045 A 
ENDBRANCH  13  16
ENDBRANCH   7  12
ENDBRANCH   1   5
BRANCH   2  21
HETATM   21  CA  UNL     1      21.968  50.370  49.195  1.00  0.00     0.141 C 
BRANCH  21  22
HETATM   22  C   UNL     1      20.463  50.544  49.067  1.00  0.00    -0.033 A 
HETATM   23  C   UNL     1      19.888  51.793  48.786  1.00  0.00     0.010 A 
HETATM   24  C   UNL     1      18.505  51.920  48.625  1.00  0.00     0.017 A 
HETATM   25  C   UNL     1      17.667  50.802  48.744  1.00  0.00     0.047 A 
HETATM   26  C   UNL     1      18.240  49.555  49.029  1.00  0.00     0.017 A 
HETATM   27  C   UNL     1      19.622  49.429  49.192  1.00  0.00     0.010 A 
BRANCH  25  28
HETATM   28  C   UNL     1      16.176  50.918  48.529  1.00  0.00     0.417 C 
HETATM   29  F   UNL     1      15.539  49.714  48.500  1.00  0.00    -0.166 F 
HETATM   30  F   UNL     1      15.566  51.641  49.507  1.00  0.00    -0.166 F 
HETATM   31  F   UNL     1      15.860  51.533  47.355  1.00  0.00    -0.166 F 
ENDBRANCH  25  28
ENDBRANCH  21  22
BRANCH  21  32
HETATM   32  C   UNL     1      22.540  51.300  50.296  1.00  0.00     0.194 C 
BRANCH  32  33
HETATM   33  O   UNL     1      21.992  51.022  51.586  1.00  0.00    -0.399 OA
HETATM   34  H   UNL     1      21.033  51.234  51.550  1.00  0.00     0.209 HD
ENDBRANCH  32  33
ENDBRANCH  21  32
ENDBRANCH   2  21
TORSDOF 8
ENDMDL
MODEL 7
REMARK VINA RESULT:      -8.5      1.797      2.196
REMARK  8 active torsions:
REMARK  status: ('A' for Active; 'I' for Inactive)
REMARK    1  A    between atoms: C_3  and  N_4 
REMARK       I    between atoms: N_4  and  C_5 
REMARK    2  A    between atoms: C_5  and  C_6 
REMARK    3  A    between atoms: C_13  and  C_14 
REMARK       I    between atoms: C_14  and  N_15 
REMARK    4  A    between atoms: N_15  and  CA_16 
REMARK    5  A    between atoms: CA_16  and  C_17 
REMARK    6  A    between atoms: CA_16  and  C_27 
REMARK    7  A    between atoms: C_20  and  C_21 
REMARK    8  A    between atoms: C_27  and  O_28 
ROOT
HETATM    1  C   UNL     1      25.895  43.728  49.779  1.00  0.00     0.252 C 
HETATM    2  N   UNL     1      26.055  42.888  50.858  1.00  0.00    -0.346 N 
HETATM    3  O   UNL     1      26.834  44.304  49.239  1.00  0.00    -0.268 OA
HETATM    4  H   UNL     1      25.240  42.613  51.391  1.00  0.00     0.163 HD
ENDROOT
BRANCH   1   5
HETATM    5  C   UNL     1      24.517  43.914  49.263  1.00  0.00     0.034 A 
HETATM    6  C   UNL     1      23.903  45.163  49.432  1.00  0.00     0.047 A 
HETATM    7  C   UNL     1      22.618  45.424  48.924  1.00  0.00     0.042 A 
HETATM    8  C   UNL     1      21.989  44.439  48.142  1.00  0.00    -0.035 A 
HETATM    9  C   UNL     1      20.720  44.647  47.359  1.00  0.00     0.050 C 
HETATM   10  C   UNL     1      22.606  43.176  48.003  1.00  0.00     0.010 A 
HETATM   11  C   UNL     1      23.857  42.910  48.560  1.00  0.00     0.017 A 
BRANCH   7  12
HETATM   12  N   UNL     1      22.112  46.706  49.223  1.00  0.00    -0.321 N 
HETATM   13  C   UNL     1      22.285  47.895  48.537  1.00  0.00     0.279 C 
HETATM   14  O   UNL     1      22.889  48.028  47.479  1.00  0.00    -0.265 OA
HETATM   15  H   UNL     1      21.378  46.754  49.923  1.00  0.00     0.169 HD
BRANCH  13  16
HETATM   16  C   UNL     1      21.604  49.011  49.172  1.00  0.00     0.142 A 
HETATM   17  O   UNL     1      20.304  48.863  49.585  1.00  0.00    -0.317 OA
HETATM   18  C   UNL     1      19.922  50.046  50.131  1.00  0.00     0.143 A 
HETATM   19  C   UNL     1      20.949  50.957  50.081  1.00  0.00     0.027 A 
HETATM   20  C   UNL     1      22.033  50.293  49.460  1.00  0.00     0.045 A 
ENDBRANCH  13  16
ENDBRANCH   7  12
ENDBRANCH   1   5
BRANCH   2  21
HETATM   21  CA  UNL     1      27.374  42.637  51.443  1.00  0.00     0.141 C 
BRANCH  21  22
HETATM   22  C   UNL     1      27.653  43.626  52.562  1.00  0.00    -0.033 A 
HETATM   23  C   UNL     1      26.801  44.714  52.812  1.00  0.00     0.010 A 
HETATM   24  C   UNL     1      27.051  45.583  53.878  1.00  0.00     0.017 A 
HETATM   25  C   UNL     1      28.158  45.386  54.716  1.00  0.00     0.047 A 
HETATM   26  C   UNL     1      29.010  44.303  54.465  1.00  0.00     0.017 A 
HETATM   27  C   UNL     1      28.762  43.435  53.398  1.00  0.00     0.010 A 
BRANCH  25  28
HETATM   28  C   UNL     1      28.414  46.292  55.897  1.00  0.00     0.417 C 
HETATM   29  F   UNL     1      28.394  45.640  57.093  1.00  0.00    -0.166 F 
HETATM   30  F   UNL     1      29.626  46.906  55.826  1.00  0.00    -0.166 F 
HETATM   31  F   UNL     1      27.494  47.292  56.004  1.00  0.00    -0.166 F 
ENDBRANCH  25  28
ENDBRANCH  21  22
BRANCH  21  32
HETATM   32  C   UNL     1      27.523  41.177  51.946  1.00  0.00     0.194 C 
BRANCH  32  33
HETATM   33  O   UNL     1      26.382  40.374  51.640  1.00  0.00    -0.399 OA
HETATM   34  H   UNL     1      26.703  39.576  51.166  1.00  0.00     0.209 HD
ENDBRANCH  32  33
ENDBRANCH  21  32
ENDBRANCH   2  21
TORSDOF 8
ENDMDL
MODEL 8
REMARK VINA RESULT:      -8.5      6.480     11.116
REMARK  8 active torsions:
REMARK  status: ('A' for Active; 'I' for Inactive)
REMARK    1  A    between atoms: C_3  and  N_4 
REMARK       I    between atoms: N_4  and  C_5 
REMARK    2  A    between atoms: C_5  and  C_6 
REMARK    3  A    between atoms: C_13  and  C_14 
REMARK       I    between atoms: C_14  and  N_15 
REMARK    4  A    between atoms: N_15  and  CA_16 
REMARK    5  A    between atoms: CA_16  and  C_17 
REMARK    6  A    between atoms: CA_16  and  C_27 
REMARK    7  A    between atoms: C_20  and  C_21 
REMARK    8  A    between atoms: C_27  and  O_28 
ROOT
HETATM    1  C   UNL     1      21.615  47.713  48.498  1.00  0.00     0.252 C 
HETATM    2  N   UNL     1      20.679  48.684  48.223  1.00  0.00    -0.346 N 
HETATM    3  O   UNL     1      21.347  46.516  48.518  1.00  0.00    -0.268 OA
HETATM    4  H   UNL     1      20.899  49.650  48.429  1.00  0.00     0.163 HD
ENDROOT
BRANCH   1   5
HETATM    5  C   UNL     1      23.002  48.165  48.766  1.00  0.00     0.034 A 
HETATM    6  C   UNL     1      23.811  47.383  49.601  1.00  0.00     0.047 A 
HETATM    7  C   UNL     1      25.151  47.725  49.857  1.00  0.00     0.042 A 
HETATM    8  C   UNL     1      25.710  48.819  49.173  1.00  0.00    -0.035 A 
HETATM    9  C   UNL     1      27.172  49.176  49.177  1.00  0.00     0.050 C 
HETATM   10  C   UNL     1      24.877  49.615  48.355  1.00  0.00     0.010 A 
HETATM   11  C   UNL     1      23.534  49.297  48.153  1.00  0.00     0.017 A 
BRANCH   7  12
HETATM   12  N   UNL     1      25.817  46.874  50.763  1.00  0.00    -0.321 N 
HETATM   13  C   UNL     1      25.855  46.929  52.145  1.00  0.00     0.279 C 
HETATM   14  O   UNL     1      25.246  47.728  52.845  1.00  0.00    -0.265 OA
HETATM   15  H   UNL     1      26.173  45.999  50.389  1.00  0.00     0.169 HD
BRANCH  13  16
HETATM   16  C   UNL     1      26.665  45.869  52.724  1.00  0.00     0.142 A 
HETATM   17  O   UNL     1      27.013  44.787  51.954  1.00  0.00    -0.317 OA
HETATM   18  C   UNL     1      27.755  43.962  52.738  1.00  0.00     0.143 A 
HETATM   19  C   UNL     1      27.894  44.489  54.000  1.00  0.00     0.027 A 
HETATM   20  C   UNL     1      27.190  45.717  53.993  1.00  0.00     0.045 A 
ENDBRANCH  13  16
ENDBRANCH   7  12
ENDBRANCH   1   5
BRANCH   2  21
HETATM   21  CA  UNL     1      19.282  48.343  47.946  1.00  0.00     0.141 C 
BRANCH  21  22
HETATM   22  C   UNL     1      18.367  49.486  48.354  1.00  0.00    -0.033 A 
HETATM   23  C   UNL     1      17.032  49.548  47.926  1.00  0.00     0.010 A 
HETATM   24  C   UNL     1      16.195  50.584  48.354  1.00  0.00     0.017 A 
HETATM   25  C   UNL     1      16.676  51.581  49.215  1.00  0.00     0.047 A 
HETATM   26  C   UNL     1      18.010  51.521  49.638  1.00  0.00     0.017 A 
HETATM   27  C   UNL     1      18.847  50.488  49.210  1.00  0.00     0.010 A 
BRANCH  25  28
HETATM   28  C   UNL     1      15.771  52.680  49.718  1.00  0.00     0.417 C 
HETATM   29  F   UNL     1      15.309  53.497  48.731  1.00  0.00    -0.166 F 
HETATM   30  F   UNL     1      14.667  52.194  50.348  1.00  0.00    -0.166 F 
HETATM   31  F   UNL     1      16.386  53.498  50.619  1.00  0.00    -0.166 F 
ENDBRANCH  25  28
ENDBRANCH  21  22
BRANCH  21  32
HETATM   32  C   UNL     1      19.058  47.959  46.460  1.00  0.00     0.194 C 
BRANCH  32  33
HETATM   33  O   UNL     1      19.299  46.574  46.210  1.00  0.00    -0.399 OA
HETATM   34  H   UNL     1      20.255  46.408  46.370  1.00  0.00     0.209 HD
ENDBRANCH  32  33
ENDBRANCH  21  32
ENDBRANCH   2  21
TORSDOF 8
ENDMDL
MODEL 9
REMARK VINA RESULT:      -8.5      4.041      5.444
REMARK  8 active torsions:
REMARK  status: ('A' for Active; 'I' for Inactive)
REMARK    1  A    between atoms: C_3  and  N_4 
REMARK       I    between atoms: N_4  and  C_5 
REMARK    2  A    between atoms: C_5  and  C_6 
REMARK    3  A    between atoms: C_13  and  C_14 
REMARK       I    between atoms: C_14  and  N_15 
REMARK    4  A    between atoms: N_15  and  CA_16 
REMARK    5  A    between atoms: CA_16  and  C_17 
REMARK    6  A    between atoms: CA_16  and  C_27 
REMARK    7  A    between atoms: C_20  and  C_21 
REMARK    8  A    between atoms: C_27  and  O_28 
ROOT
HETATM    1  C   UNL     1      25.491  45.105  51.606  1.00  0.00     0.252 C 
HETATM    2  N   UNL     1      26.659  44.444  51.914  1.00  0.00    -0.346 N 
HETATM    3  O   UNL     1      24.402  44.781  52.068  1.00  0.00    -0.268 OA
HETATM    4  H   UNL     1      27.481  44.611  51.348  1.00  0.00     0.163 HD
ENDROOT
BRANCH   1   5
HETATM    5  C   UNL     1      25.589  46.261  50.682  1.00  0.00     0.034 A 
HETATM    6  C   UNL     1      24.478  47.104  50.546  1.00  0.00     0.047 A 
HETATM    7  C   UNL     1      24.519  48.246  49.727  1.00  0.00     0.042 A 
HETATM    8  C   UNL     1      25.738  48.597  49.118  1.00  0.00    -0.035 A 
HETATM    9  C   UNL     1      25.993  49.892  48.396  1.00  0.00     0.050 C 
HETATM   10  C   UNL     1      26.842  47.725  49.242  1.00  0.00     0.010 A 
HETATM   11  C   UNL     1      26.772  46.564  50.013  1.00  0.00     0.017 A 
BRANCH   7  12
HETATM   12  N   UNL     1      23.306  48.962  49.646  1.00  0.00    -0.321 N 
HETATM   13  C   UNL     1      22.441  49.093  48.574  1.00  0.00     0.279 C 
HETATM   14  O   UNL     1      22.561  48.542  47.487  1.00  0.00    -0.265 OA
HETATM   15  H   UNL     1      22.905  49.280  50.523  1.00  0.00     0.169 HD
BRANCH  13  16
HETATM   16  C   UNL     1      21.291  49.927  48.885  1.00  0.00     0.142 A 
HETATM   17  O   UNL     1      21.154  51.146  48.270  1.00  0.00    -0.317 OA
HETATM   18  C   UNL     1      20.009  51.705  48.743  1.00  0.00     0.143 A 
HETATM   19  C   UNL     1      19.403  50.871  49.652  1.00  0.00     0.027 A 
HETATM   20  C   UNL     1      20.229  49.725  49.746  1.00  0.00     0.045 A 
ENDBRANCH  13  16
ENDBRANCH   7  12
ENDBRANCH   1   5
BRANCH   2  21
HETATM   21  CA  UNL     1      26.670  43.290  52.815  1.00  0.00     0.141 C 
BRANCH  21  22
HETATM   22  C   UNL     1      27.404  42.124  52.173  1.00  0.00    -0.033 A 
HETATM   23  C   UNL     1      28.251  41.288  52.917  1.00  0.00     0.010 A 
HETATM   24  C   UNL     1      28.877  40.192  52.315  1.00  0.00     0.017 A 
HETATM   25  C   UNL     1      28.673  39.911  50.957  1.00  0.00     0.047 A 
HETATM   26  C   UNL     1      27.831  40.748  50.213  1.00  0.00     0.017 A 
HETATM   27  C   UNL     1      27.206  41.844  50.813  1.00  0.00     0.010 A 
BRANCH  25  28
HETATM   28  C   UNL     1      29.308  38.705  50.306  1.00  0.00     0.417 C 
HETATM   29  F   UNL     1      28.502  37.607  50.296  1.00  0.00    -0.166 F 
HETATM   30  F   UNL     1      29.644  38.934  49.007  1.00  0.00    -0.166 F 
HETATM   31  F   UNL     1      30.458  38.316  50.926  1.00  0.00    -0.166 F 
ENDBRANCH  25  28
ENDBRANCH  21  22
BRANCH  21  32
HETATM   32  C   UNL     1      27.283  43.634  54.198  1.00  0.00     0.194 C 
BRANCH  32  33
HETATM   33  O   UNL     1      28.216  44.714  54.129  1.00  0.00    -0.399 OA
HETATM   34  H   UNL     1      28.843  44.514  53.399  1.00  0.00     0.209 HD
ENDBRANCH  32  33
ENDBRANCH  21  32
ENDBRANCH   2  21
TORSDOF 8
ENDMDL
MODEL 10
REMARK VINA RESULT:      -8.2      2.681      4.213
REMARK  8 active torsions:
REMARK  status: ('A' for Active; 'I' for Inactive)
REMARK    1  A    between atoms: C_3  and  N_4 
REMARK       I    between atoms: N_4  and  C_5 
REMARK    2  A    between atoms: C_5  and  C_6 
REMARK    3  A    between atoms: C_13  and  C_14 
REMARK       I    between atoms: C_14  and  N_15 
REMARK    4  A    between atoms: N_15  and  CA_16 
REMARK    5  A    between atoms: CA_16  and  C_17 
REMARK    6  A    between atoms: CA_16  and  C_27 
REMARK    7  A    between atoms: C_20  and  C_21 
REMARK    8  A    between atoms: C_27  and  O_28 
ROOT
HETATM    1  C   UNL     1      26.664  43.610  49.843  1.00  0.00     0.252 C 
HETATM    2  N   UNL     1      27.005  43.547  51.175  1.00  0.00    -0.346 N 
HETATM    3  O   UNL     1      27.219  42.935  48.981  1.00  0.00    -0.268 OA
HETATM    4  H   UNL     1      26.672  44.269  51.802  1.00  0.00     0.163 HD
ENDROOT
BRANCH   1   5
HETATM    5  C   UNL     1      25.567  44.534  49.466  1.00  0.00     0.034 A 
HETATM    6  C   UNL     1      24.509  44.036  48.694  1.00  0.00     0.047 A 
HETATM    7  C   UNL     1      23.412  44.843  48.345  1.00  0.00     0.042 A 
HETATM    8  C   UNL     1      23.335  46.144  48.873  1.00  0.00    -0.035 A 
HETATM    9  C   UNL     1      22.133  47.043  48.767  1.00  0.00     0.050 C 
HETATM   10  C   UNL     1      24.421  46.642  49.627  1.00  0.00     0.010 A 
HETATM   11  C   UNL     1      25.530  45.850  49.921  1.00  0.00     0.017 A 
BRANCH   7  12
HETATM   12  N   UNL     1      22.456  44.218  47.517  1.00  0.00    -0.321 N 
HETATM   13  C   UNL     1      22.086  44.531  46.220  1.00  0.00     0.279 C 
HETATM   14  O   UNL     1      22.587  45.407  45.527  1.00  0.00    -0.265 OA
HETATM   15  H   UNL     1      22.111  43.312  47.821  1.00  0.00     0.169 HD
BRANCH  13  16
HETATM   16  C   UNL     1      21.051  43.649  45.707  1.00  0.00     0.142 A 
HETATM   17  O   UNL     1      19.872  44.184  45.250  1.00  0.00    -0.317 OA
HETATM   18  C   UNL     1      19.097  43.148  44.839  1.00  0.00     0.143 A 
HETATM   19  C   UNL     1      19.749  41.952  45.021  1.00  0.00     0.027 A 
HETATM   20  C   UNL     1      21.008  42.273  45.582  1.00  0.00     0.045 A 
ENDBRANCH  13  16
ENDBRANCH   7  12
ENDBRANCH   1   5
BRANCH   2  21
HETATM   21  CA  UNL     1      28.075  42.667  51.650  1.00  0.00     0.141 C 
BRANCH  21  22
HETATM   22  C   UNL     1      28.681  43.216  52.931  1.00  0.00    -0.033 A 
HETATM   23  C   UNL     1      29.932  42.782  53.399  1.00  0.00     0.010 A 
HETATM   24  C   UNL     1      30.492  43.337  54.553  1.00  0.00     0.017 A 
HETATM   25  C   UNL     1      29.814  44.335  55.267  1.00  0.00     0.047 A 
HETATM   26  C   UNL     1      28.564  44.766  54.803  1.00  0.00     0.017 A 
HETATM   27  C   UNL     1      28.002  44.211  53.650  1.00  0.00     0.010 A 
BRANCH  25  28
HETATM   28  C   UNL     1      30.427  44.974  56.490  1.00  0.00     0.417 C 
HETATM   29  F   UNL     1      31.339  44.178  57.116  1.00  0.00    -0.166 F 
HETATM   30  F   UNL     1      31.079  46.132  56.199  1.00  0.00    -0.166 F 
HETATM   31  F   UNL     1      29.502  45.294  57.438  1.00  0.00    -0.166 F 
ENDBRANCH  25  28
ENDBRANCH  21  22
BRANCH  21  32
HETATM   32  C   UNL     1      27.586  41.209  51.852  1.00  0.00     0.194 C 
BRANCH  32  33
HETATM   33  O   UNL     1      27.230  40.934  53.207  1.00  0.00    -0.399 OA
HETATM   34  H   UNL     1      27.855  41.429  53.782  1.00  0.00     0.209 HD
ENDBRANCH  32  33
ENDBRANCH  21  32
ENDBRANCH   2  21
TORSDOF 8
ENDMDL
