MODEL 1
REMARK VINA RESULT:      -9.9      0.000      0.000
REMARK  9 active torsions:
REMARK  status: ('A' for Active; 'I' for Inactive)
REMARK    1  A    between atoms: C_3  and  N_4 
REMARK    2  A    between atoms: N_4  and  C_5 
REMARK    3  A    between atoms: C_7  and  C_8 
REMARK    4  A    between atoms: C_19  and  N_20 
REMARK       I    between atoms: N_20  and  C_21 
REMARK    5  A    between atoms: C_21  and  C_22 
REMARK    6  A    between atoms: C_24  and  N_25 
REMARK       I    between atoms: N_25  and  C_26 
REMARK    7  A    between atoms: C_26  and  C_27 
REMARK    8  A    between atoms: C_28  and  C_29 
REMARK    9  A    between atoms: C_29  and  N_30 
ROOT
HETATM    1  C   UNL     1      17.618  47.957  49.210  1.00  0.00     0.050 C 
HETATM    2  C   UNL     1      18.523  49.158  49.126  1.00  0.00    -0.033 A 
HETATM    3  C   UNL     1      18.030  50.431  48.771  1.00  0.00     0.055 A 
HETATM    4  C   UNL     1      18.945  51.490  48.711  1.00  0.00     0.033 A 
HETATM    5  C   UNL     1      20.311  51.308  48.958  1.00  0.00     0.032 A 
HETATM    6  C   UNL     1      20.808  50.045  49.251  1.00  0.00     0.035 A 
HETATM    7  C   UNL     1      19.904  48.979  49.349  1.00  0.00     0.038 A 
ENDROOT
BRANCH   6   8
HETATM    8  N   UNL     1      22.181  49.754  49.412  1.00  0.00    -0.323 N 
HETATM    9  C   UNL     1      23.152  49.741  48.424  1.00  0.00     0.256 C 
HETATM   10  O   UNL     1      23.007  50.064  47.251  1.00  0.00    -0.267 OA
HETATM   11  H   UNL     1      22.442  49.438  50.334  1.00  0.00     0.169 HD
BRANCH   9  12
HETATM   12  C   UNL     1      24.494  49.235  48.841  1.00  0.00     0.034 A 
HETATM   13  C   UNL     1      24.653  48.180  49.752  1.00  0.00     0.046 A 
HETATM   14  C   UNL     1      25.930  47.719  50.088  1.00  0.00     0.035 A 
HETATM   15  C   UNL     1      27.050  48.350  49.532  1.00  0.00     0.029 A 
HETATM   16  C   UNL     1      26.901  49.416  48.645  1.00  0.00     0.003 A 
HETATM   17  C   UNL     1      25.626  49.857  48.300  1.00  0.00     0.017 A 
BRANCH  14  18
HETATM   18  N   UNL     1      26.169  46.645  50.975  1.00  0.00    -0.324 N 
HETATM   19  C   UNL     1      26.026  46.660  52.343  1.00  0.00     0.245 C 
HETATM   20  O   UNL     1      25.635  47.582  53.048  1.00  0.00    -0.268 OA
HETATM   21  H   UNL     1      26.464  45.784  50.532  1.00  0.00     0.169 HD
BRANCH  19  22
HETATM   22  C   UNL     1      26.387  45.355  52.971  1.00  0.00     0.072 C 
HETATM   23  C   UNL     1      26.974  44.417  52.208  1.00  0.00     0.006 C 
BRANCH  23  24
HETATM   24  C   UNL     1      27.443  43.086  52.684  1.00  0.00     0.261 C 
BRANCH  24  25
HETATM   25  N   UNL     1      26.783  41.948  51.945  1.00  0.00    -0.076 N 
HETATM   26  H   UNL     1      26.221  41.433  52.636  1.00  0.00     0.279 HD
HETATM   27  C   UNL     1      25.833  42.408  50.873  1.00  0.00     0.269 C 
HETATM   28  C   UNL     1      27.793  40.976  51.405  1.00  0.00     0.269 C 
ENDBRANCH  24  25
ENDBRANCH  23  24
ENDBRANCH  19  22
ENDBRANCH  14  18
ENDBRANCH   9  12
ENDBRANCH   6   8
BRANCH   3  29
HETATM   29  N   UNL     1      16.689  50.598  48.396  1.00  0.00    -0.188 N 
HETATM   30  H   UNL     1      16.133  49.776  48.226  1.00  0.00     0.184 HD
BRANCH  29  31
HETATM   31  C   UNL     1      15.950  51.735  48.073  1.00  0.00     0.727 A 
HETATM   32  N   UNL     1      15.681  52.563  49.097  1.00  0.00    -0.062 NA
HETATM   33  C   UNL     1      14.934  53.667  48.853  1.00  0.00     0.089 A 
HETATM   34  C   UNL     1      14.432  53.934  47.594  1.00  0.00     0.053 A 
HETATM   35  C   UNL     1      14.747  53.031  46.614  1.00  0.00     0.139 A 
HETATM   36  N   UNL     1      15.497  51.941  46.830  1.00  0.00    -0.075 NA
BRANCH  33  37
HETATM   37  C   UNL     1      14.684  54.543  50.011  1.00  0.00     0.011 A 
HETATM   38  C   UNL     1      13.887  54.125  51.080  1.00  0.00     0.130 A 
HETATM   39  N   UNL     1      13.590  54.871  52.175  1.00  0.00    -0.272 NA
HETATM   40  C   UNL     1      14.122  56.108  52.226  1.00  0.00     0.116 A 
HETATM   41  C   UNL     1      14.936  56.629  51.237  1.00  0.00     0.020 A 
HETATM   42  C   UNL     1      15.218  55.836  50.124  1.00  0.00     0.017 A 
ENDBRANCH  33  37
ENDBRANCH  29  31
ENDBRANCH   3  29
TORSDOF 9
ENDMDL
MODEL 2
REMARK VINA RESULT:      -9.8      3.596     12.889
REMARK  9 active torsions:
REMARK  status: ('A' for Active; 'I' for Inactive)
REMARK    1  A    between atoms: C_3  and  N_4 
REMARK    2  A    between atoms: N_4  and  C_5 
REMARK    3  A    between atoms: C_7  and  C_8 
REMARK    4  A    between atoms: C_19  and  N_20 
REMARK       I    between atoms: N_20  and  C_21 
REMARK    5  A    between atoms: C_21  and  C_22 
REMARK    6  A    between atoms: C_24  and  N_25 
REMARK       I    between atoms: N_25  and  C_26 
REMARK    7  A    between atoms: C_26  and  C_27 
REMARK    8  A    between atoms: C_28  and  C_29 
REMARK    9  A    between atoms: C_29  and  N_30 
ROOT
HETATM    1  C   UNL     1      24.582  43.171  48.823  1.00  0.00     0.050 C 
HETATM    2  C   UNL     1      24.839  44.599  49.225  1.00  0.00    -0.033 A 
HETATM    3  C   UNL     1      26.096  45.015  49.712  1.00  0.00     0.055 A 
HETATM    4  C   UNL     1      26.243  46.362  50.070  1.00  0.00     0.033 A 
HETATM    5  C   UNL     1      25.184  47.273  49.986  1.00  0.00     0.032 A 
HETATM    6  C   UNL     1      23.930  46.854  49.562  1.00  0.00     0.035 A 
HETATM    7  C   UNL     1      23.771  45.519  49.167  1.00  0.00     0.038 A 
ENDROOT
BRANCH   6   8
HETATM    8  N   UNL     1      22.784  47.680  49.546  1.00  0.00    -0.323 N 
HETATM    9  C   UNL     1      22.468  48.650  48.609  1.00  0.00     0.256 C 
HETATM   10  O   UNL     1      23.084  48.901  47.580  1.00  0.00    -0.267 OA
HETATM   11  H   UNL     1      22.193  47.602  50.361  1.00  0.00     0.169 HD
BRANCH   9  12
HETATM   12  C   UNL     1      21.277  49.493  48.925  1.00  0.00     0.034 A 
HETATM   13  C   UNL     1      20.006  49.234  48.392  1.00  0.00     0.046 A 
HETATM   14  C   UNL     1      18.913  50.033  48.743  1.00  0.00     0.035 A 
HETATM   15  C   UNL     1      19.111  51.119  49.605  1.00  0.00     0.029 A 
HETATM   16  C   UNL     1      20.377  51.399  50.119  1.00  0.00     0.003 A 
HETATM   17  C   UNL     1      21.457  50.588  49.781  1.00  0.00     0.017 A 
BRANCH  14  18
HETATM   18  N   UNL     1      17.598  49.817  48.270  1.00  0.00    -0.324 N 
HETATM   19  C   UNL     1      16.809  48.716  48.509  1.00  0.00     0.245 C 
HETATM   20  O   UNL     1      17.071  47.737  49.197  1.00  0.00    -0.268 OA
HETATM   21  H   UNL     1      17.218  50.569  47.710  1.00  0.00     0.169 HD
BRANCH  19  22
HETATM   22  C   UNL     1      15.480  48.807  47.834  1.00  0.00     0.072 C 
HETATM   23  C   UNL     1      15.323  48.201  46.646  1.00  0.00     0.006 C 
BRANCH  23  24
HETATM   24  C   UNL     1      14.055  48.150  45.864  1.00  0.00     0.261 C 
BRANCH  24  25
HETATM   25  N   UNL     1      13.989  46.945  44.959  1.00  0.00    -0.076 N 
HETATM   26  H   UNL     1      13.806  46.132  45.561  1.00  0.00     0.279 HD
HETATM   27  C   UNL     1      12.862  47.010  43.965  1.00  0.00     0.269 C 
HETATM   28  C   UNL     1      15.305  46.687  44.281  1.00  0.00     0.269 C 
ENDBRANCH  24  25
ENDBRANCH  23  24
ENDBRANCH  19  22
ENDBRANCH  14  18
ENDBRANCH   9  12
ENDBRANCH   6   8
BRANCH   3  29
HETATM   29  N   UNL     1      27.124  44.085  49.922  1.00  0.00    -0.188 N 
HETATM   30  H   UNL     1      27.732  43.862  49.151  1.00  0.00     0.184 HD
BRANCH  29  31
HETATM   31  C   UNL     1      27.427  43.264  51.007  1.00  0.00     0.727 A 
HETATM   32  N   UNL     1      28.061  43.863  52.029  1.00  0.00    -0.062 NA
HETATM   33  C   UNL     1      28.416  43.109  53.097  1.00  0.00     0.089 A 
HETATM   34  C   UNL     1      28.162  41.752  53.139  1.00  0.00     0.053 A 
HETATM   35  C   UNL     1      27.521  41.224  52.050  1.00  0.00     0.139 A 
HETATM   36  N   UNL     1      27.147  41.955  50.989  1.00  0.00    -0.075 NA
BRANCH  33  37
HETATM   37  C   UNL     1      29.097  43.824  54.191  1.00  0.00     0.011 A 
HETATM   38  C   UNL     1      28.637  45.062  54.648  1.00  0.00     0.130 A 
HETATM   39  N   UNL     1      29.212  45.796  55.635  1.00  0.00    -0.272 NA
HETATM   40  C   UNL     1      30.308  45.272  56.218  1.00  0.00     0.116 A 
HETATM   41  C   UNL     1      30.851  44.051  55.861  1.00  0.00     0.020 A 
HETATM   42  C   UNL     1      30.236  43.325  54.841  1.00  0.00     0.017 A 
ENDBRANCH  33  37
ENDBRANCH  29  31
ENDBRANCH   3  29
TORSDOF 9
ENDMDL
MODEL 3
REMARK VINA RESULT:      -9.7      2.885     13.614
REMARK  9 active torsions:
REMARK  status: ('A' for Active; 'I' for Inactive)
REMARK    1  A    between atoms: C_3  and  N_4 
REMARK    2  A    between atoms: N_4  and  C_5 
REMARK    3  A    between atoms: C_7  and  C_8 
REMARK    4  A    between atoms: C_19  and  N_20 
REMARK       I    between atoms: N_20  and  C_21 
REMARK    5  A    between atoms: C_21  and  C_22 
REMARK    6  A    between atoms: C_24  and  N_25 
REMARK       I    between atoms: N_25  and  C_26 
REMARK    7  A    between atoms: C_26  and  C_27 
REMARK    8  A    between atoms: C_28  and  C_29 
REMARK    9  A    between atoms: C_29  and  N_30 
ROOT
HETATM    1  C   UNL     1      26.288  46.713  52.376  1.00  0.00     0.050 C 
HETATM    2  C   UNL     1      25.707  45.998  51.185  1.00  0.00    -0.033 A 
HETATM    3  C   UNL     1      26.387  44.933  50.558  1.00  0.00     0.055 A 
HETATM    4  C   UNL     1      25.775  44.331  49.451  1.00  0.00     0.033 A 
HETATM    5  C   UNL     1      24.546  44.775  48.947  1.00  0.00     0.032 A 
HETATM    6  C   UNL     1      23.902  45.860  49.527  1.00  0.00     0.035 A 
HETATM    7  C   UNL     1      24.481  46.454  50.655  1.00  0.00     0.038 A 
ENDROOT
BRANCH   6   8
HETATM    8  N   UNL     1      22.716  46.437  49.021  1.00  0.00    -0.323 N 
HETATM    9  C   UNL     1      22.583  47.675  48.415  1.00  0.00     0.256 C 
HETATM   10  O   UNL     1      23.488  48.451  48.131  1.00  0.00    -0.267 OA
HETATM   11  H   UNL     1      21.874  45.914  49.214  1.00  0.00     0.169 HD
BRANCH   9  12
HETATM   12  C   UNL     1      21.184  48.109  48.125  1.00  0.00     0.034 A 
HETATM   13  C   UNL     1      20.513  49.064  48.904  1.00  0.00     0.046 A 
HETATM   14  C   UNL     1      19.214  49.462  48.575  1.00  0.00     0.035 A 
HETATM   15  C   UNL     1      18.575  48.866  47.479  1.00  0.00     0.029 A 
HETATM   16  C   UNL     1      19.225  47.897  46.716  1.00  0.00     0.003 A 
HETATM   17  C   UNL     1      20.527  47.519  47.038  1.00  0.00     0.017 A 
BRANCH  14  18
HETATM   18  N   UNL     1      18.486  50.438  49.293  1.00  0.00    -0.324 N 
HETATM   19  C   UNL     1      18.515  51.799  49.091  1.00  0.00     0.245 C 
HETATM   20  O   UNL     1      19.139  52.420  48.240  1.00  0.00    -0.268 OA
HETATM   21  H   UNL     1      17.881  50.072  50.016  1.00  0.00     0.169 HD
BRANCH  19  22
HETATM   22  C   UNL     1      17.638  52.538  50.047  1.00  0.00     0.072 C 
HETATM   23  C   UNL     1      16.440  52.968  49.616  1.00  0.00     0.006 C 
BRANCH  23  24
HETATM   24  C   UNL     1      15.426  53.673  50.448  1.00  0.00     0.261 C 
BRANCH  24  25
HETATM   25  N   UNL     1      14.303  54.245  49.619  1.00  0.00    -0.076 N 
HETATM   26  H   UNL     1      14.333  53.767  48.709  1.00  0.00     0.279 HD
HETATM   27  C   UNL     1      12.941  53.982  50.201  1.00  0.00     0.269 C 
HETATM   28  C   UNL     1      14.508  55.708  49.340  1.00  0.00     0.269 C 
ENDBRANCH  24  25
ENDBRANCH  23  24
ENDBRANCH  19  22
ENDBRANCH  14  18
ENDBRANCH   9  12
ENDBRANCH   6   8
BRANCH   3  29
HETATM   29  N   UNL     1      27.675  44.566  50.973  1.00  0.00    -0.188 N 
HETATM   30  H   UNL     1      28.465  44.971  50.498  1.00  0.00     0.184 HD
BRANCH  29  31
HETATM   31  C   UNL     1      28.119  43.608  51.884  1.00  0.00     0.727 A 
HETATM   32  N   UNL     1      28.698  44.090  52.997  1.00  0.00    -0.062 NA
HETATM   33  C   UNL     1      29.183  43.207  53.903  1.00  0.00     0.089 A 
HETATM   34  C   UNL     1      29.116  41.844  53.690  1.00  0.00     0.053 A 
HETATM   35  C   UNL     1      28.519  41.444  52.525  1.00  0.00     0.139 A 
HETATM   36  N   UNL     1      28.018  42.299  51.622  1.00  0.00    -0.075 NA
BRANCH  33  37
HETATM   37  C   UNL     1      29.795  43.794  55.109  1.00  0.00     0.011 A 
HETATM   38  C   UNL     1      29.415  45.055  55.576  1.00  0.00     0.130 A 
HETATM   39  N   UNL     1      29.937  45.677  56.664  1.00  0.00    -0.272 NA
HETATM   40  C   UNL     1      30.891  45.010  57.342  1.00  0.00     0.116 A 
HETATM   41  C   UNL     1      31.342  43.753  56.985  1.00  0.00     0.020 A 
HETATM   42  C   UNL     1      30.786  43.144  55.860  1.00  0.00     0.017 A 
ENDBRANCH  33  37
ENDBRANCH  29  31
ENDBRANCH   3  29
TORSDOF 9
ENDMDL
MODEL 4
REMARK VINA RESULT:      -9.6      2.950     13.313
REMARK  9 active torsions:
REMARK  status: ('A' for Active; 'I' for Inactive)
REMARK    1  A    between atoms: C_3  and  N_4 
REMARK    2  A    between atoms: N_4  and  C_5 
REMARK    3  A    between atoms: C_7  and  C_8 
REMARK    4  A    between atoms: C_19  and  N_20 
REMARK       I    between atoms: N_20  and  C_21 
REMARK    5  A    between atoms: C_21  and  C_22 
REMARK    6  A    between atoms: C_24  and  N_25 
REMARK       I    between atoms: N_25  and  C_26 
REMARK    7  A    between atoms: C_26  and  C_27 
REMARK    8  A    between atoms: C_28  and  C_29 
REMARK    9  A    between atoms: C_29  and  N_30 
ROOT
HETATM    1  C   UNL     1      24.696  43.466  48.971  1.00  0.00     0.050 C 
HETATM    2  C   UNL     1      24.975  44.902  49.329  1.00  0.00    -0.033 A 
HETATM    3  C   UNL     1      26.225  45.306  49.843  1.00  0.00     0.055 A 
HETATM    4  C   UNL     1      26.393  46.661  50.156  1.00  0.00     0.033 A 
HETATM    5  C   UNL     1      25.361  47.594  50.001  1.00  0.00     0.032 A 
HETATM    6  C   UNL     1      24.112  47.189  49.550  1.00  0.00     0.035 A 
HETATM    7  C   UNL     1      23.933  45.845  49.200  1.00  0.00     0.038 A 
ENDROOT
BRANCH   6   8
HETATM    8  N   UNL     1      22.989  48.041  49.464  1.00  0.00    -0.323 N 
HETATM    9  C   UNL     1      22.763  49.030  48.520  1.00  0.00     0.256 C 
HETATM   10  O   UNL     1      23.457  49.281  47.543  1.00  0.00    -0.267 OA
HETATM   11  H   UNL     1      22.339  47.966  50.233  1.00  0.00     0.169 HD
BRANCH   9  12
HETATM   12  C   UNL     1      21.570  49.896  48.762  1.00  0.00     0.034 A 
HETATM   13  C   UNL     1      20.660  50.228  47.748  1.00  0.00     0.046 A 
HETATM   14  C   UNL     1      19.540  51.017  48.030  1.00  0.00     0.035 A 
HETATM   15  C   UNL     1      19.358  51.502  49.331  1.00  0.00     0.029 A 
HETATM   16  C   UNL     1      20.272  51.198  50.340  1.00  0.00     0.003 A 
HETATM   17  C   UNL     1      21.375  50.396  50.056  1.00  0.00     0.017 A 
BRANCH  14  18
HETATM   18  N   UNL     1      18.565  51.369  47.068  1.00  0.00    -0.324 N 
HETATM   19  C   UNL     1      17.651  50.527  46.477  1.00  0.00     0.245 C 
HETATM   20  O   UNL     1      17.480  49.333  46.692  1.00  0.00    -0.268 OA
HETATM   21  H   UNL     1      18.552  52.348  46.813  1.00  0.00     0.169 HD
BRANCH  19  22
HETATM   22  C   UNL     1      16.784  51.229  45.485  1.00  0.00     0.072 C 
HETATM   23  C   UNL     1      16.622  52.558  45.604  1.00  0.00     0.006 C 
BRANCH  23  24
HETATM   24  C   UNL     1      15.836  53.417  44.675  1.00  0.00     0.261 C 
BRANCH  24  25
HETATM   25  N   UNL     1      14.434  53.666  45.173  1.00  0.00    -0.076 N 
HETATM   26  H   UNL     1      14.154  54.591  44.820  1.00  0.00     0.279 HD
HETATM   27  C   UNL     1      13.432  52.679  44.643  1.00  0.00     0.269 C 
HETATM   28  C   UNL     1      14.384  53.749  46.673  1.00  0.00     0.269 C 
ENDBRANCH  24  25
ENDBRANCH  23  24
ENDBRANCH  19  22
ENDBRANCH  14  18
ENDBRANCH   9  12
ENDBRANCH   6   8
BRANCH   3  29
HETATM   29  N   UNL     1      27.221  44.360  50.123  1.00  0.00    -0.188 N 
HETATM   30  H   UNL     1      27.884  44.134  49.400  1.00  0.00     0.184 HD
BRANCH  29  31
HETATM   31  C   UNL     1      27.430  43.527  51.222  1.00  0.00     0.727 A 
HETATM   32  N   UNL     1      28.118  44.069  52.239  1.00  0.00    -0.062 NA
HETATM   33  C   UNL     1      28.384  43.297  53.320  1.00  0.00     0.089 A 
HETATM   34  C   UNL     1      27.988  41.975  53.378  1.00  0.00     0.053 A 
HETATM   35  C   UNL     1      27.301  41.503  52.292  1.00  0.00     0.139 A 
HETATM   36  N   UNL     1      27.012  42.255  51.219  1.00  0.00    -0.075 NA
BRANCH  33  37
HETATM   37  C   UNL     1      29.131  43.952  54.410  1.00  0.00     0.011 A 
HETATM   38  C   UNL     1      28.740  45.193  54.916  1.00  0.00     0.130 A 
HETATM   39  N   UNL     1      29.379  45.874  55.902  1.00  0.00    -0.272 NA
HETATM   40  C   UNL     1      30.471  45.288  56.432  1.00  0.00     0.116 A 
HETATM   41  C   UNL     1      30.949  44.057  56.023  1.00  0.00     0.020 A 
HETATM   42  C   UNL     1      30.270  43.387  55.005  1.00  0.00     0.017 A 
ENDBRANCH  33  37
ENDBRANCH  29  31
ENDBRANCH   3  29
TORSDOF 9
ENDMDL
MODEL 5
REMARK VINA RESULT:      -9.6      2.184      4.100
REMARK  9 active torsions:
REMARK  status: ('A' for Active; 'I' for Inactive)
REMARK    1  A    between atoms: C_3  and  N_4 
REMARK    2  A    between atoms: N_4  and  C_5 
REMARK    3  A    between atoms: C_7  and  C_8 
REMARK    4  A    between atoms: C_19  and  N_20 
REMARK       I    between atoms: N_20  and  C_21 
REMARK    5  A    between atoms: C_21  and  C_22 
REMARK    6  A    between atoms: C_24  and  N_25 
REMARK       I    between atoms: N_25  and  C_26 
REMARK    7  A    between atoms: C_26  and  C_27 
REMARK    8  A    between atoms: C_28  and  C_29 
REMARK    9  A    between atoms: C_29  and  N_30 
ROOT
HETATM    1  C   UNL     1      17.818  47.964  48.875  1.00  0.00     0.050 C 
HETATM    2  C   UNL     1      18.722  49.168  48.899  1.00  0.00    -0.033 A 
HETATM    3  C   UNL     1      18.240  50.459  48.599  1.00  0.00     0.055 A 
HETATM    4  C   UNL     1      19.154  51.520  48.639  1.00  0.00     0.033 A 
HETATM    5  C   UNL     1      20.509  51.325  48.931  1.00  0.00     0.032 A 
HETATM    6  C   UNL     1      20.997  50.047  49.170  1.00  0.00     0.035 A 
HETATM    7  C   UNL     1      20.094  48.977  49.169  1.00  0.00     0.038 A 
ENDROOT
BRANCH   6   8
HETATM    8  N   UNL     1      22.363  49.748  49.370  1.00  0.00    -0.323 N 
HETATM    9  C   UNL     1      23.367  49.753  48.415  1.00  0.00     0.256 C 
HETATM   10  O   UNL     1      23.263  50.103  47.246  1.00  0.00    -0.267 OA
HETATM   11  H   UNL     1      22.593  49.410  50.293  1.00  0.00     0.169 HD
BRANCH   9  12
HETATM   12  C   UNL     1      24.693  49.233  48.866  1.00  0.00     0.034 A 
HETATM   13  C   UNL     1      24.818  48.202  49.809  1.00  0.00     0.046 A 
HETATM   14  C   UNL     1      26.081  47.726  50.176  1.00  0.00     0.035 A 
HETATM   15  C   UNL     1      27.221  48.318  49.618  1.00  0.00     0.029 A 
HETATM   16  C   UNL     1      27.106  49.362  48.699  1.00  0.00     0.003 A 
HETATM   17  C   UNL     1      25.844  49.817  48.324  1.00  0.00     0.017 A 
BRANCH  14  18
HETATM   18  N   UNL     1      26.286  46.673  51.096  1.00  0.00    -0.324 N 
HETATM   19  C   UNL     1      26.020  46.695  52.446  1.00  0.00     0.245 C 
HETATM   20  O   UNL     1      25.525  47.606  53.099  1.00  0.00    -0.268 OA
HETATM   21  H   UNL     1      26.659  45.822  50.694  1.00  0.00     0.169 HD
BRANCH  19  22
HETATM   22  C   UNL     1      26.380  45.415  53.122  1.00  0.00     0.072 C 
HETATM   23  C   UNL     1      26.813  44.391  52.367  1.00  0.00     0.006 C 
BRANCH  23  24
HETATM   24  C   UNL     1      27.260  43.067  52.882  1.00  0.00     0.261 C 
BRANCH  24  25
HETATM   25  N   UNL     1      26.777  41.925  52.024  1.00  0.00    -0.076 N 
HETATM   26  H   UNL     1      26.226  41.307  52.635  1.00  0.00     0.279 HD
HETATM   27  C   UNL     1      25.860  42.363  50.914  1.00  0.00     0.269 C 
HETATM   28  C   UNL     1      27.919  41.101  51.500  1.00  0.00     0.269 C 
ENDBRANCH  24  25
ENDBRANCH  23  24
ENDBRANCH  19  22
ENDBRANCH  14  18
ENDBRANCH   9  12
ENDBRANCH   6   8
BRANCH   3  29
HETATM   29  N   UNL     1      16.916  50.648  48.179  1.00  0.00    -0.188 N 
HETATM   30  H   UNL     1      16.215  50.001  48.501  1.00  0.00     0.184 HD
BRANCH  29  31
HETATM   31  C   UNL     1      16.350  51.528  47.259  1.00  0.00     0.727 A 
HETATM   32  N   UNL     1      16.937  51.563  46.051  1.00  0.00    -0.062 NA
HETATM   33  C   UNL     1      16.454  52.427  45.125  1.00  0.00     0.089 A 
HETATM   34  C   UNL     1      15.402  53.276  45.410  1.00  0.00     0.053 A 
HETATM   35  C   UNL     1      14.873  53.180  46.669  1.00  0.00     0.139 A 
HETATM   36  N   UNL     1      15.324  52.321  47.594  1.00  0.00    -0.075 NA
BRANCH  33  37
HETATM   37  C   UNL     1      17.130  52.409  43.816  1.00  0.00     0.011 A 
HETATM   38  C   UNL     1      17.060  53.501  42.947  1.00  0.00     0.130 A 
HETATM   39  N   UNL     1      17.635  53.563  41.718  1.00  0.00    -0.272 NA
HETATM   40  C   UNL     1      18.335  52.481  41.323  1.00  0.00     0.116 A 
HETATM   41  C   UNL     1      18.486  51.346  42.099  1.00  0.00     0.020 A 
HETATM   42  C   UNL     1      17.879  51.316  43.354  1.00  0.00     0.017 A 
ENDBRANCH  33  37
ENDBRANCH  29  31
ENDBRANCH   3  29
TORSDOF 9
ENDMDL
MODEL 6
REMARK VINA RESULT:      -9.4      1.255      2.710
REMARK  9 active torsions:
REMARK  status: ('A' for Active; 'I' for Inactive)
REMARK    1  A    between atoms: C_3  and  N_4 
REMARK    2  A    between atoms: N_4  and  C_5 
REMARK    3  A    between atoms: C_7  and  C_8 
REMARK    4  A    between atoms: C_19  and  N_20 
REMARK       I    between atoms: N_20  and  C_21 
REMARK    5  A    between atoms: C_21  and  C_22 
REMARK    6  A    between atoms: C_24  and  N_25 
REMARK       I    between atoms: N_25  and  C_26 
REMARK    7  A    between atoms: C_26  and  C_27 
REMARK    8  A    between atoms: C_28  and  C_29 
REMARK    9  A    between atoms: C_29  and  N_30 
ROOT
HETATM    1  C   UNL     1      17.694  48.095  49.297  1.00  0.00     0.050 C 
HETATM    2  C   UNL     1      18.602  49.294  49.209  1.00  0.00    -0.033 A 
HETATM    3  C   UNL     1      18.108  50.571  48.871  1.00  0.00     0.055 A 
HETATM    4  C   UNL     1      19.026  51.627  48.805  1.00  0.00     0.033 A 
HETATM    5  C   UNL     1      20.395  51.439  49.031  1.00  0.00     0.032 A 
HETATM    6  C   UNL     1      20.892  50.172  49.305  1.00  0.00     0.035 A 
HETATM    7  C   UNL     1      19.986  49.109  49.410  1.00  0.00     0.038 A 
ENDROOT
BRANCH   6   8
HETATM    8  N   UNL     1      22.266  49.876  49.443  1.00  0.00    -0.323 N 
HETATM    9  C   UNL     1      23.195  49.735  48.425  1.00  0.00     0.256 C 
HETATM   10  O   UNL     1      23.006  49.929  47.231  1.00  0.00    -0.267 OA
HETATM   11  H   UNL     1      22.561  49.658  50.384  1.00  0.00     0.169 HD
BRANCH   9  12
HETATM   12  C   UNL     1      24.546  49.253  48.843  1.00  0.00     0.034 A 
HETATM   13  C   UNL     1      24.724  48.203  49.756  1.00  0.00     0.046 A 
HETATM   14  C   UNL     1      26.009  47.765  50.092  1.00  0.00     0.035 A 
HETATM   15  C   UNL     1      27.118  48.414  49.534  1.00  0.00     0.029 A 
HETATM   16  C   UNL     1      26.950  49.477  48.646  1.00  0.00     0.003 A 
HETATM   17  C   UNL     1      25.667  49.894  48.301  1.00  0.00     0.017 A 
BRANCH  14  18
HETATM   18  N   UNL     1      26.267  46.697  50.980  1.00  0.00    -0.324 N 
HETATM   19  C   UNL     1      26.069  46.692  52.342  1.00  0.00     0.245 C 
HETATM   20  O   UNL     1      25.602  47.587  53.036  1.00  0.00    -0.268 OA
HETATM   21  H   UNL     1      26.624  45.856  50.544  1.00  0.00     0.169 HD
BRANCH  19  22
HETATM   22  C   UNL     1      26.472  45.402  52.975  1.00  0.00     0.072 C 
HETATM   23  C   UNL     1      26.666  44.334  52.184  1.00  0.00     0.006 C 
BRANCH  23  24
HETATM   24  C   UNL     1      27.118  42.990  52.643  1.00  0.00     0.261 C 
BRANCH  24  25
HETATM   25  N   UNL     1      26.656  41.886  51.725  1.00  0.00    -0.076 N 
HETATM   26  H   UNL     1      26.182  41.189  52.314  1.00  0.00     0.279 HD
HETATM   27  C   UNL     1      25.650  42.344  50.705  1.00  0.00     0.269 C 
HETATM   28  C   UNL     1      27.815  41.182  51.077  1.00  0.00     0.269 C 
ENDBRANCH  24  25
ENDBRANCH  23  24
ENDBRANCH  19  22
ENDBRANCH  14  18
ENDBRANCH   9  12
ENDBRANCH   6   8
BRANCH   3  29
HETATM   29  N   UNL     1      16.763  50.746  48.518  1.00  0.00    -0.188 N 
HETATM   30  H   UNL     1      16.308  50.018  47.991  1.00  0.00     0.184 HD
BRANCH  29  31
HETATM   31  C   UNL     1      15.902  51.835  48.649  1.00  0.00     0.727 A 
HETATM   32  N   UNL     1      15.479  52.382  47.498  1.00  0.00    -0.062 NA
HETATM   33  C   UNL     1      14.669  53.467  47.560  1.00  0.00     0.089 A 
HETATM   34  C   UNL     1      14.301  54.024  48.770  1.00  0.00     0.053 A 
HETATM   35  C   UNL     1      14.787  53.406  49.891  1.00  0.00     0.139 A 
HETATM   36  N   UNL     1      15.576  52.323  49.852  1.00  0.00    -0.075 NA
BRANCH  33  37
HETATM   37  C   UNL     1      14.228  54.015  46.265  1.00  0.00     0.011 A 
HETATM   38  C   UNL     1      12.946  54.545  46.099  1.00  0.00     0.130 A 
HETATM   39  N   UNL     1      12.452  55.052  44.940  1.00  0.00    -0.272 NA
HETATM   40  C   UNL     1      13.279  55.046  43.876  1.00  0.00     0.116 A 
HETATM   41  C   UNL     1      14.573  54.560  43.919  1.00  0.00     0.020 A 
HETATM   42  C   UNL     1      15.047  54.043  45.125  1.00  0.00     0.017 A 
ENDBRANCH  33  37
ENDBRANCH  29  31
ENDBRANCH   3  29
TORSDOF 9
ENDMDL
MODEL 7
REMARK VINA RESULT:      -9.3      3.047     13.295
REMARK  9 active torsions:
REMARK  status: ('A' for Active; 'I' for Inactive)
REMARK    1  A    between atoms: C_3  and  N_4 
REMARK    2  A    between atoms: N_4  and  C_5 
REMARK    3  A    between atoms: C_7  and  C_8 
REMARK    4  A    between atoms: C_19  and  N_20 
REMARK       I    between atoms: N_20  and  C_21 
REMARK    5  A    between atoms: C_21  and  C_22 
REMARK    6  A    between atoms: C_24  and  N_25 
REMARK       I    between atoms: N_25  and  C_26 
REMARK    7  A    between atoms: C_26  and  C_27 
REMARK    8  A    between atoms: C_28  and  C_29 
REMARK    9  A    between atoms: C_29  and  N_30 
ROOT
HETATM    1  C   UNL     1      26.705  45.590  49.642  1.00  0.00     0.050 C 
HETATM    2  C   UNL     1      25.535  44.663  49.846  1.00  0.00    -0.033 A 
HETATM    3  C   UNL     1      25.718  43.308  50.192  1.00  0.00     0.055 A 
HETATM    4  C   UNL     1      24.574  42.517  50.354  1.00  0.00     0.033 A 
HETATM    5  C   UNL     1      23.284  43.024  50.153  1.00  0.00     0.032 A 
HETATM    6  C   UNL     1      23.104  44.342  49.756  1.00  0.00     0.035 A 
HETATM    7  C   UNL     1      24.234  45.159  49.621  1.00  0.00     0.038 A 
ENDROOT
BRANCH   6   8
HETATM    8  N   UNL     1      21.849  44.905  49.431  1.00  0.00    -0.323 N 
HETATM    9  C   UNL     1      21.081  44.640  48.309  1.00  0.00     0.256 C 
HETATM   10  O   UNL     1      21.315  43.805  47.443  1.00  0.00    -0.267 OA
HETATM   11  H   UNL     1      21.542  45.641  50.050  1.00  0.00     0.169 HD
BRANCH   9  12
HETATM   12  C   UNL     1      19.874  45.501  48.132  1.00  0.00     0.034 A 
HETATM   13  C   UNL     1      19.807  46.816  48.616  1.00  0.00     0.046 A 
HETATM   14  C   UNL     1      18.666  47.595  48.398  1.00  0.00     0.035 A 
HETATM   15  C   UNL     1      17.575  47.033  47.723  1.00  0.00     0.029 A 
HETATM   16  C   UNL     1      17.624  45.717  47.262  1.00  0.00     0.003 A 
HETATM   17  C   UNL     1      18.770  44.953  47.466  1.00  0.00     0.017 A 
BRANCH  14  18
HETATM   18  N   UNL     1      18.537  48.935  48.828  1.00  0.00    -0.324 N 
HETATM   19  C   UNL     1      18.569  49.389  50.127  1.00  0.00     0.245 C 
HETATM   20  O   UNL     1      18.750  48.735  51.147  1.00  0.00    -0.268 OA
HETATM   21  H   UNL     1      18.419  49.612  48.086  1.00  0.00     0.169 HD
BRANCH  19  22
HETATM   22  C   UNL     1      18.376  50.866  50.223  1.00  0.00     0.072 C 
HETATM   23  C   UNL     1      17.385  51.429  49.512  1.00  0.00     0.006 C 
BRANCH  23  24
HETATM   24  C   UNL     1      17.023  52.874  49.531  1.00  0.00     0.261 C 
BRANCH  24  25
HETATM   25  N   UNL     1      15.902  53.197  48.574  1.00  0.00    -0.076 N 
HETATM   26  H   UNL     1      16.205  54.014  48.027  1.00  0.00     0.279 HD
HETATM   27  C   UNL     1      15.627  52.094  47.588  1.00  0.00     0.269 C 
HETATM   28  C   UNL     1      14.652  53.608  49.301  1.00  0.00     0.269 C 
ENDBRANCH  24  25
ENDBRANCH  23  24
ENDBRANCH  19  22
ENDBRANCH  14  18
ENDBRANCH   9  12
ENDBRANCH   6   8
BRANCH   3  29
HETATM   29  N   UNL     1      27.006  42.759  50.270  1.00  0.00    -0.188 N 
HETATM   30  H   UNL     1      27.499  42.571  49.412  1.00  0.00     0.184 HD
BRANCH  29  31
HETATM   31  C   UNL     1      27.748  42.279  51.348  1.00  0.00     0.727 A 
HETATM   32  N   UNL     1      28.085  43.192  52.273  1.00  0.00    -0.062 NA
HETATM   33  C   UNL     1      28.838  42.793  53.327  1.00  0.00     0.089 A 
HETATM   34  C   UNL     1      29.278  41.489  53.447  1.00  0.00     0.053 A 
HETATM   35  C   UNL     1      28.895  40.629  52.452  1.00  0.00     0.139 A 
HETATM   36  N   UNL     1      28.137  40.999  51.410  1.00  0.00    -0.075 NA
BRANCH  33  37
HETATM   37  C   UNL     1      29.165  43.836  54.315  1.00  0.00     0.011 A 
HETATM   38  C   UNL     1      30.279  43.722  55.152  1.00  0.00     0.130 A 
HETATM   39  N   UNL     1      30.642  44.624  56.099  1.00  0.00    -0.272 NA
HETATM   40  C   UNL     1      29.863  45.717  56.225  1.00  0.00     0.116 A 
HETATM   41  C   UNL     1      28.743  45.948  55.448  1.00  0.00     0.020 A 
HETATM   42  C   UNL     1      28.397  44.998  54.486  1.00  0.00     0.017 A 
ENDBRANCH  33  37
ENDBRANCH  29  31
ENDBRANCH   3  29
TORSDOF 9
ENDMDL
MODEL 8
REMARK VINA RESULT:      -9.2      3.266     13.314
REMARK  9 active torsions:
REMARK  status: ('A' for Active; 'I' for Inactive)
REMARK    1  A    between atoms: C_3  and  N_4 
REMARK    2  A    between atoms: N_4  and  C_5 
REMARK    3  A    between atoms: C_7  and  C_8 
REMARK    4  A    between atoms: C_19  and  N_20 
REMARK       I    between atoms: N_20  and  C_21 
REMARK    5  A    between atoms: C_21  and  C_22 
REMARK    6  A    between atoms: C_24  and  N_25 
REMARK       I    between atoms: N_25  and  C_26 
REMARK    7  A    between atoms: C_26  and  C_27 
REMARK    8  A    between atoms: C_28  and  C_29 
REMARK    9  A    between atoms: C_29  and  N_30 
ROOT
HETATM    1  C   UNL     1      26.811  47.467  50.188  1.00  0.00     0.050 C 
HETATM    2  C   UNL     1      25.472  46.910  49.782  1.00  0.00    -0.033 A 
HETATM    3  C   UNL     1      25.325  45.572  49.363  1.00  0.00     0.055 A 
HETATM    4  C   UNL     1      24.043  45.141  48.996  1.00  0.00     0.033 A 
HETATM    5  C   UNL     1      22.938  46.002  49.006  1.00  0.00     0.032 A 
HETATM    6  C   UNL     1      23.091  47.334  49.362  1.00  0.00     0.035 A 
HETATM    7  C   UNL     1      24.358  47.776  49.765  1.00  0.00     0.038 A 
ENDROOT
BRANCH   6   8
HETATM    8  N   UNL     1      22.055  48.293  49.301  1.00  0.00    -0.323 N 
HETATM    9  C   UNL     1      21.919  49.316  48.377  1.00  0.00     0.256 C 
HETATM   10  O   UNL     1      22.628  49.517  47.398  1.00  0.00    -0.267 OA
HETATM   11  H   UNL     1      21.406  48.266  50.073  1.00  0.00     0.169 HD
BRANCH   9  12
HETATM   12  C   UNL     1      20.818  50.289  48.645  1.00  0.00     0.034 A 
HETATM   13  C   UNL     1      19.994  50.795  47.629  1.00  0.00     0.046 A 
HETATM   14  C   UNL     1      18.954  51.679  47.933  1.00  0.00     0.035 A 
HETATM   15  C   UNL     1      18.769  52.083  49.262  1.00  0.00     0.029 A 
HETATM   16  C   UNL     1      19.601  51.605  50.275  1.00  0.00     0.003 A 
HETATM   17  C   UNL     1      20.622  50.709  49.967  1.00  0.00     0.017 A 
BRANCH  14  18
HETATM   18  N   UNL     1      18.066  52.208  46.969  1.00  0.00    -0.324 N 
HETATM   19  C   UNL     1      16.828  51.711  46.631  1.00  0.00     0.245 C 
HETATM   20  O   UNL     1      16.246  50.748  47.116  1.00  0.00    -0.268 OA
HETATM   21  H   UNL     1      18.392  53.044  46.502  1.00  0.00     0.169 HD
BRANCH  19  22
HETATM   22  C   UNL     1      16.167  52.504  45.553  1.00  0.00     0.072 C 
HETATM   23  C   UNL     1      16.940  53.087  44.621  1.00  0.00     0.006 C 
BRANCH  23  24
HETATM   24  C   UNL     1      16.444  53.867  43.453  1.00  0.00     0.261 C 
BRANCH  24  25
HETATM   25  N   UNL     1      16.526  53.086  42.166  1.00  0.00    -0.076 N 
HETATM   26  H   UNL     1      16.431  52.093  42.415  1.00  0.00     0.279 HD
HETATM   27  C   UNL     1      15.409  53.400  41.208  1.00  0.00     0.269 C 
HETATM   28  C   UNL     1      17.870  53.235  41.510  1.00  0.00     0.269 C 
ENDBRANCH  24  25
ENDBRANCH  23  24
ENDBRANCH  19  22
ENDBRANCH  14  18
ENDBRANCH   9  12
ENDBRANCH   6   8
BRANCH   3  29
HETATM   29  N   UNL     1      26.445  44.739  49.225  1.00  0.00    -0.188 N 
HETATM   30  H   UNL     1      27.000  44.817  48.390  1.00  0.00     0.184 HD
BRANCH  29  31
HETATM   31  C   UNL     1      26.913  43.677  49.998  1.00  0.00     0.727 A 
HETATM   32  N   UNL     1      27.566  44.019  51.121  1.00  0.00    -0.062 NA
HETATM   33  C   UNL     1      28.077  43.031  51.894  1.00  0.00     0.089 A 
HETATM   34  C   UNL     1      27.961  41.702  51.537  1.00  0.00     0.053 A 
HETATM   35  C   UNL     1      27.289  41.446  50.372  1.00  0.00     0.139 A 
HETATM   36  N   UNL     1      26.761  42.408  49.600  1.00  0.00    -0.075 NA
BRANCH  33  37
HETATM   37  C   UNL     1      28.771  43.468  53.119  1.00  0.00     0.011 A 
HETATM   38  C   UNL     1      29.971  42.878  53.525  1.00  0.00     0.130 A 
HETATM   39  N   UNL     1      30.665  43.205  54.645  1.00  0.00    -0.272 NA
HETATM   40  C   UNL     1      30.149  44.185  55.412  1.00  0.00     0.116 A 
HETATM   41  C   UNL     1      28.975  44.851  55.110  1.00  0.00     0.020 A 
HETATM   42  C   UNL     1      28.286  44.487  53.953  1.00  0.00     0.017 A 
ENDBRANCH  33  37
ENDBRANCH  29  31
ENDBRANCH   3  29
TORSDOF 9
ENDMDL
MODEL 9
REMARK VINA RESULT:      -9.1      1.613      2.359
REMARK  9 active torsions:
REMARK  status: ('A' for Active; 'I' for Inactive)
REMARK    1  A    between atoms: C_3  and  N_4 
REMARK    2  A    between atoms: N_4  and  C_5 
REMARK    3  A    between atoms: C_7  and  C_8 
REMARK    4  A    between atoms: C_19  and  N_20 
REMARK       I    between atoms: N_20  and  C_21 
REMARK    5  A    between atoms: C_21  and  C_22 
REMARK    6  A    between atoms: C_24  and  N_25 
REMARK       I    between atoms: N_25  and  C_26 
REMARK    7  A    between atoms: C_26  and  C_27 
REMARK    8  A    between atoms: C_28  and  C_29 
REMARK    9  A    between atoms: C_29  and  N_30 
ROOT
HETATM    1  C   UNL     1      16.126  50.290  46.913  1.00  0.00     0.050 C 
HETATM    2  C   UNL     1      17.050  50.868  47.954  1.00  0.00    -0.033 A 
HETATM    3  C   UNL     1      16.609  51.845  48.871  1.00  0.00     0.055 A 
HETATM    4  C   UNL     1      17.538  52.332  49.800  1.00  0.00     0.033 A 
HETATM    5  C   UNL     1      18.871  51.902  49.814  1.00  0.00     0.032 A 
HETATM    6  C   UNL     1      19.321  50.984  48.876  1.00  0.00     0.035 A 
HETATM    7  C   UNL     1      18.400  50.459  47.960  1.00  0.00     0.038 A 
ENDROOT
BRANCH   6   8
HETATM    8  N   UNL     1      20.668  50.576  48.753  1.00  0.00    -0.323 N 
HETATM    9  C   UNL     1      21.177  49.305  48.965  1.00  0.00     0.256 C 
HETATM   10  O   UNL     1      20.534  48.291  49.211  1.00  0.00    -0.267 OA
HETATM   11  H   UNL     1      21.325  51.323  48.581  1.00  0.00     0.169 HD
BRANCH   9  12
HETATM   12  C   UNL     1      22.665  49.188  48.930  1.00  0.00     0.034 A 
HETATM   13  C   UNL     1      23.360  48.184  49.620  1.00  0.00     0.046 A 
HETATM   14  C   UNL     1      24.753  48.096  49.531  1.00  0.00     0.035 A 
HETATM   15  C   UNL     1      25.449  49.046  48.772  1.00  0.00     0.029 A 
HETATM   16  C   UNL     1      24.767  50.062  48.103  1.00  0.00     0.003 A 
HETATM   17  C   UNL     1      23.379  50.133  48.181  1.00  0.00     0.017 A 
BRANCH  14  18
HETATM   18  N   UNL     1      25.520  47.097  50.173  1.00  0.00    -0.324 N 
HETATM   19  C   UNL     1      25.724  46.961  51.527  1.00  0.00     0.245 C 
HETATM   20  O   UNL     1      25.260  47.646  52.430  1.00  0.00    -0.268 OA
HETATM   21  H   UNL     1      25.942  46.418  49.553  1.00  0.00     0.169 HD
BRANCH  19  22
HETATM   22  C   UNL     1      26.609  45.805  51.859  1.00  0.00     0.072 C 
HETATM   23  C   UNL     1      26.135  44.562  51.672  1.00  0.00     0.006 C 
BRANCH  23  24
HETATM   24  C   UNL     1      26.898  43.303  51.903  1.00  0.00     0.261 C 
BRANCH  24  25
HETATM   25  N   UNL     1      27.933  43.453  52.989  1.00  0.00    -0.076 N 
HETATM   26  H   UNL     1      27.891  44.431  53.307  1.00  0.00     0.279 HD
HETATM   27  C   UNL     1      27.658  42.596  54.194  1.00  0.00     0.269 C 
HETATM   28  C   UNL     1      29.325  43.234  52.465  1.00  0.00     0.269 C 
ENDBRANCH  24  25
ENDBRANCH  23  24
ENDBRANCH  19  22
ENDBRANCH  14  18
ENDBRANCH   9  12
ENDBRANCH   6   8
BRANCH   3  29
HETATM   29  N   UNL     1      15.315  52.376  48.783  1.00  0.00    -0.188 N 
HETATM   30  H   UNL     1      14.546  51.742  48.640  1.00  0.00     0.184 HD
BRANCH  29  31
HETATM   31  C   UNL     1      14.851  53.689  48.729  1.00  0.00     0.727 A 
HETATM   32  N   UNL     1      15.064  54.426  49.832  1.00  0.00    -0.062 NA
HETATM   33  C   UNL     1      14.603  55.700  49.854  1.00  0.00     0.089 A 
HETATM   34  C   UNL     1      13.906  56.234  48.788  1.00  0.00     0.053 A 
HETATM   35  C   UNL     1      13.726  55.408  47.711  1.00  0.00     0.139 A 
HETATM   36  N   UNL     1      14.188  54.150  47.661  1.00  0.00    -0.075 NA
BRANCH  33  37
HETATM   37  C   UNL     1      14.878  56.461  51.086  1.00  0.00     0.011 A 
HETATM   38  C   UNL     1      14.972  57.855  51.073  1.00  0.00     0.130 A 
HETATM   39  N   UNL     1      15.240  58.632  52.154  1.00  0.00    -0.272 NA
HETATM   40  C   UNL     1      15.418  57.995  53.328  1.00  0.00     0.116 A 
HETATM   41  C   UNL     1      15.337  56.622  53.470  1.00  0.00     0.020 A 
HETATM   42  C   UNL     1      15.064  55.854  52.338  1.00  0.00     0.017 A 
ENDBRANCH  33  37
ENDBRANCH  29  31
ENDBRANCH   3  29
TORSDOF 9
ENDMDL
MODEL 10
REMARK VINA RESULT:      -8.7      3.739      6.634
REMARK  9 active torsions:
REMARK  status: ('A' for Active; 'I' for Inactive)
REMARK    1  A    between atoms: C_3  and  N_4 
REMARK    2  A    between atoms: N_4  and  C_5 
REMARK    3  A    between atoms: C_7  and  C_8 
REMARK    4  A    between atoms: C_19  and  N_20 
REMARK       I    between atoms: N_20  and  C_21 
REMARK    5  A    between atoms: C_21  and  C_22 
REMARK    6  A    between atoms: C_24  and  N_25 
REMARK       I    between atoms: N_25  and  C_26 
REMARK    7  A    between atoms: C_26  and  C_27 
REMARK    8  A    between atoms: C_28  and  C_29 
REMARK    9  A    between atoms: C_29  and  N_30 
ROOT
HETATM    1  C   UNL     1      21.838  45.611  48.321  1.00  0.00     0.050 C 
HETATM    2  C   UNL     1      22.958  46.342  49.015  1.00  0.00    -0.033 A 
HETATM    3  C   UNL     1      23.151  47.728  48.846  1.00  0.00     0.055 A 
HETATM    4  C   UNL     1      24.223  48.324  49.523  1.00  0.00     0.033 A 
HETATM    5  C   UNL     1      25.104  47.582  50.320  1.00  0.00     0.032 A 
HETATM    6  C   UNL     1      24.951  46.208  50.442  1.00  0.00     0.035 A 
HETATM    7  C   UNL     1      23.865  45.599  49.800  1.00  0.00     0.038 A 
ENDROOT
BRANCH   6   8
HETATM    8  N   UNL     1      25.851  45.372  51.138  1.00  0.00    -0.323 N 
HETATM    9  C   UNL     1      26.253  45.495  52.458  1.00  0.00     0.256 C 
HETATM   10  O   UNL     1      25.831  46.300  53.279  1.00  0.00    -0.267 OA
HETATM   11  H   UNL     1      26.306  44.672  50.571  1.00  0.00     0.169 HD
BRANCH   9  12
HETATM   12  C   UNL     1      27.344  44.572  52.892  1.00  0.00     0.034 A 
HETATM   13  C   UNL     1      27.674  43.407  52.184  1.00  0.00     0.046 A 
HETATM   14  C   UNL     1      28.725  42.590  52.611  1.00  0.00     0.035 A 
HETATM   15  C   UNL     1      29.421  42.930  53.778  1.00  0.00     0.029 A 
HETATM   16  C   UNL     1      29.083  44.073  54.503  1.00  0.00     0.003 A 
HETATM   17  C   UNL     1      28.047  44.892  54.060  1.00  0.00     0.017 A 
BRANCH  14  18
HETATM   18  N   UNL     1      29.134  41.418  51.935  1.00  0.00    -0.324 N 
HETATM   19  C   UNL     1      28.321  40.510  51.298  1.00  0.00     0.245 C 
HETATM   20  O   UNL     1      27.104  40.557  51.161  1.00  0.00    -0.268 OA
HETATM   21  H   UNL     1      30.133  41.259  51.924  1.00  0.00     0.169 HD
BRANCH  19  22
HETATM   22  C   UNL     1      29.085  39.372  50.707  1.00  0.00     0.072 C 
HETATM   23  C   UNL     1      28.847  39.036  49.428  1.00  0.00     0.006 C 
BRANCH  23  24
HETATM   24  C   UNL     1      29.553  37.965  48.671  1.00  0.00     0.261 C 
BRANCH  24  25
HETATM   25  N   UNL     1      28.603  37.103  47.878  1.00  0.00    -0.076 N 
HETATM   26  H   UNL     1      28.775  36.130  48.166  1.00  0.00     0.279 HD
HETATM   27  C   UNL     1      27.156  37.390  48.170  1.00  0.00     0.269 C 
HETATM   28  C   UNL     1      28.890  37.169  46.404  1.00  0.00     0.269 C 
ENDBRANCH  24  25
ENDBRANCH  23  24
ENDBRANCH  19  22
ENDBRANCH  14  18
ENDBRANCH   9  12
ENDBRANCH   6   8
BRANCH   3  29
HETATM   29  N   UNL     1      22.355  48.456  47.950  1.00  0.00    -0.188 N 
HETATM   30  H   UNL     1      22.532  48.358  46.964  1.00  0.00     0.184 HD
BRANCH  29  31
HETATM   31  C   UNL     1      21.388  49.439  48.154  1.00  0.00     0.727 A 
HETATM   32  N   UNL     1      20.118  49.058  47.937  1.00  0.00    -0.062 NA
HETATM   33  C   UNL     1      19.136  49.980  48.084  1.00  0.00     0.089 A 
HETATM   34  C   UNL     1      19.419  51.289  48.422  1.00  0.00     0.053 A 
HETATM   35  C   UNL     1      20.741  51.590  48.614  1.00  0.00     0.139 A 
HETATM   36  N   UNL     1      21.727  50.690  48.489  1.00  0.00    -0.075 NA
BRANCH  33  37
HETATM   37  C   UNL     1      17.763  49.499  47.846  1.00  0.00     0.011 A 
HETATM   38  C   UNL     1      17.281  48.339  48.458  1.00  0.00     0.130 A 
HETATM   39  N   UNL     1      16.041  47.817  48.281  1.00  0.00    -0.272 NA
HETATM   40  C   UNL     1      15.215  48.486  47.452  1.00  0.00     0.116 A 
HETATM   41  C   UNL     1      15.572  49.651  46.798  1.00  0.00     0.020 A 
HETATM   42  C   UNL     1      16.856  50.158  47.000  1.00  0.00     0.017 A 
ENDBRANCH  33  37
ENDBRANCH  29  31
ENDBRANCH   3  29
TORSDOF 9
ENDMDL
