MODEL 1
REMARK VINA RESULT:      -7.8      0.000      0.000
REMARK  3 active torsions:
REMARK  status: ('A' for Active; 'I' for Inactive)
REMARK       I    between atoms: C_2  and  N_3 
REMARK    1  A    between atoms: N_3  and  C_4 
REMARK    2  A    between atoms: C_7  and  N_8 
REMARK       I    between atoms: N_8  and  C_9 
REMARK    3  A    between atoms: C_9  and  C_10 
ROOT
HETATM    1  C   UNL     1      24.331  46.449  50.142  1.00  0.00     0.034 A 
HETATM    2  C   UNL     1      24.088  45.230  50.781  1.00  0.00     0.032 A 
HETATM    3  C   UNL     1      25.017  44.690  51.681  1.00  0.00     0.032 A 
HETATM    4  C   UNL     1      26.208  45.360  51.953  1.00  0.00     0.035 A 
HETATM    5  C   UNL     1      26.459  46.571  51.300  1.00  0.00     0.032 A 
HETATM    6  C   UNL     1      25.529  47.111  50.402  1.00  0.00     0.032 A 
ENDROOT
BRANCH   4   7
HETATM    7  N   UNL     1      27.176  44.913  52.877  1.00  0.00    -0.323 N 
HETATM    8  C   UNL     1      27.451  45.445  54.124  1.00  0.00     0.257 C 
HETATM    9  O   UNL     1      26.817  46.318  54.706  1.00  0.00    -0.267 OA
HETATM   10  H   UNL     1      27.694  44.092  52.594  1.00  0.00     0.169 HD
BRANCH   8  11
HETATM   11  C   UNL     1      28.626  44.862  54.818  1.00  0.00     0.050 A 
HETATM   12  C   UNL     1      29.160  45.534  55.914  1.00  0.00     0.135 A 
HETATM   13  N   UNL     1      30.238  45.104  56.614  1.00  0.00    -0.248 NA
HETATM   14  C   UNL     1      30.817  43.965  56.186  1.00  0.00     0.125 A 
HETATM   15 CL   UNL     1      32.182  43.463  57.091  1.00  0.00    -0.063 Cl
HETATM   16  C   UNL     1      30.378  43.230  55.095  1.00  0.00     0.045 A 
HETATM   17  C   UNL     1      29.262  43.690  54.396  1.00  0.00     0.022 A 
ENDBRANCH   8  11
ENDBRANCH   4   7
BRANCH   1  18
HETATM   18  N   UNL     1      23.330  46.936  49.277  1.00  0.00    -0.328 N 
HETATM   19  C   UNL     1      22.857  48.233  49.181  1.00  0.00     0.218 C 
HETATM   20  C   UNL     1      21.751  48.353  48.163  1.00  0.00     0.117 C 
HETATM   21  O   UNL     1      23.243  49.210  49.813  1.00  0.00    -0.274 OA
HETATM   22  H   UNL     1      22.897  46.250  48.671  1.00  0.00     0.169 HD
ENDBRANCH   1  18
TORSDOF 3
ENDMDL
MODEL 2
REMARK VINA RESULT:      -7.4      5.455      8.678
REMARK  3 active torsions:
REMARK  status: ('A' for Active; 'I' for Inactive)
REMARK       I    between atoms: C_2  and  N_3 
REMARK    1  A    between atoms: N_3  and  C_4 
REMARK    2  A    between atoms: C_7  and  N_8 
REMARK       I    between atoms: N_8  and  C_9 
REMARK    3  A    between atoms: C_9  and  C_10 
ROOT
HETATM    1  C   UNL     1      18.277  51.910  47.298  1.00  0.00     0.034 A 
HETATM    2  C   UNL     1      18.700  50.753  46.636  1.00  0.00     0.032 A 
HETATM    3  C   UNL     1      19.844  50.061  47.053  1.00  0.00     0.032 A 
HETATM    4  C   UNL     1      20.589  50.517  48.138  1.00  0.00     0.035 A 
HETATM    5  C   UNL     1      20.177  51.685  48.789  1.00  0.00     0.032 A 
HETATM    6  C   UNL     1      19.032  52.375  48.373  1.00  0.00     0.032 A 
ENDROOT
BRANCH   4   7
HETATM    7  N   UNL     1      21.726  49.859  48.652  1.00  0.00    -0.323 N 
HETATM    8  C   UNL     1      22.991  49.814  48.093  1.00  0.00     0.257 C 
HETATM    9  O   UNL     1      23.386  50.444  47.119  1.00  0.00    -0.267 OA
HETATM   10  H   UNL     1      21.593  49.404  49.545  1.00  0.00     0.169 HD
BRANCH   8  11
HETATM   11  C   UNL     1      23.957  48.920  48.779  1.00  0.00     0.050 A 
HETATM   12  C   UNL     1      23.477  47.788  49.431  1.00  0.00     0.135 A 
HETATM   13  N   UNL     1      24.264  46.909  50.100  1.00  0.00    -0.248 NA
HETATM   14  C   UNL     1      25.582  47.189  50.135  1.00  0.00     0.125 A 
HETATM   15 CL   UNL     1      26.537  46.061  51.001  1.00  0.00    -0.063 Cl
HETATM   16  C   UNL     1      26.159  48.298  49.537  1.00  0.00     0.045 A 
HETATM   17  C   UNL     1      25.329  49.183  48.848  1.00  0.00     0.022 A 
ENDBRANCH   8  11
ENDBRANCH   4   7
BRANCH   1  18
HETATM   18  N   UNL     1      17.098  52.527  46.833  1.00  0.00    -0.328 N 
HETATM   19  C   UNL     1      15.809  52.341  47.303  1.00  0.00     0.218 C 
HETATM   20  C   UNL     1      14.805  53.150  46.521  1.00  0.00     0.117 C 
HETATM   21  O   UNL     1      15.456  51.625  48.233  1.00  0.00    -0.274 OA
HETATM   22  H   UNL     1      17.208  53.163  46.054  1.00  0.00     0.169 HD
ENDBRANCH   1  18
TORSDOF 3
ENDMDL
MODEL 3
REMARK VINA RESULT:      -7.3      2.688      2.849
REMARK  3 active torsions:
REMARK  status: ('A' for Active; 'I' for Inactive)
REMARK       I    between atoms: C_2  and  N_3 
REMARK    1  A    between atoms: N_3  and  C_4 
REMARK    2  A    between atoms: C_7  and  N_8 
REMARK       I    between atoms: N_8  and  C_9 
REMARK    3  A    between atoms: C_9  and  C_10 
ROOT
HETATM    1  C   UNL     1      25.393  43.902  49.305  1.00  0.00     0.034 A 
HETATM    2  C   UNL     1      25.434  42.869  50.248  1.00  0.00     0.032 A 
HETATM    3  C   UNL     1      26.242  42.966  51.388  1.00  0.00     0.032 A 
HETATM    4  C   UNL     1      27.029  44.096  51.603  1.00  0.00     0.035 A 
HETATM    5  C   UNL     1      27.001  45.121  50.651  1.00  0.00     0.032 A 
HETATM    6  C   UNL     1      26.192  45.025  49.513  1.00  0.00     0.032 A 
ENDROOT
BRANCH   4   7
HETATM    7  N   UNL     1      27.835  44.296  52.744  1.00  0.00    -0.323 N 
HETATM    8  C   UNL     1      28.961  43.578  53.107  1.00  0.00     0.257 C 
HETATM    9  O   UNL     1      29.535  42.726  52.441  1.00  0.00    -0.267 OA
HETATM   10  H   UNL     1      27.567  45.074  53.330  1.00  0.00     0.169 HD
BRANCH   8  11
HETATM   11  C   UNL     1      29.524  43.914  54.439  1.00  0.00     0.050 A 
HETATM   12  C   UNL     1      29.033  45.027  55.114  1.00  0.00     0.135 A 
HETATM   13  N   UNL     1      29.481  45.435  56.327  1.00  0.00    -0.248 NA
HETATM   14  C   UNL     1      30.477  44.710  56.875  1.00  0.00     0.125 A 
HETATM   15 CL   UNL     1      31.021  45.267  58.401  1.00  0.00    -0.063 Cl
HETATM   16  C   UNL     1      31.050  43.597  56.279  1.00  0.00     0.045 A 
HETATM   17  C   UNL     1      30.565  43.194  55.034  1.00  0.00     0.022 A 
ENDBRANCH   8  11
ENDBRANCH   4   7
BRANCH   1  18
HETATM   18  N   UNL     1      24.530  43.738  48.204  1.00  0.00    -0.328 N 
HETATM   19  C   UNL     1      23.159  43.929  48.173  1.00  0.00     0.218 C 
HETATM   20  C   UNL     1      22.579  43.613  46.817  1.00  0.00     0.117 C 
HETATM   21  O   UNL     1      22.443  44.305  49.093  1.00  0.00    -0.274 OA
HETATM   22  H   UNL     1      24.963  43.426  47.344  1.00  0.00     0.169 HD
ENDBRANCH   1  18
TORSDOF 3
ENDMDL
MODEL 4
REMARK VINA RESULT:      -7.3      3.777      8.429
REMARK  3 active torsions:
REMARK  status: ('A' for Active; 'I' for Inactive)
REMARK       I    between atoms: C_2  and  N_3 
REMARK    1  A    between atoms: N_3  and  C_4 
REMARK    2  A    between atoms: C_7  and  N_8 
REMARK       I    between atoms: N_8  and  C_9 
REMARK    3  A    between atoms: C_9  and  C_10 
ROOT
HETATM    1  C   UNL     1      29.010  43.786  54.363  1.00  0.00     0.034 A 
HETATM    2  C   UNL     1      29.215  43.449  53.021  1.00  0.00     0.032 A 
HETATM    3  C   UNL     1      28.308  43.847  52.031  1.00  0.00     0.032 A 
HETATM    4  C   UNL     1      27.175  44.586  52.366  1.00  0.00     0.035 A 
HETATM    5  C   UNL     1      26.960  44.908  53.711  1.00  0.00     0.032 A 
HETATM    6  C   UNL     1      27.869  44.512  54.700  1.00  0.00     0.032 A 
ENDROOT
BRANCH   4   7
HETATM    7  N   UNL     1      26.235  45.065  51.430  1.00  0.00    -0.323 N 
HETATM    8  C   UNL     1      25.781  46.365  51.291  1.00  0.00     0.257 C 
HETATM    9  O   UNL     1      26.207  47.357  51.869  1.00  0.00    -0.267 OA
HETATM   10  H   UNL     1      25.892  44.377  50.774  1.00  0.00     0.169 HD
BRANCH   8  11
HETATM   11  C   UNL     1      24.677  46.551  50.315  1.00  0.00     0.050 A 
HETATM   12  C   UNL     1      24.250  47.843  50.025  1.00  0.00     0.135 A 
HETATM   13  N   UNL     1      23.244  48.131  49.162  1.00  0.00    -0.248 NA
HETATM   14  C   UNL     1      22.629  47.080  48.584  1.00  0.00     0.125 A 
HETATM   15 CL   UNL     1      21.357  47.489  47.511  1.00  0.00    -0.063 Cl
HETATM   16  C   UNL     1      22.963  45.756  48.820  1.00  0.00     0.045 A 
HETATM   17  C   UNL     1      24.006  45.486  49.706  1.00  0.00     0.022 A 
ENDBRANCH   8  11
ENDBRANCH   4   7
BRANCH   1  18
HETATM   18  N   UNL     1      29.988  43.374  55.290  1.00  0.00    -0.328 N 
HETATM   19  C   UNL     1      30.747  44.175  56.125  1.00  0.00     0.218 C 
HETATM   20  C   UNL     1      31.719  43.365  56.947  1.00  0.00     0.117 C 
HETATM   21  O   UNL     1      30.689  45.394  56.235  1.00  0.00    -0.274 OA
HETATM   22  H   UNL     1      30.166  42.378  55.333  1.00  0.00     0.169 HD
ENDBRANCH   1  18
TORSDOF 3
ENDMDL
MODEL 5
REMARK VINA RESULT:      -7.3      3.985      8.544
REMARK  3 active torsions:
REMARK  status: ('A' for Active; 'I' for Inactive)
REMARK       I    between atoms: C_2  and  N_3 
REMARK    1  A    between atoms: N_3  and  C_4 
REMARK    2  A    between atoms: C_7  and  N_8 
REMARK       I    between atoms: N_8  and  C_9 
REMARK    3  A    between atoms: C_9  and  C_10 
ROOT
HETATM    1  C   UNL     1      27.898  46.256  55.482  1.00  0.00     0.034 A 
HETATM    2  C   UNL     1      27.140  47.406  55.239  1.00  0.00     0.032 A 
HETATM    3  C   UNL     1      26.305  47.495  54.118  1.00  0.00     0.032 A 
HETATM    4  C   UNL     1      26.217  46.436  53.216  1.00  0.00     0.035 A 
HETATM    5  C   UNL     1      26.989  45.293  53.450  1.00  0.00     0.032 A 
HETATM    6  C   UNL     1      27.822  45.203  54.572  1.00  0.00     0.032 A 
ENDROOT
BRANCH   4   7
HETATM    7  N   UNL     1      25.370  46.423  52.088  1.00  0.00    -0.323 N 
HETATM    8  C   UNL     1      25.479  47.203  50.951  1.00  0.00     0.257 C 
HETATM    9  O   UNL     1      26.404  47.953  50.661  1.00  0.00    -0.267 OA
HETATM   10  H   UNL     1      24.626  45.739  52.116  1.00  0.00     0.169 HD
BRANCH   8  11
HETATM   11  C   UNL     1      24.357  47.081  49.987  1.00  0.00     0.050 A 
HETATM   12  C   UNL     1      23.658  48.228  49.623  1.00  0.00     0.135 A 
HETATM   13  N   UNL     1      22.609  48.234  48.763  1.00  0.00    -0.248 NA
HETATM   14  C   UNL     1      22.234  47.040  48.265  1.00  0.00     0.125 A 
HETATM   15 CL   UNL     1      20.898  47.091  47.193  1.00  0.00    -0.063 Cl
HETATM   16  C   UNL     1      22.849  45.837  48.578  1.00  0.00     0.045 A 
HETATM   17  C   UNL     1      23.930  45.859  49.459  1.00  0.00     0.022 A 
ENDBRANCH   8  11
ENDBRANCH   4   7
BRANCH   1  18
HETATM   18  N   UNL     1      28.687  46.237  56.650  1.00  0.00    -0.328 N 
HETATM   19  C   UNL     1      29.946  45.685  56.806  1.00  0.00     0.218 C 
HETATM   20  C   UNL     1      30.451  45.830  58.220  1.00  0.00     0.117 C 
HETATM   21  O   UNL     1      30.624  45.133  55.948  1.00  0.00    -0.274 OA
HETATM   22  H   UNL     1      28.273  46.660  57.471  1.00  0.00     0.169 HD
ENDBRANCH   1  18
TORSDOF 3
ENDMDL
MODEL 6
REMARK VINA RESULT:      -7.2      3.946      8.507
REMARK  3 active torsions:
REMARK  status: ('A' for Active; 'I' for Inactive)
REMARK       I    between atoms: C_2  and  N_3 
REMARK    1  A    between atoms: N_3  and  C_4 
REMARK    2  A    between atoms: C_7  and  N_8 
REMARK       I    between atoms: N_8  and  C_9 
REMARK    3  A    between atoms: C_9  and  C_10 
ROOT
HETATM    1  C   UNL     1      29.009  43.749  54.400  1.00  0.00     0.034 A 
HETATM    2  C   UNL     1      29.134  43.475  53.034  1.00  0.00     0.032 A 
HETATM    3  C   UNL     1      28.151  43.884  52.124  1.00  0.00     0.032 A 
HETATM    4  C   UNL     1      27.022  44.571  52.565  1.00  0.00     0.035 A 
HETATM    5  C   UNL     1      26.888  44.829  53.933  1.00  0.00     0.032 A 
HETATM    6  C   UNL     1      27.872  44.422  54.843  1.00  0.00     0.032 A 
ENDROOT
BRANCH   4   7
HETATM    7  N   UNL     1      26.008  45.058  51.714  1.00  0.00    -0.323 N 
HETATM    8  C   UNL     1      24.874  44.385  51.293  1.00  0.00     0.257 C 
HETATM    9  O   UNL     1      24.481  43.294  51.685  1.00  0.00    -0.267 OA
HETATM   10  H   UNL     1      26.120  46.018  51.416  1.00  0.00     0.169 HD
BRANCH   8  11
HETATM   11  C   UNL     1      24.055  45.094  50.278  1.00  0.00     0.050 A 
HETATM   12  C   UNL     1      24.292  46.446  50.050  1.00  0.00     0.135 A 
HETATM   13  N   UNL     1      23.599  47.196  49.158  1.00  0.00    -0.248 NA
HETATM   14  C   UNL     1      22.613  46.570  48.485  1.00  0.00     0.125 A 
HETATM   15 CL   UNL     1      21.754  47.557  47.378  1.00  0.00    -0.063 Cl
HETATM   16  C   UNL     1      22.282  45.234  48.651  1.00  0.00     0.045 A 
HETATM   17  C   UNL     1      23.016  44.483  49.569  1.00  0.00     0.022 A 
ENDBRANCH   8  11
ENDBRANCH   4   7
BRANCH   1  18
HETATM   18  N   UNL     1      30.059  43.330  55.242  1.00  0.00    -0.328 N 
HETATM   19  C   UNL     1      30.798  44.108  56.117  1.00  0.00     0.218 C 
HETATM   20  C   UNL     1      31.865  43.304  56.817  1.00  0.00     0.117 C 
HETATM   21  O   UNL     1      30.657  45.303  56.345  1.00  0.00    -0.274 OA
HETATM   22  H   UNL     1      30.311  42.352  55.183  1.00  0.00     0.169 HD
ENDBRANCH   1  18
TORSDOF 3
ENDMDL
MODEL 7
REMARK VINA RESULT:      -7.1      4.847      8.892
REMARK  3 active torsions:
REMARK  status: ('A' for Active; 'I' for Inactive)
REMARK       I    between atoms: C_2  and  N_3 
REMARK    1  A    between atoms: N_3  and  C_4 
REMARK    2  A    between atoms: C_7  and  N_8 
REMARK       I    between atoms: N_8  and  C_9 
REMARK    3  A    between atoms: C_9  and  C_10 
ROOT
HETATM    1  C   UNL     1      26.290  43.599  51.322  1.00  0.00     0.034 A 
HETATM    2  C   UNL     1      25.671  44.454  52.238  1.00  0.00     0.032 A 
HETATM    3  C   UNL     1      24.877  45.524  51.803  1.00  0.00     0.032 A 
HETATM    4  C   UNL     1      24.693  45.760  50.442  1.00  0.00     0.035 A 
HETATM    5  C   UNL     1      25.328  44.914  49.525  1.00  0.00     0.032 A 
HETATM    6  C   UNL     1      26.119  43.844  49.961  1.00  0.00     0.032 A 
ENDROOT
BRANCH   4   7
HETATM    7  N   UNL     1      23.877  46.783  49.918  1.00  0.00    -0.323 N 
HETATM    8  C   UNL     1      24.240  48.093  49.660  1.00  0.00     0.257 C 
HETATM    9  O   UNL     1      25.368  48.568  49.718  1.00  0.00    -0.267 OA
HETATM   10  H   UNL     1      22.936  46.503  49.678  1.00  0.00     0.169 HD
BRANCH   8  11
HETATM   11  C   UNL     1      23.131  48.990  49.249  1.00  0.00     0.050 A 
HETATM   12  C   UNL     1      21.864  48.448  49.060  1.00  0.00     0.135 A 
HETATM   13  N   UNL     1      20.782  49.167  48.673  1.00  0.00    -0.248 NA
HETATM   14  C   UNL     1      20.984  50.480  48.445  1.00  0.00     0.125 A 
HETATM   15 CL   UNL     1      19.594  51.349  47.946  1.00  0.00    -0.063 Cl
HETATM   16  C   UNL     1      22.208  51.116  48.584  1.00  0.00     0.045 A 
HETATM   17  C   UNL     1      23.304  50.354  48.990  1.00  0.00     0.022 A 
ENDBRANCH   8  11
ENDBRANCH   4   7
BRANCH   1  18
HETATM   18  N   UNL     1      27.045  42.529  51.844  1.00  0.00    -0.328 N 
HETATM   19  C   UNL     1      28.354  42.562  52.293  1.00  0.00     0.218 C 
HETATM   20  C   UNL     1      28.827  41.203  52.743  1.00  0.00     0.117 C 
HETATM   21  O   UNL     1      29.093  43.538  52.347  1.00  0.00    -0.274 OA
HETATM   22  H   UNL     1      26.578  41.631  51.875  1.00  0.00     0.169 HD
ENDBRANCH   1  18
TORSDOF 3
ENDMDL
MODEL 8
REMARK VINA RESULT:      -7.1     16.427     17.747
REMARK  3 active torsions:
REMARK  status: ('A' for Active; 'I' for Inactive)
REMARK       I    between atoms: C_2  and  N_3 
REMARK    1  A    between atoms: N_3  and  C_4 
REMARK    2  A    between atoms: C_7  and  N_8 
REMARK       I    between atoms: N_8  and  C_9 
REMARK    3  A    between atoms: C_9  and  C_10 
ROOT
HETATM    1  C   UNL     1      38.967  42.314  62.940  1.00  0.00     0.034 A 
HETATM    2  C   UNL     1      37.715  42.512  63.531  1.00  0.00     0.032 A 
HETATM    3  C   UNL     1      37.431  43.686  64.241  1.00  0.00     0.032 A 
HETATM    4  C   UNL     1      38.397  44.681  64.378  1.00  0.00     0.035 A 
HETATM    5  C   UNL     1      39.655  44.474  63.802  1.00  0.00     0.032 A 
HETATM    6  C   UNL     1      39.938  43.302  63.090  1.00  0.00     0.032 A 
ENDROOT
BRANCH   4   7
HETATM    7  N   UNL     1      38.182  45.910  65.036  1.00  0.00    -0.323 N 
HETATM    8  C   UNL     1      37.340  46.934  64.640  1.00  0.00     0.257 C 
HETATM    9  O   UNL     1      36.534  46.907  63.718  1.00  0.00    -0.267 OA
HETATM   10  H   UNL     1      38.679  46.023  65.908  1.00  0.00     0.169 HD
BRANCH   8  11
HETATM   11  C   UNL     1      37.427  48.176  65.449  1.00  0.00     0.050 A 
HETATM   12  C   UNL     1      36.772  48.224  66.676  1.00  0.00     0.135 A 
HETATM   13  N   UNL     1      36.771  49.307  67.491  1.00  0.00    -0.248 NA
HETATM   14  C   UNL     1      37.436  50.393  67.049  1.00  0.00     0.125 A 
HETATM   15 CL   UNL     1      37.399  51.742  68.104  1.00  0.00    -0.063 Cl
HETATM   16  C   UNL     1      38.104  50.457  65.836  1.00  0.00     0.045 A 
HETATM   17  C   UNL     1      38.096  49.326  65.019  1.00  0.00     0.022 A 
ENDBRANCH   8  11
ENDBRANCH   4   7
BRANCH   1  18
HETATM   18  N   UNL     1      39.158  41.120  62.217  1.00  0.00    -0.328 N 
HETATM   19  C   UNL     1      39.417  39.859  62.726  1.00  0.00     0.218 C 
HETATM   20  C   UNL     1      39.601  38.838  61.631  1.00  0.00     0.117 C 
HETATM   21  O   UNL     1      39.499  39.540  63.907  1.00  0.00    -0.274 OA
HETATM   22  H   UNL     1      39.120  41.201  61.209  1.00  0.00     0.169 HD
ENDBRANCH   1  18
TORSDOF 3
ENDMDL
MODEL 9
REMARK VINA RESULT:      -6.9      6.154      9.651
REMARK  3 active torsions:
REMARK  status: ('A' for Active; 'I' for Inactive)
REMARK       I    between atoms: C_2  and  N_3 
REMARK    1  A    between atoms: N_3  and  C_4 
REMARK    2  A    between atoms: C_7  and  N_8 
REMARK       I    between atoms: N_8  and  C_9 
REMARK    3  A    between atoms: C_9  and  C_10 
ROOT
HETATM    1  C   UNL     1      24.972  44.517  49.045  1.00  0.00     0.034 A 
HETATM    2  C   UNL     1      23.806  44.374  48.287  1.00  0.00     0.032 A 
HETATM    3  C   UNL     1      22.815  45.364  48.293  1.00  0.00     0.032 A 
HETATM    4  C   UNL     1      22.972  46.515  49.064  1.00  0.00     0.035 A 
HETATM    5  C   UNL     1      24.130  46.650  49.836  1.00  0.00     0.032 A 
HETATM    6  C   UNL     1      25.121  45.660  49.828  1.00  0.00     0.032 A 
ENDROOT
BRANCH   4   7
HETATM    7  N   UNL     1      22.048  47.580  49.095  1.00  0.00    -0.323 N 
HETATM    8  C   UNL     1      22.152  48.797  48.444  1.00  0.00     0.257 C 
HETATM    9  O   UNL     1      23.001  49.119  47.621  1.00  0.00    -0.267 OA
HETATM   10  H   UNL     1      21.207  47.406  49.628  1.00  0.00     0.169 HD
BRANCH   8  11
HETATM   11  C   UNL     1      21.099  49.788  48.778  1.00  0.00     0.050 A 
HETATM   12  C   UNL     1      20.106  49.432  49.685  1.00  0.00     0.135 A 
HETATM   13  N   UNL     1      19.089  50.249  50.054  1.00  0.00    -0.248 NA
HETATM   14  C   UNL     1      19.054  51.464  49.473  1.00  0.00     0.125 A 
HETATM   15 CL   UNL     1      17.746  52.460  49.957  1.00  0.00    -0.063 Cl
HETATM   16  C   UNL     1      19.980  51.910  48.543  1.00  0.00     0.045 A 
HETATM   17  C   UNL     1      21.021  51.053  48.186  1.00  0.00     0.022 A 
ENDBRANCH   8  11
ENDBRANCH   4   7
BRANCH   1  18
HETATM   18  N   UNL     1      25.931  43.488  48.956  1.00  0.00    -0.328 N 
HETATM   19  C   UNL     1      26.114  42.429  49.828  1.00  0.00     0.218 C 
HETATM   20  C   UNL     1      27.273  41.556  49.416  1.00  0.00     0.117 C 
HETATM   21  O   UNL     1      25.454  42.172  50.828  1.00  0.00    -0.274 OA
HETATM   22  H   UNL     1      26.570  43.545  48.173  1.00  0.00     0.169 HD
ENDBRANCH   1  18
TORSDOF 3
ENDMDL
MODEL 10
REMARK VINA RESULT:      -6.9      1.871      2.595
REMARK  3 active torsions:
REMARK  status: ('A' for Active; 'I' for Inactive)
REMARK       I    between atoms: C_2  and  N_3 
REMARK    1  A    between atoms: N_3  and  C_4 
REMARK    2  A    between atoms: C_7  and  N_8 
REMARK       I    between atoms: N_8  and  C_9 
REMARK    3  A    between atoms: C_9  and  C_10 
ROOT
HETATM    1  C   UNL     1      22.901  47.121  48.772  1.00  0.00     0.034 A 
HETATM    2  C   UNL     1      23.094  45.736  48.779  1.00  0.00     0.032 A 
HETATM    3  C   UNL     1      24.084  45.150  49.580  1.00  0.00     0.032 A 
HETATM    4  C   UNL     1      24.902  45.942  50.384  1.00  0.00     0.035 A 
HETATM    5  C   UNL     1      24.720  47.329  50.363  1.00  0.00     0.032 A 
HETATM    6  C   UNL     1      23.729  47.913  49.564  1.00  0.00     0.032 A 
ENDROOT
BRANCH   4   7
HETATM    7  N   UNL     1      25.890  45.433  51.253  1.00  0.00    -0.323 N 
HETATM    8  C   UNL     1      25.690  44.784  52.458  1.00  0.00     0.257 C 
HETATM    9  O   UNL     1      24.619  44.419  52.927  1.00  0.00    -0.267 OA
HETATM   10  H   UNL     1      26.842  45.532  50.926  1.00  0.00     0.169 HD
BRANCH   8  11
HETATM   11  C   UNL     1      26.922  44.491  53.233  1.00  0.00     0.050 A 
HETATM   12  C   UNL     1      27.529  43.247  53.083  1.00  0.00     0.135 A 
HETATM   13  N   UNL     1      28.647  42.865  53.748  1.00  0.00    -0.248 NA
HETATM   14  C   UNL     1      29.165  43.758  54.614  1.00  0.00     0.125 A 
HETATM   15 CL   UNL     1      30.569  43.231  55.442  1.00  0.00    -0.063 Cl
HETATM   16  C   UNL     1      28.629  45.014  54.853  1.00  0.00     0.045 A 
HETATM   17  C   UNL     1      27.482  45.386  54.150  1.00  0.00     0.022 A 
ENDBRANCH   8  11
ENDBRANCH   4   7
BRANCH   1  18
HETATM   18  N   UNL     1      21.862  47.624  47.963  1.00  0.00    -0.328 N 
HETATM   19  C   UNL     1      20.696  48.242  48.378  1.00  0.00     0.218 C 
HETATM   20  C   UNL     1      19.809  48.607  47.213  1.00  0.00     0.117 C 
HETATM   21  O   UNL     1      20.361  48.494  49.529  1.00  0.00    -0.274 OA
HETATM   22  H   UNL     1      21.979  47.500  46.965  1.00  0.00     0.169 HD
ENDBRANCH   1  18
TORSDOF 3
ENDMDL
