MODEL 1
REMARK VINA RESULT:      -9.5      0.000      0.000
REMARK  2 active torsions:
REMARK  status: ('A' for Active; 'I' for Inactive)
REMARK       I    between atoms: N_4  and  C_5 
REMARK       I    between atoms: C_5  and  N_6 
REMARK    1  A    between atoms: N_6  and  C_7 
REMARK    2  A    between atoms: C_20  and  C_21 
ROOT
HETATM    1  C   UNL     1      27.149  45.532  54.670  1.00  0.00     0.011 C 
HETATM    2  C   UNL     1      25.967  46.154  53.927  1.00  0.00     0.002 C 
HETATM    3  C   UNL     1      25.324  45.150  52.972  1.00  0.00     0.132 C 
HETATM    4  N   UNL     1      26.036  45.339  51.721  1.00  0.00    -0.325 N 
HETATM    5  C   UNL     1      26.497  44.356  50.865  1.00  0.00     0.323 C 
HETATM    6  N   UNL     1      25.898  43.130  51.049  1.00  0.00    -0.309 N 
HETATM    7  O   UNL     1      27.367  44.589  50.028  1.00  0.00    -0.247 OA
HETATM    8  C   UNL     1      26.514  46.713  51.601  1.00  0.00     0.125 C 
HETATM    9  C   UNL     1      26.416  47.308  53.020  1.00  0.00     0.036 C 
HETATM   10  H   UNL     1      24.977  43.167  51.456  1.00  0.00     0.170 HD
ENDROOT
BRANCH   6  11
HETATM   11  C   UNL     1      26.301  41.895  50.502  1.00  0.00     0.038 A 
HETATM   12  C   UNL     1      27.457  41.218  50.899  1.00  0.00     0.062 A 
HETATM   13  C   UNL     1      27.777  39.982  50.330  1.00  0.00     0.070 A 
HETATM   14  C   UNL     1      26.947  39.411  49.366  1.00  0.00     0.096 A 
HETATM   15  N   UNL     1      28.917  39.305  50.763  1.00  0.00    -0.323 N 
HETATM   16  O   UNL     1      27.176  38.193  48.789  1.00  0.00    -0.335 OA
HETATM   17  C   UNL     1      25.784  40.071  48.980  1.00  0.00     0.041 A 
HETATM   18  C   UNL     1      28.484  37.662  48.990  1.00  0.00     0.217 C 
HETATM   19  C   UNL     1      29.295  38.111  50.215  1.00  0.00     0.251 C 
HETATM   20  C   UNL     1      29.304  37.932  47.729  1.00  0.00     0.050 C 
HETATM   21  O   UNL     1      30.267  37.492  50.642  1.00  0.00    -0.270 OA
HETATM   22  C   UNL     1      25.462  41.309  49.546  1.00  0.00     0.032 A 
HETATM   23  H   UNL     1      29.480  39.666  51.522  1.00  0.00     0.169 HD
ENDBRANCH   6  11
BRANCH   8  24
HETATM   24  C   UNL     1      25.740  47.467  50.535  1.00  0.00     0.003 A 
HETATM   25  C   UNL     1      26.329  48.434  49.711  1.00  0.00     0.124 A 
HETATM   26  F   UNL     1      27.629  48.737  49.836  1.00  0.00    -0.205 F 
HETATM   27  C   UNL     1      25.593  49.122  48.747  1.00  0.00     0.043 A 
HETATM   28  C   UNL     1      24.232  48.871  48.605  1.00  0.00     0.003 A 
HETATM   29  C   UNL     1      23.614  47.936  49.434  1.00  0.00     0.001 A 
HETATM   30  C   UNL     1      24.361  47.242  50.391  1.00  0.00     0.012 A 
ENDBRANCH   8  24
TORSDOF 2
ENDMDL
MODEL 2
REMARK VINA RESULT:      -9.1      3.676      7.955
REMARK  2 active torsions:
REMARK  status: ('A' for Active; 'I' for Inactive)
REMARK       I    between atoms: N_4  and  C_5 
REMARK       I    between atoms: C_5  and  N_6 
REMARK    1  A    between atoms: N_6  and  C_7 
REMARK    2  A    between atoms: C_20  and  C_21 
ROOT
HETATM    1  C   UNL     1      24.506  43.973  49.080  1.00  0.00     0.011 C 
HETATM    2  C   UNL     1      24.518  42.466  49.337  1.00  0.00     0.002 C 
HETATM    3  C   UNL     1      25.055  42.147  50.731  1.00  0.00     0.132 C 
HETATM    4  N   UNL     1      26.485  41.989  50.535  1.00  0.00    -0.325 N 
HETATM    5  C   UNL     1      27.498  42.479  51.340  1.00  0.00     0.323 C 
HETATM    6  N   UNL     1      27.087  42.819  52.609  1.00  0.00    -0.309 N 
HETATM    7  O   UNL     1      28.650  42.591  50.926  1.00  0.00    -0.247 OA
HETATM    8  C   UNL     1      26.773  41.509  49.188  1.00  0.00     0.125 C 
HETATM    9  C   UNL     1      25.477  41.739  48.384  1.00  0.00     0.036 C 
HETATM   10  H   UNL     1      26.267  42.331  52.932  1.00  0.00     0.170 HD
ENDROOT
BRANCH   6  11
HETATM   11  C   UNL     1      27.816  43.545  53.573  1.00  0.00     0.038 A 
HETATM   12  C   UNL     1      28.866  43.000  54.316  1.00  0.00     0.062 A 
HETATM   13  C   UNL     1      29.561  43.791  55.235  1.00  0.00     0.070 A 
HETATM   14  C   UNL     1      29.218  45.131  55.416  1.00  0.00     0.096 A 
HETATM   15  N   UNL     1      30.627  43.239  55.944  1.00  0.00    -0.323 N 
HETATM   16  O   UNL     1      29.872  45.975  56.271  1.00  0.00    -0.335 OA
HETATM   17  C   UNL     1      28.186  45.685  54.665  1.00  0.00     0.041 A 
HETATM   18  C   UNL     1      30.733  45.339  57.212  1.00  0.00     0.217 C 
HETATM   19  C   UNL     1      31.318  43.958  56.879  1.00  0.00     0.251 C 
HETATM   20  C   UNL     1      29.995  45.254  58.547  1.00  0.00     0.050 C 
HETATM   21  O   UNL     1      32.294  43.484  57.457  1.00  0.00    -0.270 OA
HETATM   22  C   UNL     1      27.487  44.896  53.747  1.00  0.00     0.032 A 
HETATM   23  H   UNL     1      30.942  42.295  55.759  1.00  0.00     0.169 HD
ENDBRANCH   6  11
BRANCH   8  24
HETATM   24  C   UNL     1      27.264  40.073  49.214  1.00  0.00     0.003 A 
HETATM   25  C   UNL     1      28.536  39.697  48.767  1.00  0.00     0.124 A 
HETATM   26  F   UNL     1      29.389  40.614  48.287  1.00  0.00    -0.205 F 
HETATM   27  C   UNL     1      28.959  38.368  48.790  1.00  0.00     0.043 A 
HETATM   28  C   UNL     1      28.096  37.375  49.243  1.00  0.00     0.003 A 
HETATM   29  C   UNL     1      26.813  37.717  49.665  1.00  0.00     0.001 A 
HETATM   30  C   UNL     1      26.400  39.053  49.648  1.00  0.00     0.012 A 
ENDBRANCH   8  24
TORSDOF 2
ENDMDL
MODEL 3
REMARK VINA RESULT:      -8.5      1.550      2.163
REMARK  2 active torsions:
REMARK  status: ('A' for Active; 'I' for Inactive)
REMARK       I    between atoms: N_4  and  C_5 
REMARK       I    between atoms: C_5  and  N_6 
REMARK    1  A    between atoms: N_6  and  C_7 
REMARK    2  A    between atoms: C_20  and  C_21 
ROOT
HETATM    1  C   UNL     1      26.947  45.317  54.473  1.00  0.00     0.011 C 
HETATM    2  C   UNL     1      25.774  45.906  53.689  1.00  0.00     0.002 C 
HETATM    3  C   UNL     1      25.323  44.961  52.576  1.00  0.00     0.132 C 
HETATM    4  N   UNL     1      26.116  45.359  51.426  1.00  0.00    -0.325 N 
HETATM    5  C   UNL     1      26.749  44.528  50.519  1.00  0.00     0.323 C 
HETATM    6  N   UNL     1      26.267  43.238  50.514  1.00  0.00    -0.309 N 
HETATM    7  O   UNL     1      27.657  44.937  49.800  1.00  0.00    -0.247 OA
HETATM    8  C   UNL     1      26.455  46.776  51.498  1.00  0.00     0.125 C 
HETATM    9  C   UNL     1      26.175  47.193  52.955  1.00  0.00     0.036 C 
HETATM   10  H   UNL     1      25.316  43.141  50.833  1.00  0.00     0.170 HD
ENDROOT
BRANCH   6  11
HETATM   11  C   UNL     1      26.843  42.118  49.882  1.00  0.00     0.038 A 
HETATM   12  C   UNL     1      26.677  41.831  48.524  1.00  0.00     0.062 A 
HETATM   13  C   UNL     1      27.302  40.715  47.961  1.00  0.00     0.070 A 
HETATM   14  C   UNL     1      28.101  39.882  48.742  1.00  0.00     0.096 A 
HETATM   15  N   UNL     1      27.152  40.463  46.597  1.00  0.00    -0.323 N 
HETATM   16  O   UNL     1      28.770  38.793  48.257  1.00  0.00    -0.335 OA
HETATM   17  C   UNL     1      28.287  40.174  50.091  1.00  0.00     0.041 A 
HETATM   18  C   UNL     1      28.364  38.359  46.961  1.00  0.00     0.217 C 
HETATM   19  C   UNL     1      27.713  39.367  46.003  1.00  0.00     0.251 C 
HETATM   20  C   UNL     1      27.426  37.166  47.135  1.00  0.00     0.050 C 
HETATM   21  O   UNL     1      27.626  39.183  44.791  1.00  0.00    -0.270 OA
HETATM   22  C   UNL     1      27.660  41.287  50.659  1.00  0.00     0.032 A 
HETATM   23  H   UNL     1      26.648  41.107  46.001  1.00  0.00     0.169 HD
ENDBRANCH   6  11
BRANCH   8  24
HETATM   24  C   UNL     1      25.701  47.571  50.448  1.00  0.00     0.003 A 
HETATM   25  C   UNL     1      26.320  48.515  49.619  1.00  0.00     0.124 A 
HETATM   26  F   UNL     1      27.635  48.757  49.725  1.00  0.00    -0.205 F 
HETATM   27  C   UNL     1      25.601  49.241  48.670  1.00  0.00     0.043 A 
HETATM   28  C   UNL     1      24.228  49.053  48.548  1.00  0.00     0.003 A 
HETATM   29  C   UNL     1      23.581  48.143  49.382  1.00  0.00     0.001 A 
HETATM   30  C   UNL     1      24.310  47.410  50.325  1.00  0.00     0.012 A 
ENDBRANCH   8  24
TORSDOF 2
ENDMDL
MODEL 4
REMARK VINA RESULT:      -8.5      3.665      7.325
REMARK  2 active torsions:
REMARK  status: ('A' for Active; 'I' for Inactive)
REMARK       I    between atoms: N_4  and  C_5 
REMARK       I    between atoms: C_5  and  N_6 
REMARK    1  A    between atoms: N_6  and  C_7 
REMARK    2  A    between atoms: C_20  and  C_21 
ROOT
HETATM    1  C   UNL     1      24.140  46.657  49.970  1.00  0.00     0.011 C 
HETATM    2  C   UNL     1      23.877  45.152  49.935  1.00  0.00     0.002 C 
HETATM    3  C   UNL     1      24.446  44.462  51.173  1.00  0.00     0.132 C 
HETATM    4  N   UNL     1      25.798  44.099  50.790  1.00  0.00    -0.325 N 
HETATM    5  C   UNL     1      26.945  44.226  51.553  1.00  0.00     0.323 C 
HETATM    6  N   UNL     1      26.707  44.363  52.902  1.00  0.00    -0.309 N 
HETATM    7  O   UNL     1      28.062  44.217  51.039  1.00  0.00    -0.247 OA
HETATM    8  C   UNL     1      25.884  43.866  49.353  1.00  0.00     0.125 C 
HETATM    9  C   UNL     1      24.601  44.481  48.759  1.00  0.00     0.036 C 
HETATM   10  H   UNL     1      25.834  43.970  53.218  1.00  0.00     0.170 HD
ENDROOT
BRANCH   6  11
HETATM   11  C   UNL     1      27.633  44.734  53.897  1.00  0.00     0.038 A 
HETATM   12  C   UNL     1      28.591  43.861  54.421  1.00  0.00     0.062 A 
HETATM   13  C   UNL     1      29.496  44.311  55.387  1.00  0.00     0.070 A 
HETATM   14  C   UNL     1      29.457  45.631  55.832  1.00  0.00     0.096 A 
HETATM   15  N   UNL     1      30.466  43.435  55.875  1.00  0.00    -0.323 N 
HETATM   16  O   UNL     1      30.329  46.152  56.749  1.00  0.00    -0.335 OA
HETATM   17  C   UNL     1      28.519  46.511  55.300  1.00  0.00     0.041 A 
HETATM   18  C   UNL     1      31.096  45.191  57.471  1.00  0.00     0.217 C 
HETATM   19  C   UNL     1      31.352  43.813  56.845  1.00  0.00     0.251 C 
HETATM   20  C   UNL     1      30.445  44.999  58.840  1.00  0.00     0.050 C 
HETATM   21  O   UNL     1      32.241  43.055  57.227  1.00  0.00    -0.270 OA
HETATM   22  C   UNL     1      27.610  46.064  54.335  1.00  0.00     0.032 A 
HETATM   23  H   UNL     1      30.561  42.501  55.498  1.00  0.00     0.169 HD
ENDBRANCH   6  11
BRANCH   8  24
HETATM   24  C   UNL     1      26.086  42.392  49.051  1.00  0.00     0.003 A 
HETATM   25  C   UNL     1      25.055  41.449  49.143  1.00  0.00     0.124 A 
HETATM   26  F   UNL     1      23.820  41.823  49.510  1.00  0.00    -0.205 F 
HETATM   27  C   UNL     1      25.270  40.098  48.872  1.00  0.00     0.043 A 
HETATM   28  C   UNL     1      26.542  39.656  48.524  1.00  0.00     0.003 A 
HETATM   29  C   UNL     1      27.594  40.568  48.456  1.00  0.00     0.001 A 
HETATM   30  C   UNL     1      27.368  41.923  48.719  1.00  0.00     0.012 A 
ENDBRANCH   8  24
TORSDOF 2
ENDMDL
MODEL 5
REMARK VINA RESULT:      -8.5      3.930      6.375
REMARK  2 active torsions:
REMARK  status: ('A' for Active; 'I' for Inactive)
REMARK       I    between atoms: N_4  and  C_5 
REMARK       I    between atoms: C_5  and  N_6 
REMARK    1  A    between atoms: N_6  and  C_7 
REMARK    2  A    between atoms: C_20  and  C_21 
ROOT
HETATM    1  C   UNL     1      23.210  51.236  48.036  1.00  0.00     0.011 C 
HETATM    2  C   UNL     1      21.917  50.822  48.739  1.00  0.00     0.002 C 
HETATM    3  C   UNL     1      22.141  49.610  49.640  1.00  0.00     0.132 C 
HETATM    4  N   UNL     1      21.879  48.470  48.779  1.00  0.00    -0.325 N 
HETATM    5  C   UNL     1      22.611  47.300  48.696  1.00  0.00     0.323 C 
HETATM    6  N   UNL     1      23.423  47.071  49.784  1.00  0.00    -0.309 N 
HETATM    7  O   UNL     1      22.523  46.555  47.722  1.00  0.00    -0.247 OA
HETATM    8  C   UNL     1      20.912  48.817  47.743  1.00  0.00     0.125 C 
HETATM    9  C   UNL     1      20.853  50.357  47.734  1.00  0.00     0.036 C 
HETATM   10  H   UNL     1      23.120  47.512  50.637  1.00  0.00     0.170 HD
ENDROOT
BRANCH   6  11
HETATM   11  C   UNL     1      24.442  46.103  49.896  1.00  0.00     0.038 A 
HETATM   12  C   UNL     1      24.196  44.755  50.173  1.00  0.00     0.062 A 
HETATM   13  C   UNL     1      25.258  43.849  50.242  1.00  0.00     0.070 A 
HETATM   14  C   UNL     1      26.568  44.276  50.031  1.00  0.00     0.096 A 
HETATM   15  N   UNL     1      24.991  42.501  50.486  1.00  0.00    -0.323 N 
HETATM   16  O   UNL     1      27.653  43.444  50.049  1.00  0.00    -0.335 OA
HETATM   17  C   UNL     1      26.817  45.613  49.736  1.00  0.00     0.041 A 
HETATM   18  C   UNL     1      27.419  42.153  50.608  1.00  0.00     0.217 C 
HETATM   19  C   UNL     1      25.994  41.579  50.597  1.00  0.00     0.251 C 
HETATM   20  C   UNL     1      27.939  42.158  52.044  1.00  0.00     0.050 C 
HETATM   21  O   UNL     1      25.749  40.385  50.754  1.00  0.00    -0.270 OA
HETATM   22  C   UNL     1      25.758  46.524  49.669  1.00  0.00     0.032 A 
HETATM   23  H   UNL     1      24.040  42.163  50.554  1.00  0.00     0.169 HD
ENDBRANCH   6  11
BRANCH   8  24
HETATM   24  C   UNL     1      19.582  48.127  47.987  1.00  0.00     0.003 A 
HETATM   25  C   UNL     1      19.075  47.134  47.139  1.00  0.00     0.124 A 
HETATM   26  F   UNL     1      19.762  46.748  46.054  1.00  0.00    -0.205 F 
HETATM   27  C   UNL     1      17.844  46.524  47.378  1.00  0.00     0.043 A 
HETATM   28  C   UNL     1      17.076  46.919  48.470  1.00  0.00     0.003 A 
HETATM   29  C   UNL     1      17.543  47.927  49.312  1.00  0.00     0.001 A 
HETATM   30  C   UNL     1      18.783  48.526  49.071  1.00  0.00     0.012 A 
ENDBRANCH   8  24
TORSDOF 2
ENDMDL
MODEL 6
REMARK VINA RESULT:      -8.5      3.372      5.514
REMARK  2 active torsions:
REMARK  status: ('A' for Active; 'I' for Inactive)
REMARK       I    between atoms: N_4  and  C_5 
REMARK       I    between atoms: C_5  and  N_6 
REMARK    1  A    between atoms: N_6  and  C_7 
REMARK    2  A    between atoms: C_20  and  C_21 
ROOT
HETATM    1  C   UNL     1      24.785  50.268  47.690  1.00  0.00     0.011 C 
HETATM    2  C   UNL     1      23.518  50.394  48.536  1.00  0.00     0.002 C 
HETATM    3  C   UNL     1      23.480  49.335  49.636  1.00  0.00     0.132 C 
HETATM    4  N   UNL     1      22.797  48.209  49.024  1.00  0.00    -0.325 N 
HETATM    5  C   UNL     1      23.139  46.872  49.120  1.00  0.00     0.323 C 
HETATM    6  N   UNL     1      23.968  46.583  50.181  1.00  0.00    -0.309 N 
HETATM    7  O   UNL     1      22.724  46.043  48.313  1.00  0.00    -0.247 OA
HETATM    8  C   UNL     1      21.861  48.665  48.002  1.00  0.00     0.125 C 
HETATM    9  C   UNL     1      22.256  50.125  47.704  1.00  0.00     0.036 C 
HETATM   10  H   UNL     1      23.908  47.229  50.951  1.00  0.00     0.170 HD
ENDROOT
BRANCH   6  11
HETATM   11  C   UNL     1      24.665  45.380  50.413  1.00  0.00     0.038 A 
HETATM   12  C   UNL     1      25.348  44.681  49.413  1.00  0.00     0.062 A 
HETATM   13  C   UNL     1      26.040  43.507  49.726  1.00  0.00     0.070 A 
HETATM   14  C   UNL     1      26.061  43.025  51.034  1.00  0.00     0.096 A 
HETATM   15  N   UNL     1      26.744  42.841  48.723  1.00  0.00    -0.323 N 
HETATM   16  O   UNL     1      26.742  41.905  51.422  1.00  0.00    -0.335 OA
HETATM   17  C   UNL     1      25.398  43.727  52.037  1.00  0.00     0.041 A 
HETATM   18  C   UNL     1      27.183  41.064  50.358  1.00  0.00     0.217 C 
HETATM   19  C   UNL     1      27.408  41.672  48.966  1.00  0.00     0.251 C 
HETATM   20  C   UNL     1      26.200  39.901  50.236  1.00  0.00     0.050 C 
HETATM   21  O   UNL     1      28.075  41.122  48.092  1.00  0.00    -0.270 OA
HETATM   22  C   UNL     1      24.703  44.900  51.728  1.00  0.00     0.032 A 
HETATM   23  H   UNL     1      26.810  43.226  47.789  1.00  0.00     0.169 HD
ENDBRANCH   6  11
BRANCH   8  24
HETATM   24  C   UNL     1      20.425  48.469  48.452  1.00  0.00     0.003 A 
HETATM   25  C   UNL     1      19.840  49.226  49.475  1.00  0.00     0.124 A 
HETATM   26  F   UNL     1      20.544  50.174  50.110  1.00  0.00    -0.205 F 
HETATM   27  C   UNL     1      18.521  49.018  49.879  1.00  0.00     0.043 A 
HETATM   28  C   UNL     1      17.762  48.020  49.276  1.00  0.00     0.003 A 
HETATM   29  C   UNL     1      18.330  47.231  48.277  1.00  0.00     0.001 A 
HETATM   30  C   UNL     1      19.649  47.452  47.871  1.00  0.00     0.012 A 
ENDBRANCH   8  24
TORSDOF 2
ENDMDL
MODEL 7
REMARK VINA RESULT:      -8.4     13.284     15.729
REMARK  2 active torsions:
REMARK  status: ('A' for Active; 'I' for Inactive)
REMARK       I    between atoms: N_4  and  C_5 
REMARK       I    between atoms: C_5  and  N_6 
REMARK    1  A    between atoms: N_6  and  C_7 
REMARK    2  A    between atoms: C_20  and  C_21 
ROOT
HETATM    1  C   UNL     1      39.765  50.943  41.056  1.00  0.00     0.011 C 
HETATM    2  C   UNL     1      39.867  50.894  42.580  1.00  0.00     0.002 C 
HETATM    3  C   UNL     1      38.522  50.543  43.214  1.00  0.00     0.132 C 
HETATM    4  N   UNL     1      37.884  51.829  43.432  1.00  0.00    -0.325 N 
HETATM    5  C   UNL     1      36.563  52.158  43.190  1.00  0.00     0.323 C 
HETATM    6  N   UNL     1      35.726  51.069  43.086  1.00  0.00    -0.309 N 
HETATM    7  O   UNL     1      36.202  53.328  43.080  1.00  0.00    -0.247 OA
HETATM    8  C   UNL     1      38.881  52.872  43.648  1.00  0.00     0.125 C 
HETATM    9  C   UNL     1      40.217  52.270  43.166  1.00  0.00     0.036 C 
HETATM   10  H   UNL     1      36.046  50.244  43.569  1.00  0.00     0.170 HD
ENDROOT
BRANCH   6  11
HETATM   11  C   UNL     1      34.394  51.060  42.625  1.00  0.00     0.038 A 
HETATM   12  C   UNL     1      34.011  50.533  41.389  1.00  0.00     0.062 A 
HETATM   13  C   UNL     1      32.665  50.535  41.012  1.00  0.00     0.070 A 
HETATM   14  C   UNL     1      31.693  51.055  41.864  1.00  0.00     0.096 A 
HETATM   15  N   UNL     1      32.297  49.975  39.789  1.00  0.00    -0.323 N 
HETATM   16  O   UNL     1      30.355  51.062  41.580  1.00  0.00    -0.335 OA
HETATM   17  C   UNL     1      32.065  51.564  43.106  1.00  0.00     0.041 A 
HETATM   18  C   UNL     1      30.022  50.791  40.221  1.00  0.00     0.217 C 
HETATM   19  C   UNL     1      31.000  49.982  39.356  1.00  0.00     0.251 C 
HETATM   20  C   UNL     1      29.737  52.123  39.529  1.00  0.00     0.050 C 
HETATM   21  O   UNL     1      30.675  49.434  38.305  1.00  0.00    -0.270 OA
HETATM   22  C   UNL     1      33.411  51.566  43.485  1.00  0.00     0.032 A 
HETATM   23  H   UNL     1      32.980  49.516  39.200  1.00  0.00     0.169 HD
ENDBRANCH   6  11
BRANCH   8  24
HETATM   24  C   UNL     1      38.875  53.342  45.091  1.00  0.00     0.003 A 
HETATM   25  C   UNL     1      38.360  54.585  45.482  1.00  0.00     0.124 A 
HETATM   26  F   UNL     1      37.842  55.425  44.574  1.00  0.00    -0.205 F 
HETATM   27  C   UNL     1      38.377  54.999  46.814  1.00  0.00     0.043 A 
HETATM   28  C   UNL     1      38.939  54.178  47.787  1.00  0.00     0.003 A 
HETATM   29  C   UNL     1      39.486  52.950  47.420  1.00  0.00     0.001 A 
HETATM   30  C   UNL     1      39.456  52.537  46.085  1.00  0.00     0.012 A 
ENDBRANCH   8  24
TORSDOF 2
ENDMDL
MODEL 8
REMARK VINA RESULT:      -8.4      2.609      4.820
REMARK  2 active torsions:
REMARK  status: ('A' for Active; 'I' for Inactive)
REMARK       I    between atoms: N_4  and  C_5 
REMARK       I    between atoms: C_5  and  N_6 
REMARK    1  A    between atoms: N_6  and  C_7 
REMARK    2  A    between atoms: C_20  and  C_21 
ROOT
HETATM    1  C   UNL     1      25.110  46.974  52.644  1.00  0.00     0.011 C 
HETATM    2  C   UNL     1      26.525  47.219  53.168  1.00  0.00     0.002 C 
HETATM    3  C   UNL     1      27.506  46.187  52.615  1.00  0.00     0.132 C 
HETATM    4  N   UNL     1      27.477  45.110  53.589  1.00  0.00    -0.325 N 
HETATM    5  C   UNL     1      27.440  43.752  53.332  1.00  0.00     0.323 C 
HETATM    6  N   UNL     1      27.836  43.414  52.057  1.00  0.00    -0.309 N 
HETATM    7  O   UNL     1      27.078  42.946  54.187  1.00  0.00    -0.247 OA
HETATM    8  C   UNL     1      27.164  45.624  54.918  1.00  0.00     0.125 C 
HETATM    9  C   UNL     1      26.602  47.041  54.690  1.00  0.00     0.036 C 
HETATM   10  H   UNL     1      28.455  44.077  51.618  1.00  0.00     0.170 HD
ENDROOT
BRANCH   6  11
HETATM   11  C   UNL     1      27.694  42.162  51.426  1.00  0.00     0.038 A 
HETATM   12  C   UNL     1      28.649  41.145  51.511  1.00  0.00     0.062 A 
HETATM   13  C   UNL     1      28.426  39.918  50.879  1.00  0.00     0.070 A 
HETATM   14  C   UNL     1      27.249  39.693  50.166  1.00  0.00     0.096 A 
HETATM   15  N   UNL     1      29.375  38.903  51.002  1.00  0.00    -0.323 N 
HETATM   16  O   UNL     1      26.945  38.510  49.551  1.00  0.00    -0.335 OA
HETATM   17  C   UNL     1      26.285  40.695  50.095  1.00  0.00     0.041 A 
HETATM   18  C   UNL     1      28.036  37.604  49.406  1.00  0.00     0.217 C 
HETATM   19  C   UNL     1      29.222  37.697  50.377  1.00  0.00     0.251 C 
HETATM   20  C   UNL     1      28.558  37.717  47.975  1.00  0.00     0.050 C 
HETATM   21  O   UNL     1      30.033  36.788  50.537  1.00  0.00    -0.270 OA
HETATM   22  C   UNL     1      26.507  41.925  50.722  1.00  0.00     0.032 A 
HETATM   23  H   UNL     1      30.191  39.022  51.588  1.00  0.00     0.169 HD
ENDBRANCH   6  11
BRANCH   8  24
HETATM   24  C   UNL     1      28.377  45.555  55.828  1.00  0.00     0.003 A 
HETATM   25  C   UNL     1      28.466  46.269  57.030  1.00  0.00     0.124 A 
HETATM   26  F   UNL     1      27.459  47.059  57.430  1.00  0.00    -0.205 F 
HETATM   27  C   UNL     1      29.598  46.199  57.843  1.00  0.00     0.043 A 
HETATM   28  C   UNL     1      30.684  45.423  57.451  1.00  0.00     0.003 A 
HETATM   29  C   UNL     1      30.634  44.726  56.244  1.00  0.00     0.001 A 
HETATM   30  C   UNL     1      29.492  44.794  55.440  1.00  0.00     0.012 A 
ENDBRANCH   8  24
TORSDOF 2
ENDMDL
MODEL 9
REMARK VINA RESULT:      -8.4      3.110      8.525
REMARK  2 active torsions:
REMARK  status: ('A' for Active; 'I' for Inactive)
REMARK       I    between atoms: N_4  and  C_5 
REMARK       I    between atoms: C_5  and  N_6 
REMARK    1  A    between atoms: N_6  and  C_7 
REMARK    2  A    between atoms: C_20  and  C_21 
ROOT
HETATM    1  C   UNL     1      27.594  42.986  54.062  1.00  0.00     0.011 C 
HETATM    2  C   UNL     1      28.327  42.376  52.867  1.00  0.00     0.002 C 
HETATM    3  C   UNL     1      28.400  43.360  51.702  1.00  0.00     0.132 C 
HETATM    4  N   UNL     1      27.199  43.091  50.931  1.00  0.00    -0.325 N 
HETATM    5  C   UNL     1      26.343  44.019  50.367  1.00  0.00     0.323 C 
HETATM    6  N   UNL     1      26.894  45.273  50.224  1.00  0.00    -0.309 N 
HETATM    7  O   UNL     1      25.197  43.719  50.037  1.00  0.00    -0.247 OA
HETATM    8  C   UNL     1      26.793  41.698  51.076  1.00  0.00     0.125 C 
HETATM    9  C   UNL     1      27.569  41.168  52.298  1.00  0.00     0.036 C 
HETATM   10  H   UNL     1      27.899  45.287  50.157  1.00  0.00     0.170 HD
ENDROOT
BRANCH   6  11
HETATM   11  C   UNL     1      26.219  46.468  49.902  1.00  0.00     0.038 A 
HETATM   12  C   UNL     1      24.829  46.606  49.960  1.00  0.00     0.062 A 
HETATM   13  C   UNL     1      24.232  47.832  49.651  1.00  0.00     0.070 A 
HETATM   14  C   UNL     1      25.014  48.928  49.289  1.00  0.00     0.096 A 
HETATM   15  N   UNL     1      22.847  47.961  49.747  1.00  0.00    -0.323 N 
HETATM   16  O   UNL     1      24.506  50.165  49.005  1.00  0.00    -0.335 OA
HETATM   17  C   UNL     1      26.400  48.802  49.248  1.00  0.00     0.041 A 
HETATM   18  C   UNL     1      23.098  50.209  48.792  1.00  0.00     0.217 C 
HETATM   19  C   UNL     1      22.210  49.126  49.423  1.00  0.00     0.251 C 
HETATM   20  C   UNL     1      22.848  50.236  47.285  1.00  0.00     0.050 C 
HETATM   21  O   UNL     1      20.995  49.251  49.566  1.00  0.00    -0.270 OA
HETATM   22  C   UNL     1      27.000  47.576  49.553  1.00  0.00     0.032 A 
HETATM   23  H   UNL     1      22.276  47.201  50.092  1.00  0.00     0.169 HD
ENDBRANCH   6  11
BRANCH   8  24
HETATM   24  C   UNL     1      27.022  40.927  49.789  1.00  0.00     0.003 A 
HETATM   25  C   UNL     1      25.977  40.528  48.946  1.00  0.00     0.124 A 
HETATM   26  F   UNL     1      24.704  40.820  49.253  1.00  0.00    -0.205 F 
HETATM   27  C   UNL     1      26.213  39.809  47.774  1.00  0.00     0.043 A 
HETATM   28  C   UNL     1      27.513  39.450  47.433  1.00  0.00     0.003 A 
HETATM   29  C   UNL     1      28.569  39.806  48.270  1.00  0.00     0.001 A 
HETATM   30  C   UNL     1      28.325  40.536  49.438  1.00  0.00     0.012 A 
ENDBRANCH   8  24
TORSDOF 2
ENDMDL
MODEL 10
REMARK VINA RESULT:      -8.2      1.505      3.562
REMARK  2 active torsions:
REMARK  status: ('A' for Active; 'I' for Inactive)
REMARK       I    between atoms: N_4  and  C_5 
REMARK       I    between atoms: C_5  and  N_6 
REMARK    1  A    between atoms: N_6  and  C_7 
REMARK    2  A    between atoms: C_20  and  C_21 
ROOT
HETATM    1  C   UNL     1      24.095  46.934  49.569  1.00  0.00     0.011 C 
HETATM    2  C   UNL     1      25.325  47.379  50.360  1.00  0.00     0.002 C 
HETATM    3  C   UNL     1      26.453  46.354  50.251  1.00  0.00     0.132 C 
HETATM    4  N   UNL     1      26.227  45.455  51.369  1.00  0.00    -0.325 N 
HETATM    5  C   UNL     1      26.310  44.074  51.360  1.00  0.00     0.323 C 
HETATM    6  N   UNL     1      27.022  43.564  50.298  1.00  0.00    -0.309 N 
HETATM    7  O   UNL     1      25.780  43.394  52.236  1.00  0.00    -0.247 OA
HETATM    8  C   UNL     1      25.575  46.154  52.471  1.00  0.00     0.125 C 
HETATM    9  C   UNL     1      25.030  47.462  51.864  1.00  0.00     0.036 C 
HETATM   10  H   UNL     1      27.703  44.194  49.905  1.00  0.00     0.170 HD
ENDROOT
BRANCH   6  11
HETATM   11  C   UNL     1      27.091  42.217  49.888  1.00  0.00     0.038 A 
HETATM   12  C   UNL     1      28.117  41.349  50.270  1.00  0.00     0.062 A 
HETATM   13  C   UNL     1      28.103  40.017  49.846  1.00  0.00     0.070 A 
HETATM   14  C   UNL     1      27.066  39.540  49.046  1.00  0.00     0.096 A 
HETATM   15  N   UNL     1      29.118  39.156  50.263  1.00  0.00    -0.323 N 
HETATM   16  O   UNL     1      26.966  38.245  48.620  1.00  0.00    -0.335 OA
HETATM   17  C   UNL     1      26.030  40.395  48.678  1.00  0.00     0.041 A 
HETATM   18  C   UNL     1      28.148  37.462  48.774  1.00  0.00     0.217 C 
HETATM   19  C   UNL     1      29.171  37.854  49.850  1.00  0.00     0.251 C 
HETATM   20  C   UNL     1      28.854  37.400  47.421  1.00  0.00     0.050 C 
HETATM   21  O   UNL     1      30.034  37.086  50.269  1.00  0.00    -0.270 OA
HETATM   22  C   UNL     1      26.043  41.729  49.098  1.00  0.00     0.032 A 
HETATM   23  H   UNL     1      29.828  39.465  50.914  1.00  0.00     0.169 HD
ENDBRANCH   6  11
BRANCH   8  24
HETATM   24  C   UNL     1      26.527  46.338  53.639  1.00  0.00     0.003 A 
HETATM   25  C   UNL     1      26.428  47.407  54.538  1.00  0.00     0.124 A 
HETATM   26  F   UNL     1      25.465  48.330  54.397  1.00  0.00    -0.205 F 
HETATM   27  C   UNL     1      27.323  47.561  55.596  1.00  0.00     0.043 A 
HETATM   28  C   UNL     1      28.362  46.650  55.762  1.00  0.00     0.003 A 
HETATM   29  C   UNL     1      28.503  45.594  54.862  1.00  0.00     0.001 A 
HETATM   30  C   UNL     1      27.595  45.441  53.810  1.00  0.00     0.012 A 
ENDBRANCH   8  24
TORSDOF 2
ENDMDL
