MODEL 1
REMARK VINA RESULT:      -9.7      0.000      0.000
REMARK  9 active torsions:
REMARK  status: ('A' for Active; 'I' for Inactive)
REMARK    1  A    between atoms: O_2  and  C_3 
REMARK    2  A    between atoms: C_4  and  O_5 
REMARK    3  A    between atoms: C_8  and  C_9 
REMARK    4  A    between atoms: C_9  and  N_10 
REMARK    5  A    between atoms: C_14  and  O_15 
REMARK    6  A    between atoms: C_14  and  C_16 
REMARK    7  A    between atoms: C_21  and  C_22 
REMARK       I    between atoms: C_22  and  N_23 
REMARK    8  A    between atoms: N_23  and  C_24 
REMARK    9  A    between atoms: C_24  and  C_25 
ROOT
HETATM    1  N   UNL     1      26.246  43.472  52.678  1.00  0.00    -0.067 N 
HETATM    2  H   UNL     1      26.475  42.470  52.692  1.00  0.00     0.280 HD
HETATM    3  C   UNL     1      24.844  43.591  52.124  1.00  0.00     0.238 C 
HETATM    4  C   UNL     1      24.815  43.134  50.673  1.00  0.00     0.071 C 
HETATM    5  C   UNL     1      25.775  43.957  49.793  1.00  0.00     0.088 C 
HETATM    6  C   UNL     1      27.181  43.717  50.381  1.00  0.00     0.071 C 
HETATM    7  C   UNL     1      27.280  44.173  51.826  1.00  0.00     0.238 C 
ENDROOT
BRANCH   5   8
HETATM    8  O   UNL     1      25.766  43.356  48.498  1.00  0.00    -0.385 OA
HETATM    9  H   UNL     1      25.366  43.969  47.853  1.00  0.00     0.211 HD
ENDBRANCH   5   8
BRANCH   5  10
HETATM   10  C   UNL     1      25.387  45.436  49.640  1.00  0.00    -0.023 A 
HETATM   11  C   UNL     1      24.055  45.811  49.341  1.00  0.00     0.024 A 
HETATM   12  C   UNL     1      23.691  47.170  49.308  1.00  0.00     0.001 A 
HETATM   13  C   UNL     1      24.673  48.125  49.511  1.00  0.00     0.086 A 
HETATM   14  C   UNL     1      22.486  47.890  49.113  1.00  0.00     0.057 A 
HETATM   15  O   UNL     1      24.138  49.374  49.483  1.00  0.00    -0.304 OA
HETATM   16  C   UNL     1      26.014  47.821  49.712  1.00  0.00     0.039 A 
HETATM   17  C   UNL     1      22.793  49.232  49.252  1.00  0.00     0.144 A 
HETATM   18  C   UNL     1      26.350  46.460  49.761  1.00  0.00     0.013 A 
BRANCH  17  19
HETATM   19  C   UNL     1      21.941  50.402  49.219  1.00  0.00     0.275 C 
HETATM   20  N   UNL     1      20.847  50.320  50.046  1.00  0.00    -0.353 N 
HETATM   21  H   UNL     1      20.686  49.444  50.533  1.00  0.00     0.162 HD
HETATM   22  O   UNL     1      22.154  51.364  48.488  1.00  0.00    -0.265 OA
BRANCH  20  23
HETATM   23  C   UNL     1      19.775  51.296  50.058  1.00  0.00     0.155 C 
BRANCH  23  24
HETATM   24  C   UNL     1      18.636  50.951  49.084  1.00  0.00     0.139 C 
HETATM   25  O   UNL     1      18.683  49.539  48.775  1.00  0.00    -0.384 OA
HETATM   26  C   UNL     1      18.589  49.391  47.354  1.00  0.00     0.168 C 
HETATM   27  C   UNL     1      19.144  50.668  46.768  1.00  0.00     0.029 C 
HETATM   28  C   UNL     1      18.665  51.702  47.758  1.00  0.00     0.035 C 
ENDBRANCH  23  24
ENDBRANCH  20  23
ENDBRANCH  17  19
ENDBRANCH   5  10
BRANCH   1  29
HETATM   29  C   UNL     1      26.355  43.951  54.120  1.00  0.00     0.273 C 
BRANCH  29  30
HETATM   30  C   UNL     1      27.756  43.955  54.669  1.00  0.00    -0.030 A 
HETATM   31  C   UNL     1      28.238  45.040  55.423  1.00  0.00     0.048 A 
HETATM   32  C   UNL     1      29.566  45.078  55.886  1.00  0.00     0.102 A 
HETATM   33  C   UNL     1      30.418  43.997  55.596  1.00  0.00     0.101 A 
HETATM   34  C   UNL     1      29.927  42.915  54.853  1.00  0.00     0.040 A 
HETATM   35  C   UNL     1      28.613  42.887  54.393  1.00  0.00     0.012 A 
BRANCH  32  36
HETATM   36  O   UNL     1      30.077  46.129  56.593  1.00  0.00    -0.353 OA
HETATM   37  C   UNL     1      30.003  46.116  58.012  1.00  0.00     0.210 C 
ENDBRANCH  32  36
BRANCH  33  38
HETATM   38  O   UNL     1      31.735  43.827  55.927  1.00  0.00    -0.353 OA
HETATM   39  C   UNL     1      32.069  43.219  57.165  1.00  0.00     0.210 C 
ENDBRANCH  33  38
ENDBRANCH  29  30
ENDBRANCH   1  29
TORSDOF 9
ENDMDL
MODEL 2
REMARK VINA RESULT:      -9.0      1.523      2.420
REMARK  9 active torsions:
REMARK  status: ('A' for Active; 'I' for Inactive)
REMARK    1  A    between atoms: O_2  and  C_3 
REMARK    2  A    between atoms: C_4  and  O_5 
REMARK    3  A    between atoms: C_8  and  C_9 
REMARK    4  A    between atoms: C_9  and  N_10 
REMARK    5  A    between atoms: C_14  and  O_15 
REMARK    6  A    between atoms: C_14  and  C_16 
REMARK    7  A    between atoms: C_21  and  C_22 
REMARK       I    between atoms: C_22  and  N_23 
REMARK    8  A    between atoms: N_23  and  C_24 
REMARK    9  A    between atoms: C_24  and  C_25 
ROOT
HETATM    1  N   UNL     1      26.706  42.350  52.373  1.00  0.00    -0.067 N 
HETATM    2  H   UNL     1      26.864  41.339  52.285  1.00  0.00     0.280 HD
HETATM    3  C   UNL     1      25.293  42.612  51.900  1.00  0.00     0.238 C 
HETATM    4  C   UNL     1      25.171  42.295  50.417  1.00  0.00     0.071 C 
HETATM    5  C   UNL     1      26.148  43.131  49.569  1.00  0.00     0.088 C 
HETATM    6  C   UNL     1      27.558  42.746  50.064  1.00  0.00     0.071 C 
HETATM    7  C   UNL     1      27.749  43.057  51.538  1.00  0.00     0.238 C 
ENDROOT
BRANCH   5   8
HETATM    8  O   UNL     1      26.042  42.655  48.227  1.00  0.00    -0.385 OA
HETATM    9  H   UNL     1      26.315  43.356  47.606  1.00  0.00     0.211 HD
ENDBRANCH   5   8
BRANCH   5  10
HETATM   10  C   UNL     1      25.858  44.640  49.568  1.00  0.00    -0.023 A 
HETATM   11  C   UNL     1      24.564  45.132  49.274  1.00  0.00     0.024 A 
HETATM   12  C   UNL     1      24.286  46.508  49.380  1.00  0.00     0.001 A 
HETATM   13  C   UNL     1      25.318  47.369  49.716  1.00  0.00     0.086 A 
HETATM   14  C   UNL     1      23.136  47.322  49.230  1.00  0.00     0.057 A 
HETATM   15  O   UNL     1      24.862  48.646  49.810  1.00  0.00    -0.304 OA
HETATM   16  C   UNL     1      26.628  46.958  49.921  1.00  0.00     0.039 A 
HETATM   17  C   UNL     1      23.521  48.618  49.525  1.00  0.00     0.144 A 
HETATM   18  C   UNL     1      26.877  45.580  49.830  1.00  0.00     0.013 A 
BRANCH  17  19
HETATM   19  C   UNL     1      22.744  49.838  49.596  1.00  0.00     0.275 C 
HETATM   20  N   UNL     1      21.437  49.647  49.973  1.00  0.00    -0.353 N 
HETATM   21  H   UNL     1      21.111  48.694  50.086  1.00  0.00     0.162 HD
HETATM   22  O   UNL     1      23.201  50.939  49.307  1.00  0.00    -0.265 OA
BRANCH  20  23
HETATM   23  C   UNL     1      20.436  50.696  49.955  1.00  0.00     0.155 C 
BRANCH  23  24
HETATM   24  C   UNL     1      19.029  50.193  50.316  1.00  0.00     0.139 C 
HETATM   25  O   UNL     1      19.045  48.750  50.401  1.00  0.00    -0.384 OA
HETATM   26  C   UNL     1      17.936  48.247  49.647  1.00  0.00     0.168 C 
HETATM   27  C   UNL     1      17.649  49.288  48.591  1.00  0.00     0.029 C 
HETATM   28  C   UNL     1      17.929  50.573  49.331  1.00  0.00     0.035 C 
ENDBRANCH  23  24
ENDBRANCH  20  23
ENDBRANCH  17  19
ENDBRANCH   5  10
BRANCH   1  29
HETATM   29  C   UNL     1      26.909  42.684  53.845  1.00  0.00     0.273 C 
BRANCH  29  30
HETATM   30  C   UNL     1      27.140  44.145  54.123  1.00  0.00    -0.030 A 
HETATM   31  C   UNL     1      28.336  44.592  54.712  1.00  0.00     0.048 A 
HETATM   32  C   UNL     1      28.534  45.948  55.030  1.00  0.00     0.102 A 
HETATM   33  C   UNL     1      27.512  46.871  54.739  1.00  0.00     0.101 A 
HETATM   34  C   UNL     1      26.328  46.419  54.143  1.00  0.00     0.040 A 
HETATM   35  C   UNL     1      26.138  45.074  53.835  1.00  0.00     0.012 A 
BRANCH  32  36
HETATM   36  O   UNL     1      29.669  46.414  55.632  1.00  0.00    -0.353 OA
HETATM   37  C   UNL     1      30.112  45.814  56.841  1.00  0.00     0.210 C 
ENDBRANCH  32  36
BRANCH  33  38
HETATM   38  O   UNL     1      27.479  48.219  54.971  1.00  0.00    -0.353 OA
HETATM   39  C   UNL     1      26.467  48.758  55.807  1.00  0.00     0.210 C 
ENDBRANCH  33  38
ENDBRANCH  29  30
ENDBRANCH   1  29
TORSDOF 9
ENDMDL
MODEL 3
REMARK VINA RESULT:      -9.0      2.215     12.035
REMARK  9 active torsions:
REMARK  status: ('A' for Active; 'I' for Inactive)
REMARK    1  A    between atoms: O_2  and  C_3 
REMARK    2  A    between atoms: C_4  and  O_5 
REMARK    3  A    between atoms: C_8  and  C_9 
REMARK    4  A    between atoms: C_9  and  N_10 
REMARK    5  A    between atoms: C_14  and  O_15 
REMARK    6  A    between atoms: C_14  and  C_16 
REMARK    7  A    between atoms: C_21  and  C_22 
REMARK       I    between atoms: C_22  and  N_23 
REMARK    8  A    between atoms: N_23  and  C_24 
REMARK    9  A    between atoms: C_24  and  C_25 
ROOT
HETATM    1  N   UNL     1      20.681  50.675  49.324  1.00  0.00    -0.067 N 
HETATM    2  H   UNL     1      20.513  51.584  48.873  1.00  0.00     0.280 HD
HETATM    3  C   UNL     1      21.964  50.813  50.114  1.00  0.00     0.238 C 
HETATM    4  C   UNL     1      23.137  51.038  49.171  1.00  0.00     0.071 C 
HETATM    5  C   UNL     1      23.290  49.886  48.160  1.00  0.00     0.088 C 
HETATM    6  C   UNL     1      21.975  49.869  47.352  1.00  0.00     0.071 C 
HETATM    7  C   UNL     1      20.766  49.627  48.238  1.00  0.00     0.238 C 
ENDROOT
BRANCH   5   8
HETATM    8  O   UNL     1      24.323  50.268  47.251  1.00  0.00    -0.385 OA
HETATM    9  H   UNL     1      25.098  50.588  47.749  1.00  0.00     0.211 HD
ENDBRANCH   5   8
BRANCH   5  10
HETATM   10  C   UNL     1      23.676  48.537  48.787  1.00  0.00    -0.023 A 
HETATM   11  C   UNL     1      24.821  48.419  49.610  1.00  0.00     0.024 A 
HETATM   12  C   UNL     1      25.104  47.204  50.263  1.00  0.00     0.001 A 
HETATM   13  C   UNL     1      24.276  46.119  50.032  1.00  0.00     0.086 A 
HETATM   14  C   UNL     1      26.089  46.753  51.177  1.00  0.00     0.057 A 
HETATM   15  O   UNL     1      24.674  45.049  50.770  1.00  0.00    -0.304 OA
HETATM   16  C   UNL     1      23.194  46.146  49.162  1.00  0.00     0.039 A 
HETATM   17  C   UNL     1      25.779  45.440  51.483  1.00  0.00     0.144 A 
HETATM   18  C   UNL     1      22.919  47.373  48.538  1.00  0.00     0.013 A 
BRANCH  17  19
HETATM   19  C   UNL     1      26.402  44.516  52.408  1.00  0.00     0.275 C 
HETATM   20  N   UNL     1      27.020  45.124  53.474  1.00  0.00    -0.353 N 
HETATM   21  H   UNL     1      27.061  46.137  53.483  1.00  0.00     0.162 HD
HETATM   22  O   UNL     1      26.412  43.302  52.235  1.00  0.00    -0.265 OA
BRANCH  20  23
HETATM   23  C   UNL     1      27.844  44.415  54.434  1.00  0.00     0.155 C 
BRANCH  23  24
HETATM   24  C   UNL     1      29.076  45.219  54.881  1.00  0.00     0.139 C 
HETATM   25  O   UNL     1      29.951  44.364  55.651  1.00  0.00    -0.384 OA
HETATM   26  C   UNL     1      30.312  45.061  56.849  1.00  0.00     0.168 C 
HETATM   27  C   UNL     1      29.178  46.019  57.128  1.00  0.00     0.029 C 
HETATM   28  C   UNL     1      28.777  46.445  55.737  1.00  0.00     0.035 C 
ENDBRANCH  23  24
ENDBRANCH  20  23
ENDBRANCH  17  19
ENDBRANCH   5  10
BRANCH   1  29
HETATM   29  C   UNL     1      19.469  50.409  50.206  1.00  0.00     0.273 C 
BRANCH  29  30
HETATM   30  C   UNL     1      18.190  51.025  49.706  1.00  0.00    -0.030 A 
HETATM   31  C   UNL     1      17.288  50.289  48.919  1.00  0.00     0.048 A 
HETATM   32  C   UNL     1      16.121  50.877  48.397  1.00  0.00     0.102 A 
HETATM   33  C   UNL     1      15.853  52.228  48.685  1.00  0.00     0.101 A 
HETATM   34  C   UNL     1      16.752  52.952  49.480  1.00  0.00     0.040 A 
HETATM   35  C   UNL     1      17.907  52.364  49.988  1.00  0.00     0.012 A 
BRANCH  32  36
HETATM   36  O   UNL     1      15.238  50.202  47.602  1.00  0.00    -0.353 OA
HETATM   37  C   UNL     1      15.444  50.180  46.197  1.00  0.00     0.210 C 
ENDBRANCH  32  36
BRANCH  33  38
HETATM   38  O   UNL     1      14.801  53.002  48.279  1.00  0.00    -0.353 OA
HETATM   39  C   UNL     1      14.497  54.194  48.987  1.00  0.00     0.210 C 
ENDBRANCH  33  38
ENDBRANCH  29  30
ENDBRANCH   1  29
TORSDOF 9
ENDMDL
MODEL 4
REMARK VINA RESULT:      -8.9      2.274     11.593
REMARK  9 active torsions:
REMARK  status: ('A' for Active; 'I' for Inactive)
REMARK    1  A    between atoms: O_2  and  C_3 
REMARK    2  A    between atoms: C_4  and  O_5 
REMARK    3  A    between atoms: C_8  and  C_9 
REMARK    4  A    between atoms: C_9  and  N_10 
REMARK    5  A    between atoms: C_14  and  O_15 
REMARK    6  A    between atoms: C_14  and  C_16 
REMARK    7  A    between atoms: C_21  and  C_22 
REMARK       I    between atoms: C_22  and  N_23 
REMARK    8  A    between atoms: N_23  and  C_24 
REMARK    9  A    between atoms: C_24  and  C_25 
ROOT
HETATM    1  N   UNL     1      20.530  50.593  49.332  1.00  0.00    -0.067 N 
HETATM    2  H   UNL     1      20.355  51.472  48.828  1.00  0.00     0.280 HD
HETATM    3  C   UNL     1      21.819  50.781  50.100  1.00  0.00     0.238 C 
HETATM    4  C   UNL     1      22.983  50.950  49.135  1.00  0.00     0.071 C 
HETATM    5  C   UNL     1      23.130  49.739  48.194  1.00  0.00     0.088 C 
HETATM    6  C   UNL     1      21.808  49.670  47.401  1.00  0.00     0.071 C 
HETATM    7  C   UNL     1      20.607  49.481  48.311  1.00  0.00     0.238 C 
ENDROOT
BRANCH   5   8
HETATM    8  O   UNL     1      24.153  50.067  47.254  1.00  0.00    -0.385 OA
HETATM    9  H   UNL     1      24.667  49.267  47.034  1.00  0.00     0.211 HD
ENDBRANCH   5   8
BRANCH   5  10
HETATM   10  C   UNL     1      23.525  48.432  48.899  1.00  0.00    -0.023 A 
HETATM   11  C   UNL     1      24.404  48.441  50.008  1.00  0.00     0.024 A 
HETATM   12  C   UNL     1      24.674  47.250  50.709  1.00  0.00     0.001 A 
HETATM   13  C   UNL     1      24.112  46.070  50.253  1.00  0.00     0.086 A 
HETATM   14  C   UNL     1      25.424  46.902  51.861  1.00  0.00     0.057 A 
HETATM   15  O   UNL     1      24.447  45.035  51.069  1.00  0.00    -0.304 OA
HETATM   16  C   UNL     1      23.321  45.982  49.115  1.00  0.00     0.039 A 
HETATM   17  C   UNL     1      25.242  45.546  52.063  1.00  0.00     0.144 A 
HETATM   18  C   UNL     1      23.049  47.184  48.444  1.00  0.00     0.013 A 
BRANCH  17  19
HETATM   19  C   UNL     1      25.717  44.679  53.121  1.00  0.00     0.275 C 
HETATM   20  N   UNL     1      27.085  44.629  53.231  1.00  0.00    -0.353 N 
HETATM   21  H   UNL     1      27.635  45.120  52.534  1.00  0.00     0.162 HD
HETATM   22  O   UNL     1      24.966  44.018  53.831  1.00  0.00    -0.265 OA
BRANCH  20  23
HETATM   23  C   UNL     1      27.787  43.709  54.105  1.00  0.00     0.155 C 
BRANCH  23  24
HETATM   24  C   UNL     1      29.284  44.030  54.241  1.00  0.00     0.139 C 
HETATM   25  O   UNL     1      29.976  42.870  54.758  1.00  0.00    -0.384 OA
HETATM   26  C   UNL     1      30.815  43.296  55.836  1.00  0.00     0.168 C 
HETATM   27  C   UNL     1      30.163  44.536  56.402  1.00  0.00     0.029 C 
HETATM   28  C   UNL     1      29.618  45.199  55.162  1.00  0.00     0.035 C 
ENDBRANCH  23  24
ENDBRANCH  20  23
ENDBRANCH  17  19
ENDBRANCH   5  10
BRANCH   1  29
HETATM   29  C   UNL     1      19.326  50.379  50.240  1.00  0.00     0.273 C 
BRANCH  29  30
HETATM   30  C   UNL     1      18.141  49.748  49.561  1.00  0.00    -0.030 A 
HETATM   31  C   UNL     1      18.010  48.351  49.477  1.00  0.00     0.048 A 
HETATM   32  C   UNL     1      16.936  47.755  48.790  1.00  0.00     0.102 A 
HETATM   33  C   UNL     1      15.971  48.583  48.189  1.00  0.00     0.101 A 
HETATM   34  C   UNL     1      16.102  49.974  48.286  1.00  0.00     0.040 A 
HETATM   35  C   UNL     1      17.171  50.556  48.963  1.00  0.00     0.012 A 
BRANCH  32  36
HETATM   36  O   UNL     1      16.794  46.402  48.661  1.00  0.00    -0.353 OA
HETATM   37  C   UNL     1      17.597  45.705  47.719  1.00  0.00     0.210 C 
ENDBRANCH  32  36
BRANCH  33  38
HETATM   38  O   UNL     1      14.863  48.229  47.467  1.00  0.00    -0.353 OA
HETATM   39  C   UNL     1      14.535  48.955  46.292  1.00  0.00     0.210 C 
ENDBRANCH  33  38
ENDBRANCH  29  30
ENDBRANCH   1  29
TORSDOF 9
ENDMDL
MODEL 5
REMARK VINA RESULT:      -8.9      4.330     10.578
REMARK  9 active torsions:
REMARK  status: ('A' for Active; 'I' for Inactive)
REMARK    1  A    between atoms: O_2  and  C_3 
REMARK    2  A    between atoms: C_4  and  O_5 
REMARK    3  A    between atoms: C_8  and  C_9 
REMARK    4  A    between atoms: C_9  and  N_10 
REMARK    5  A    between atoms: C_14  and  O_15 
REMARK    6  A    between atoms: C_14  and  C_16 
REMARK    7  A    between atoms: C_21  and  C_22 
REMARK       I    between atoms: C_22  and  N_23 
REMARK    8  A    between atoms: N_23  and  C_24 
REMARK    9  A    between atoms: C_24  and  C_25 
ROOT
HETATM    1  N   UNL     1      16.709  50.054  46.380  1.00  0.00    -0.067 N 
HETATM    2  H   UNL     1      15.785  50.459  46.186  1.00  0.00     0.280 HD
HETATM    3  C   UNL     1      16.748  49.750  47.862  1.00  0.00     0.238 C 
HETATM    4  C   UNL     1      16.680  51.042  48.663  1.00  0.00     0.071 C 
HETATM    5  C   UNL     1      17.839  51.995  48.314  1.00  0.00     0.088 C 
HETATM    6  C   UNL     1      17.678  52.310  46.813  1.00  0.00     0.071 C 
HETATM    7  C   UNL     1      17.756  51.058  45.957  1.00  0.00     0.238 C 
ENDROOT
BRANCH   5   8
HETATM    8  O   UNL     1      17.597  53.214  49.016  1.00  0.00    -0.385 OA
HETATM    9  H   UNL     1      18.305  53.855  48.817  1.00  0.00     0.211 HD
ENDBRANCH   5   8
BRANCH   5  10
HETATM   10  C   UNL     1      19.229  51.477  48.716  1.00  0.00    -0.023 A 
HETATM   11  C   UNL     1      20.174  51.092  47.734  1.00  0.00     0.024 A 
HETATM   12  C   UNL     1      21.478  50.720  48.112  1.00  0.00     0.001 A 
HETATM   13  C   UNL     1      21.792  50.680  49.460  1.00  0.00     0.086 A 
HETATM   14  C   UNL     1      22.662  50.350  47.427  1.00  0.00     0.057 A 
HETATM   15  O   UNL     1      23.097  50.340  49.636  1.00  0.00    -0.304 OA
HETATM   16  C   UNL     1      20.881  50.952  50.472  1.00  0.00     0.039 A 
HETATM   17  C   UNL     1      23.636  50.150  48.389  1.00  0.00     0.144 A 
HETATM   18  C   UNL     1      19.593  51.340  50.072  1.00  0.00     0.013 A 
BRANCH  17  19
HETATM   19  C   UNL     1      25.041  49.825  48.254  1.00  0.00     0.275 C 
HETATM   20  N   UNL     1      25.467  48.830  49.099  1.00  0.00    -0.353 N 
HETATM   21  H   UNL     1      24.808  48.473  49.782  1.00  0.00     0.162 HD
HETATM   22  O   UNL     1      25.792  50.414  47.484  1.00  0.00    -0.265 OA
BRANCH  20  23
HETATM   23  C   UNL     1      26.859  48.453  49.257  1.00  0.00     0.155 C 
BRANCH  23  24
HETATM   24  C   UNL     1      27.049  47.197  50.123  1.00  0.00     0.139 C 
HETATM   25  O   UNL     1      27.393  46.078  49.274  1.00  0.00    -0.384 OA
HETATM   26  C   UNL     1      26.557  44.973  49.634  1.00  0.00     0.168 C 
HETATM   27  C   UNL     1      25.297  45.578  50.207  1.00  0.00     0.029 C 
HETATM   28  C   UNL     1      25.832  46.782  50.942  1.00  0.00     0.035 C 
ENDBRANCH  23  24
ENDBRANCH  20  23
ENDBRANCH  17  19
ENDBRANCH   5  10
BRANCH   1  29
HETATM   29  C   UNL     1      16.812  48.803  45.517  1.00  0.00     0.273 C 
BRANCH  29  30
HETATM   30  C   UNL     1      17.707  47.733  46.081  1.00  0.00    -0.030 A 
HETATM   31  C   UNL     1      19.101  47.907  46.139  1.00  0.00     0.048 A 
HETATM   32  C   UNL     1      19.948  46.886  46.608  1.00  0.00     0.102 A 
HETATM   33  C   UNL     1      19.379  45.674  47.038  1.00  0.00     0.101 A 
HETATM   34  C   UNL     1      17.988  45.512  46.988  1.00  0.00     0.040 A 
HETATM   35  C   UNL     1      17.156  46.525  46.517  1.00  0.00     0.012 A 
BRANCH  32  36
HETATM   36  O   UNL     1      21.309  47.008  46.648  1.00  0.00    -0.353 OA
HETATM   37  C   UNL     1      21.972  46.994  47.905  1.00  0.00     0.210 C 
ENDBRANCH  32  36
BRANCH  33  38
HETATM   38  O   UNL     1      20.001  44.551  47.513  1.00  0.00    -0.353 OA
HETATM   39  C   UNL     1      20.586  43.638  46.599  1.00  0.00     0.210 C 
ENDBRANCH  33  38
ENDBRANCH  29  30
ENDBRANCH   1  29
TORSDOF 9
ENDMDL
MODEL 6
REMARK VINA RESULT:      -8.6      4.337      7.153
REMARK  9 active torsions:
REMARK  status: ('A' for Active; 'I' for Inactive)
REMARK    1  A    between atoms: O_2  and  C_3 
REMARK    2  A    between atoms: C_4  and  O_5 
REMARK    3  A    between atoms: C_8  and  C_9 
REMARK    4  A    between atoms: C_9  and  N_10 
REMARK    5  A    between atoms: C_14  and  O_15 
REMARK    6  A    between atoms: C_14  and  C_16 
REMARK    7  A    between atoms: C_21  and  C_22 
REMARK       I    between atoms: C_22  and  N_23 
REMARK    8  A    between atoms: N_23  and  C_24 
REMARK    9  A    between atoms: C_24  and  C_25 
ROOT
HETATM    1  N   UNL     1      27.013  44.696  51.789  1.00  0.00    -0.067 N 
HETATM    2  H   UNL     1      27.546  45.482  52.182  1.00  0.00     0.280 HD
HETATM    3  C   UNL     1      27.238  44.722  50.293  1.00  0.00     0.238 C 
HETATM    4  C   UNL     1      26.629  45.982  49.696  1.00  0.00     0.071 C 
HETATM    5  C   UNL     1      25.118  46.079  49.979  1.00  0.00     0.088 C 
HETATM    6  C   UNL     1      24.988  46.123  51.516  1.00  0.00     0.071 C 
HETATM    7  C   UNL     1      25.563  44.880  52.172  1.00  0.00     0.238 C 
ENDROOT
BRANCH   5   8
HETATM    8  O   UNL     1      24.688  47.352  49.496  1.00  0.00    -0.385 OA
HETATM    9  H   UNL     1      24.160  47.236  48.685  1.00  0.00     0.211 HD
ENDBRANCH   5   8
BRANCH   5  10
HETATM   10  C   UNL     1      24.272  44.994  49.294  1.00  0.00    -0.023 A 
HETATM   11  C   UNL     1      24.864  43.795  48.832  1.00  0.00     0.024 A 
HETATM   12  C   UNL     1      24.062  42.766  48.302  1.00  0.00     0.001 A 
HETATM   13  C   UNL     1      22.699  42.980  48.188  1.00  0.00     0.086 A 
HETATM   14  C   UNL     1      24.290  41.453  47.818  1.00  0.00     0.057 A 
HETATM   15  O   UNL     1      22.082  41.873  47.696  1.00  0.00    -0.304 OA
HETATM   16  C   UNL     1      22.074  44.171  48.534  1.00  0.00     0.039 A 
HETATM   17  C   UNL     1      23.055  40.930  47.481  1.00  0.00     0.144 A 
HETATM   18  C   UNL     1      22.890  45.174  49.079  1.00  0.00     0.013 A 
BRANCH  17  19
HETATM   19  C   UNL     1      22.688  39.614  47.001  1.00  0.00     0.275 C 
HETATM   20  N   UNL     1      21.444  39.198  47.408  1.00  0.00    -0.353 N 
HETATM   21  H   UNL     1      20.935  39.789  48.057  1.00  0.00     0.162 HD
HETATM   22  O   UNL     1      23.437  38.916  46.326  1.00  0.00    -0.265 OA
BRANCH  20  23
HETATM   23  C   UNL     1      20.935  37.858  47.188  1.00  0.00     0.155 C 
BRANCH  23  24
HETATM   24  C   UNL     1      19.401  37.776  47.266  1.00  0.00     0.139 C 
HETATM   25  O   UNL     1      18.925  38.694  48.276  1.00  0.00    -0.384 OA
HETATM   26  C   UNL     1      18.000  37.993  49.114  1.00  0.00     0.168 C 
HETATM   27  C   UNL     1      18.402  36.538  49.046  1.00  0.00     0.029 C 
HETATM   28  C   UNL     1      18.840  36.401  47.609  1.00  0.00     0.035 C 
ENDBRANCH  23  24
ENDBRANCH  20  23
ENDBRANCH  17  19
ENDBRANCH   5  10
BRANCH   1  29
HETATM   29  C   UNL     1      27.567  43.439  52.448  1.00  0.00     0.273 C 
BRANCH  29  30
HETATM   30  C   UNL     1      28.509  43.702  53.591  1.00  0.00    -0.030 A 
HETATM   31  C   UNL     1      28.313  44.791  54.459  1.00  0.00     0.048 A 
HETATM   32  C   UNL     1      29.224  45.078  55.493  1.00  0.00     0.102 A 
HETATM   33  C   UNL     1      30.344  44.244  55.662  1.00  0.00     0.101 A 
HETATM   34  C   UNL     1      30.526  43.153  54.800  1.00  0.00     0.040 A 
HETATM   35  C   UNL     1      29.623  42.880  53.777  1.00  0.00     0.012 A 
BRANCH  32  36
HETATM   36  O   UNL     1      29.084  46.145  56.333  1.00  0.00    -0.353 OA
HETATM   37  C   UNL     1      27.948  46.989  56.203  1.00  0.00     0.210 C 
ENDBRANCH  32  36
BRANCH  33  38
HETATM   38  O   UNL     1      31.356  44.338  56.578  1.00  0.00    -0.353 OA
HETATM   39  C   UNL     1      31.873  43.156  57.171  1.00  0.00     0.210 C 
ENDBRANCH  33  38
ENDBRANCH  29  30
ENDBRANCH   1  29
TORSDOF 9
ENDMDL
MODEL 7
REMARK VINA RESULT:      -8.5      2.714     12.250
REMARK  9 active torsions:
REMARK  status: ('A' for Active; 'I' for Inactive)
REMARK    1  A    between atoms: O_2  and  C_3 
REMARK    2  A    between atoms: C_4  and  O_5 
REMARK    3  A    between atoms: C_8  and  C_9 
REMARK    4  A    between atoms: C_9  and  N_10 
REMARK    5  A    between atoms: C_14  and  O_15 
REMARK    6  A    between atoms: C_14  and  C_16 
REMARK    7  A    between atoms: C_21  and  C_22 
REMARK       I    between atoms: C_22  and  N_23 
REMARK    8  A    between atoms: N_23  and  C_24 
REMARK    9  A    between atoms: C_24  and  C_25 
ROOT
HETATM    1  N   UNL     1      19.850  50.894  49.076  1.00  0.00    -0.067 N 
HETATM    2  H   UNL     1      19.781  51.887  48.819  1.00  0.00     0.280 HD
HETATM    3  C   UNL     1      21.038  50.766  50.004  1.00  0.00     0.238 C 
HETATM    4  C   UNL     1      22.322  51.096  49.257  1.00  0.00     0.071 C 
HETATM    5  C   UNL     1      22.532  50.174  48.041  1.00  0.00     0.088 C 
HETATM    6  C   UNL     1      21.321  50.425  47.119  1.00  0.00     0.071 C 
HETATM    7  C   UNL     1      20.006  50.094  47.803  1.00  0.00     0.238 C 
ENDROOT
BRANCH   5   8
HETATM    8  O   UNL     1      23.681  50.661  47.347  1.00  0.00    -0.385 OA
HETATM    9  H   UNL     1      23.504  51.556  47.003  1.00  0.00     0.211 HD
ENDBRANCH   5   8
BRANCH   5  10
HETATM   10  C   UNL     1      22.774  48.699  48.396  1.00  0.00    -0.023 A 
HETATM   11  C   UNL     1      23.857  48.319  49.225  1.00  0.00     0.024 A 
HETATM   12  C   UNL     1      24.005  46.978  49.628  1.00  0.00     0.001 A 
HETATM   13  C   UNL     1      23.108  46.038  49.148  1.00  0.00     0.086 A 
HETATM   14  C   UNL     1      24.895  46.268  50.472  1.00  0.00     0.057 A 
HETATM   15  O   UNL     1      23.378  44.812  49.669  1.00  0.00    -0.304 OA
HETATM   16  C   UNL     1      22.085  46.333  48.257  1.00  0.00     0.039 A 
HETATM   17  C   UNL     1      24.466  44.953  50.492  1.00  0.00     0.144 A 
HETATM   18  C   UNL     1      21.944  47.679  47.884  1.00  0.00     0.013 A 
BRANCH  17  19
HETATM   19  C   UNL     1      24.959  43.812  51.235  1.00  0.00     0.275 C 
HETATM   20  N   UNL     1      26.301  43.871  51.523  1.00  0.00    -0.353 N 
HETATM   21  H   UNL     1      26.836  44.640  51.134  1.00  0.00     0.162 HD
HETATM   22  O   UNL     1      24.252  42.860  51.545  1.00  0.00    -0.265 OA
BRANCH  20  23
HETATM   23  C   UNL     1      27.044  42.773  52.111  1.00  0.00     0.155 C 
BRANCH  23  24
HETATM   24  C   UNL     1      27.406  43.012  53.586  1.00  0.00     0.139 C 
HETATM   25  O   UNL     1      27.651  44.421  53.795  1.00  0.00    -0.384 OA
HETATM   26  C   UNL     1      28.881  44.557  54.516  1.00  0.00     0.168 C 
HETATM   27  C   UNL     1      29.697  43.332  54.174  1.00  0.00     0.029 C 
HETATM   28  C   UNL     1      28.637  42.263  54.083  1.00  0.00     0.035 C 
ENDBRANCH  23  24
ENDBRANCH  20  23
ENDBRANCH  17  19
ENDBRANCH   5  10
BRANCH   1  29
HETATM   29  C   UNL     1      18.532  50.540  49.751  1.00  0.00     0.273 C 
BRANCH  29  30
HETATM   30  C   UNL     1      17.374  51.410  49.345  1.00  0.00    -0.030 A 
HETATM   31  C   UNL     1      17.064  52.585  50.053  1.00  0.00     0.048 A 
HETATM   32  C   UNL     1      15.947  53.371  49.717  1.00  0.00     0.102 A 
HETATM   33  C   UNL     1      15.134  52.972  48.641  1.00  0.00     0.101 A 
HETATM   34  C   UNL     1      15.455  51.806  47.933  1.00  0.00     0.040 A 
HETATM   35  C   UNL     1      16.560  51.030  48.275  1.00  0.00     0.012 A 
BRANCH  32  36
HETATM   36  O   UNL     1      15.598  54.500  50.403  1.00  0.00    -0.353 OA
HETATM   37  C   UNL     1      14.760  54.390  51.545  1.00  0.00     0.210 C 
ENDBRANCH  32  36
BRANCH  33  38
HETATM   38  O   UNL     1      14.003  53.565  48.150  1.00  0.00    -0.353 OA
HETATM   39  C   UNL     1      14.108  54.491  47.080  1.00  0.00     0.210 C 
ENDBRANCH  33  38
ENDBRANCH  29  30
ENDBRANCH   1  29
TORSDOF 9
ENDMDL
MODEL 8
REMARK VINA RESULT:      -8.3      2.857      9.569
REMARK  9 active torsions:
REMARK  status: ('A' for Active; 'I' for Inactive)
REMARK    1  A    between atoms: O_2  and  C_3 
REMARK    2  A    between atoms: C_4  and  O_5 
REMARK    3  A    between atoms: C_8  and  C_9 
REMARK    4  A    between atoms: C_9  and  N_10 
REMARK    5  A    between atoms: C_14  and  O_15 
REMARK    6  A    between atoms: C_14  and  C_16 
REMARK    7  A    between atoms: C_21  and  C_22 
REMARK       I    between atoms: C_22  and  N_23 
REMARK    8  A    between atoms: N_23  and  C_24 
REMARK    9  A    between atoms: C_24  and  C_25 
ROOT
HETATM    1  N   UNL     1      18.325  48.155  47.613  1.00  0.00    -0.067 N 
HETATM    2  H   UNL     1      17.346  48.455  47.521  1.00  0.00     0.280 HD
HETATM    3  C   UNL     1      18.703  48.344  49.065  1.00  0.00     0.238 C 
HETATM    4  C   UNL     1      18.682  49.823  49.422  1.00  0.00     0.071 C 
HETATM    5  C   UNL     1      19.646  50.640  48.541  1.00  0.00     0.088 C 
HETATM    6  C   UNL     1      19.142  50.452  47.095  1.00  0.00     0.071 C 
HETATM    7  C   UNL     1      19.159  48.994  46.672  1.00  0.00     0.238 C 
ENDROOT
BRANCH   5   8
HETATM    8  O   UNL     1      19.441  52.015  48.870  1.00  0.00    -0.385 OA
HETATM    9  H   UNL     1      19.089  52.490  48.094  1.00  0.00     0.211 HD
ENDBRANCH   5   8
BRANCH   5  10
HETATM   10  C   UNL     1      21.132  50.312  48.752  1.00  0.00    -0.023 A 
HETATM   11  C   UNL     1      21.538  49.029  49.191  1.00  0.00     0.024 A 
HETATM   12  C   UNL     1      22.907  48.709  49.278  1.00  0.00     0.001 A 
HETATM   13  C   UNL     1      23.837  49.692  48.986  1.00  0.00     0.086 A 
HETATM   14  C   UNL     1      23.656  47.551  49.605  1.00  0.00     0.057 A 
HETATM   15  O   UNL     1      25.100  49.198  49.085  1.00  0.00    -0.304 OA
HETATM   16  C   UNL     1      23.501  50.995  48.644  1.00  0.00     0.039 A 
HETATM   17  C   UNL     1      24.990  47.881  49.452  1.00  0.00     0.144 A 
HETATM   18  C   UNL     1      22.131  51.286  48.544  1.00  0.00     0.013 A 
BRANCH  17  19
HETATM   19  C   UNL     1      26.182  47.070  49.586  1.00  0.00     0.275 C 
HETATM   20  N   UNL     1      25.969  45.859  50.200  1.00  0.00    -0.353 N 
HETATM   21  H   UNL     1      25.043  45.673  50.569  1.00  0.00     0.162 HD
HETATM   22  O   UNL     1      27.292  47.447  49.223  1.00  0.00    -0.265 OA
BRANCH  20  23
HETATM   23  C   UNL     1      27.035  44.957  50.587  1.00  0.00     0.155 C 
BRANCH  23  24
HETATM   24  C   UNL     1      26.682  44.096  51.811  1.00  0.00     0.139 C 
HETATM   25  O   UNL     1      25.369  44.464  52.290  1.00  0.00    -0.384 OA
HETATM   26  C   UNL     1      25.449  44.655  53.707  1.00  0.00     0.168 C 
HETATM   27  C   UNL     1      26.879  45.053  53.989  1.00  0.00     0.029 C 
HETATM   28  C   UNL     1      27.641  44.219  52.990  1.00  0.00     0.035 C 
ENDBRANCH  23  24
ENDBRANCH  20  23
ENDBRANCH  17  19
ENDBRANCH   5  10
BRANCH   1  29
HETATM   29  C   UNL     1      18.363  46.696  47.177  1.00  0.00     0.273 C 
BRANCH  29  30
HETATM   30  C   UNL     1      19.724  46.060  47.261  1.00  0.00    -0.030 A 
HETATM   31  C   UNL     1      20.585  46.036  46.149  1.00  0.00     0.048 A 
HETATM   32  C   UNL     1      21.833  45.389  46.203  1.00  0.00     0.102 A 
HETATM   33  C   UNL     1      22.225  44.766  47.401  1.00  0.00     0.101 A 
HETATM   34  C   UNL     1      21.366  44.804  48.508  1.00  0.00     0.040 A 
HETATM   35  C   UNL     1      20.130  45.441  48.445  1.00  0.00     0.012 A 
BRANCH  32  36
HETATM   36  O   UNL     1      22.681  45.318  45.134  1.00  0.00    -0.353 OA
HETATM   37  C   UNL     1      22.348  44.481  44.035  1.00  0.00     0.210 C 
ENDBRANCH  32  36
BRANCH  33  38
HETATM   38  O   UNL     1      23.373  44.074  47.676  1.00  0.00    -0.353 OA
HETATM   39  C   UNL     1      23.504  43.405  48.921  1.00  0.00     0.210 C 
ENDBRANCH  33  38
ENDBRANCH  29  30
ENDBRANCH   1  29
TORSDOF 9
ENDMDL
MODEL 9
REMARK VINA RESULT:      -8.3      3.840     11.036
REMARK  9 active torsions:
REMARK  status: ('A' for Active; 'I' for Inactive)
REMARK    1  A    between atoms: O_2  and  C_3 
REMARK    2  A    between atoms: C_4  and  O_5 
REMARK    3  A    between atoms: C_8  and  C_9 
REMARK    4  A    between atoms: C_9  and  N_10 
REMARK    5  A    between atoms: C_14  and  O_15 
REMARK    6  A    between atoms: C_14  and  C_16 
REMARK    7  A    between atoms: C_21  and  C_22 
REMARK       I    between atoms: C_22  and  N_23 
REMARK    8  A    between atoms: N_23  and  C_24 
REMARK    9  A    between atoms: C_24  and  C_25 
ROOT
HETATM    1  N   UNL     1      15.729  49.350  45.847  1.00  0.00    -0.067 N 
HETATM    2  H   UNL     1      14.997  49.691  45.212  1.00  0.00     0.280 HD
HETATM    3  C   UNL     1      15.635  50.181  47.108  1.00  0.00     0.238 C 
HETATM    4  C   UNL     1      15.984  51.631  46.805  1.00  0.00     0.071 C 
HETATM    5  C   UNL     1      17.401  51.770  46.216  1.00  0.00     0.088 C 
HETATM    6  C   UNL     1      17.382  50.959  44.903  1.00  0.00     0.071 C 
HETATM    7  C   UNL     1      17.059  49.495  45.142  1.00  0.00     0.238 C 
ENDROOT
BRANCH   5   8
HETATM    8  O   UNL     1      17.562  53.140  45.848  1.00  0.00    -0.385 OA
HETATM    9  H   UNL     1      16.868  53.394  45.212  1.00  0.00     0.211 HD
ENDBRANCH   5   8
BRANCH   5  10
HETATM   10  C   UNL     1      18.531  51.395  47.186  1.00  0.00    -0.023 A 
HETATM   11  C   UNL     1      19.407  50.320  46.903  1.00  0.00     0.024 A 
HETATM   12  C   UNL     1      20.502  50.055  47.747  1.00  0.00     0.001 A 
HETATM   13  C   UNL     1      20.663  50.826  48.886  1.00  0.00     0.086 A 
HETATM   14  C   UNL     1      21.583  49.138  47.744  1.00  0.00     0.057 A 
HETATM   15  O   UNL     1      21.787  50.458  49.557  1.00  0.00    -0.304 OA
HETATM   16  C   UNL     1      19.783  51.830  49.268  1.00  0.00     0.039 A 
HETATM   17  C   UNL     1      22.359  49.430  48.851  1.00  0.00     0.144 A 
HETATM   18  C   UNL     1      18.711  52.090  48.401  1.00  0.00     0.013 A 
BRANCH  17  19
HETATM   19  C   UNL     1      23.612  48.859  49.301  1.00  0.00     0.275 C 
HETATM   20  N   UNL     1      23.479  47.641  49.923  1.00  0.00    -0.353 N 
HETATM   21  H   UNL     1      22.540  47.292  50.085  1.00  0.00     0.162 HD
HETATM   22  O   UNL     1      24.690  49.429  49.174  1.00  0.00    -0.265 OA
BRANCH  20  23
HETATM   23  C   UNL     1      24.568  46.961  50.596  1.00  0.00     0.155 C 
BRANCH  23  24
HETATM   24  C   UNL     1      24.547  45.438  50.390  1.00  0.00     0.139 C 
HETATM   25  O   UNL     1      24.253  44.790  51.649  1.00  0.00    -0.384 OA
HETATM   26  C   UNL     1      25.206  43.739  51.842  1.00  0.00     0.168 C 
HETATM   27  C   UNL     1      26.440  44.154  51.074  1.00  0.00     0.029 C 
HETATM   28  C   UNL     1      25.845  44.834  49.866  1.00  0.00     0.035 C 
ENDBRANCH  23  24
ENDBRANCH  20  23
ENDBRANCH  17  19
ENDBRANCH   5  10
BRANCH   1  29
HETATM   29  C   UNL     1      15.429  47.876  46.086  1.00  0.00     0.273 C 
BRANCH  29  30
HETATM   30  C   UNL     1      16.580  47.094  46.657  1.00  0.00    -0.030 A 
HETATM   31  C   UNL     1      17.144  46.013  45.955  1.00  0.00     0.048 A 
HETATM   32  C   UNL     1      18.179  45.239  46.509  1.00  0.00     0.102 A 
HETATM   33  C   UNL     1      18.663  45.568  47.789  1.00  0.00     0.101 A 
HETATM   34  C   UNL     1      18.104  46.653  48.477  1.00  0.00     0.040 A 
HETATM   35  C   UNL     1      17.075  47.410  47.924  1.00  0.00     0.012 A 
BRANCH  32  36
HETATM   36  O   UNL     1      18.729  44.164  45.870  1.00  0.00    -0.353 OA
HETATM   37  C   UNL     1      19.833  44.362  44.999  1.00  0.00     0.210 C 
ENDBRANCH  32  36
BRANCH  33  38
HETATM   38  O   UNL     1      19.642  44.954  48.522  1.00  0.00    -0.353 OA
HETATM   39  C   UNL     1      20.965  45.465  48.486  1.00  0.00     0.210 C 
ENDBRANCH  33  38
ENDBRANCH  29  30
ENDBRANCH   1  29
TORSDOF 9
ENDMDL
MODEL 10
REMARK VINA RESULT:      -8.2     11.596     14.564
REMARK  9 active torsions:
REMARK  status: ('A' for Active; 'I' for Inactive)
REMARK    1  A    between atoms: O_2  and  C_3 
REMARK    2  A    between atoms: C_4  and  O_5 
REMARK    3  A    between atoms: C_8  and  C_9 
REMARK    4  A    between atoms: C_9  and  N_10 
REMARK    5  A    between atoms: C_14  and  O_15 
REMARK    6  A    between atoms: C_14  and  C_16 
REMARK    7  A    between atoms: C_21  and  C_22 
REMARK       I    between atoms: C_22  and  N_23 
REMARK    8  A    between atoms: N_23  and  C_24 
REMARK    9  A    between atoms: C_24  and  C_25 
ROOT
HETATM    1  N   UNL     1      32.115  53.181  40.956  1.00  0.00    -0.067 N 
HETATM    2  H   UNL     1      32.800  53.921  41.151  1.00  0.00     0.280 HD
HETATM    3  C   UNL     1      32.121  52.255  42.152  1.00  0.00     0.238 C 
HETATM    4  C   UNL     1      33.469  51.560  42.268  1.00  0.00     0.071 C 
HETATM    5  C   UNL     1      33.807  50.748  41.002  1.00  0.00     0.088 C 
HETATM    6  C   UNL     1      33.855  51.777  39.853  1.00  0.00     0.071 C 
HETATM    7  C   UNL     1      32.527  52.493  39.675  1.00  0.00     0.238 C 
ENDROOT
BRANCH   5   8
HETATM    8  O   UNL     1      35.138  50.259  41.168  1.00  0.00    -0.385 OA
HETATM    9  H   UNL     1      35.691  50.944  41.590  1.00  0.00     0.211 HD
ENDBRANCH   5   8
BRANCH   5  10
HETATM   10  C   UNL     1      32.882  49.548  40.751  1.00  0.00    -0.023 A 
HETATM   11  C   UNL     1      31.759  49.661  39.897  1.00  0.00     0.024 A 
HETATM   12  C   UNL     1      30.981  48.527  39.594  1.00  0.00     0.001 A 
HETATM   13  C   UNL     1      31.301  47.322  40.196  1.00  0.00     0.086 A 
HETATM   14  C   UNL     1      29.865  48.260  38.761  1.00  0.00     0.057 A 
HETATM   15  O   UNL     1      30.474  46.336  39.759  1.00  0.00    -0.304 OA
HETATM   16  C   UNL     1      32.330  47.170  41.116  1.00  0.00     0.039 A 
HETATM   17  C   UNL     1      29.600  46.906  38.869  1.00  0.00     0.144 A 
HETATM   18  C   UNL     1      33.105  48.309  41.388  1.00  0.00     0.013 A 
BRANCH  17  19
HETATM   19  C   UNL     1      28.622  46.081  38.192  1.00  0.00     0.275 C 
HETATM   20  N   UNL     1      27.331  46.284  38.617  1.00  0.00    -0.353 N 
HETATM   21  H   UNL     1      27.183  46.912  39.399  1.00  0.00     0.162 HD
HETATM   22  O   UNL     1      28.922  45.247  37.345  1.00  0.00    -0.265 OA
BRANCH  20  23
HETATM   23  C   UNL     1      26.212  45.461  38.202  1.00  0.00     0.155 C 
BRANCH  23  24
HETATM   24  C   UNL     1      24.890  45.851  38.885  1.00  0.00     0.139 C 
HETATM   25  O   UNL     1      24.889  47.273  39.145  1.00  0.00    -0.384 OA
HETATM   26  C   UNL     1      24.485  47.477  40.503  1.00  0.00     0.168 C 
HETATM   27  C   UNL     1      24.877  46.220  41.244  1.00  0.00     0.029 C 
HETATM   28  C   UNL     1      24.613  45.152  40.211  1.00  0.00     0.035 C 
ENDBRANCH  23  24
ENDBRANCH  20  23
ENDBRANCH  17  19
ENDBRANCH   5  10
BRANCH   1  29
HETATM   29  C   UNL     1      30.778  53.883  40.758  1.00  0.00     0.273 C 
BRANCH  29  30
HETATM   30  C   UNL     1      29.638  52.962  40.419  1.00  0.00    -0.030 A 
HETATM   31  C   UNL     1      29.134  52.051  41.365  1.00  0.00     0.048 A 
HETATM   32  C   UNL     1      28.109  51.144  41.036  1.00  0.00     0.102 A 
HETATM   33  C   UNL     1      27.575  51.166  39.735  1.00  0.00     0.101 A 
HETATM   34  C   UNL     1      28.074  52.084  38.802  1.00  0.00     0.040 A 
HETATM   35  C   UNL     1      29.092  52.974  39.133  1.00  0.00     0.012 A 
BRANCH  32  36
HETATM   36  O   UNL     1      27.617  50.224  41.918  1.00  0.00    -0.353 OA
HETATM   37  C   UNL     1      28.260  48.963  42.039  1.00  0.00     0.210 C 
ENDBRANCH  32  36
BRANCH  33  38
HETATM   38  O   UNL     1      26.595  50.378  39.193  1.00  0.00    -0.353 OA
HETATM   39  C   UNL     1      26.722  49.930  37.853  1.00  0.00     0.210 C 
ENDBRANCH  33  38
ENDBRANCH  29  30
ENDBRANCH   1  29
TORSDOF 9
ENDMDL
