MODEL 1
REMARK VINA RESULT:      -8.2      0.000      0.000
REMARK  6 active torsions:
REMARK  status: ('A' for Active; 'I' for Inactive)
REMARK    1  A    between atoms: C_2  and  C_3 
REMARK    2  A    between atoms: C_8  and  C_9 
REMARK    3  A    between atoms: C_9  and  N_10 
REMARK    4  A    between atoms: N_10  and  C_12 
REMARK    5  A    between atoms: C_12  and  C_13 
REMARK       I    between atoms: C_13  and  N_14 
REMARK    6  A    between atoms: N_14  and  C_15 
ROOT
HETATM    1  N   UNL     1      25.599  43.648  51.693  1.00  0.00    -0.063 N 
HETATM    2  H   UNL     1      25.470  43.414  52.686  1.00  0.00     0.280 HD
HETATM    3  C   UNL     1      25.724  42.367  50.923  1.00  0.00     0.270 C 
ENDROOT
BRANCH   1   4
HETATM    4  C   UNL     1      26.876  44.494  51.660  1.00  0.00     0.277 C 
BRANCH   4   5
HETATM    5  C   UNL     1      27.304  44.925  53.025  1.00  0.00     0.012 A 
HETATM    6  C   UNL     1      28.264  44.365  53.947  1.00  0.00     0.071 A 
HETATM    7  N   UNL     1      28.339  45.121  55.053  1.00  0.00    -0.178 NA
HETATM    8  N   UNL     1      27.416  46.064  54.920  1.00  0.00    -0.288 N 
HETATM    9  H   UNL     1      27.279  46.716  55.689  1.00  0.00     0.188 HD
HETATM   10  C   UNL     1      26.775  46.004  53.721  1.00  0.00     0.120 A 
BRANCH   6  11
HETATM   11  C   UNL     1      29.172  43.126  53.931  1.00  0.00    -0.004 C 
HETATM   12  C   UNL     1      28.302  41.847  53.904  1.00  0.00     0.021 C 
HETATM   13  C   UNL     1      30.045  43.102  55.208  1.00  0.00     0.021 C 
HETATM   14  C   UNL     1      30.119  43.042  52.731  1.00  0.00     0.021 C 
ENDBRANCH   6  11
ENDBRANCH   4   5
ENDBRANCH   1   4
BRANCH   1  15
HETATM   15  C   UNL     1      24.359  44.427  51.240  1.00  0.00     0.337 C 
BRANCH  15  16
HETATM   16  C   UNL     1      24.667  45.404  50.106  1.00  0.00     0.248 C 
HETATM   17  N   UNL     1      24.654  46.728  50.518  1.00  0.00    -0.326 N 
HETATM   18  H   UNL     1      24.191  46.958  51.391  1.00  0.00     0.169 HD
HETATM   19  O   UNL     1      24.980  44.977  49.001  1.00  0.00    -0.271 OA
BRANCH  17  20
HETATM   20  C   UNL     1      25.155  47.840  49.804  1.00  0.00     0.040 A 
HETATM   21  C   UNL     1      24.366  48.709  49.050  1.00  0.00     0.072 A 
HETATM   22  C   UNL     1      24.963  49.743  48.325  1.00  0.00     0.121 A 
HETATM   23  F   UNL     1      24.191  50.554  47.592  1.00  0.00    -0.206 F 
HETATM   24  C   UNL     1      26.335  49.935  48.336  1.00  0.00     0.084 A 
HETATM   25  C   UNL     1      27.113  49.079  49.096  1.00  0.00     0.121 A 
HETATM   26  F   UNL     1      28.442  49.237  49.123  1.00  0.00    -0.206 F 
HETATM   27  C   UNL     1      26.540  48.040  49.828  1.00  0.00     0.072 A 
ENDBRANCH  17  20
ENDBRANCH  15  16
ENDBRANCH   1  15
TORSDOF 6
ENDMDL
MODEL 2
REMARK VINA RESULT:      -8.0      4.909      7.662
REMARK  6 active torsions:
REMARK  status: ('A' for Active; 'I' for Inactive)
REMARK    1  A    between atoms: C_2  and  C_3 
REMARK    2  A    between atoms: C_8  and  C_9 
REMARK    3  A    between atoms: C_9  and  N_10 
REMARK    4  A    between atoms: N_10  and  C_12 
REMARK    5  A    between atoms: C_12  and  C_13 
REMARK       I    between atoms: C_13  and  N_14 
REMARK    6  A    between atoms: N_14  and  C_15 
ROOT
HETATM    1  N   UNL     1      26.373  42.974  51.844  1.00  0.00    -0.063 N 
HETATM    2  H   UNL     1      26.411  42.142  52.446  1.00  0.00     0.280 HD
HETATM    3  C   UNL     1      24.968  43.125  51.343  1.00  0.00     0.270 C 
ENDROOT
BRANCH   1   4
HETATM    4  C   UNL     1      27.380  42.685  50.726  1.00  0.00     0.277 C 
BRANCH   4   5
HETATM    5  C   UNL     1      28.019  41.342  50.874  1.00  0.00     0.012 A 
HETATM    6  C   UNL     1      28.087  40.213  49.976  1.00  0.00     0.071 A 
HETATM    7  N   UNL     1      28.804  39.224  50.531  1.00  0.00    -0.178 NA
HETATM    8  N   UNL     1      29.106  39.629  51.758  1.00  0.00    -0.288 N 
HETATM    9  H   UNL     1      29.610  38.988  52.366  1.00  0.00     0.188 HD
HETATM   10  C   UNL     1      28.674  40.893  52.013  1.00  0.00     0.120 A 
BRANCH   6  11
HETATM   11  C   UNL     1      27.523  39.916  48.579  1.00  0.00    -0.004 C 
HETATM   12  C   UNL     1      28.168  40.870  47.546  1.00  0.00     0.021 C 
HETATM   13  C   UNL     1      25.992  40.143  48.573  1.00  0.00     0.021 C 
HETATM   14  C   UNL     1      27.773  38.490  48.078  1.00  0.00     0.021 C 
ENDBRANCH   6  11
ENDBRANCH   4   5
ENDBRANCH   1   4
BRANCH   1  15
HETATM   15  C   UNL     1      26.770  44.181  52.702  1.00  0.00     0.337 C 
BRANCH  15  16
HETATM   16  C   UNL     1      27.538  43.775  53.959  1.00  0.00     0.248 C 
HETATM   17  N   UNL     1      28.766  44.411  54.067  1.00  0.00    -0.326 N 
HETATM   18  H   UNL     1      29.167  44.833  53.236  1.00  0.00     0.169 HD
HETATM   19  O   UNL     1      27.013  43.038  54.785  1.00  0.00    -0.271 OA
BRANCH  17  20
HETATM   20  C   UNL     1      29.587  44.472  55.215  1.00  0.00     0.040 A 
HETATM   21  C   UNL     1      30.606  43.562  55.502  1.00  0.00     0.072 A 
HETATM   22  C   UNL     1      31.320  43.667  56.697  1.00  0.00     0.121 A 
HETATM   23  F   UNL     1      32.280  42.772  56.963  1.00  0.00    -0.206 F 
HETATM   24  C   UNL     1      31.048  44.665  57.618  1.00  0.00     0.084 A 
HETATM   25  C   UNL     1      30.046  45.575  57.323  1.00  0.00     0.121 A 
HETATM   26  F   UNL     1      29.756  46.548  58.196  1.00  0.00    -0.206 F 
HETATM   27  C   UNL     1      29.318  45.490  56.137  1.00  0.00     0.072 A 
ENDBRANCH  17  20
ENDBRANCH  15  16
ENDBRANCH   1  15
TORSDOF 6
ENDMDL
MODEL 3
REMARK VINA RESULT:      -7.6      3.464      6.653
REMARK  6 active torsions:
REMARK  status: ('A' for Active; 'I' for Inactive)
REMARK    1  A    between atoms: C_2  and  C_3 
REMARK    2  A    between atoms: C_8  and  C_9 
REMARK    3  A    between atoms: C_9  and  N_10 
REMARK    4  A    between atoms: N_10  and  C_12 
REMARK    5  A    between atoms: C_12  and  C_13 
REMARK       I    between atoms: C_13  and  N_14 
REMARK    6  A    between atoms: N_14  and  C_15 
ROOT
HETATM    1  N   UNL     1      27.018  42.535  50.773  1.00  0.00    -0.063 N 
HETATM    2  H   UNL     1      27.521  43.407  50.986  1.00  0.00     0.280 HD
HETATM    3  C   UNL     1      26.928  42.401  49.282  1.00  0.00     0.270 C 
ENDROOT
BRANCH   1   4
HETATM    4  C   UNL     1      25.651  42.708  51.443  1.00  0.00     0.277 C 
BRANCH   4   5
HETATM    5  C   UNL     1      25.538  44.008  52.172  1.00  0.00     0.012 A 
HETATM    6  C   UNL     1      25.491  45.369  51.694  1.00  0.00     0.071 A 
HETATM    7  N   UNL     1      25.350  46.216  52.725  1.00  0.00    -0.178 NA
HETATM    8  N   UNL     1      25.405  45.475  53.824  1.00  0.00    -0.288 N 
HETATM    9  H   UNL     1      25.369  45.946  54.725  1.00  0.00     0.188 HD
HETATM   10  C   UNL     1      25.504  44.146  53.553  1.00  0.00     0.120 A 
BRANCH   6  11
HETATM   11  C   UNL     1      25.574  46.025  50.308  1.00  0.00    -0.004 C 
HETATM   12  C   UNL     1      25.176  47.517  50.417  1.00  0.00     0.021 C 
HETATM   13  C   UNL     1      24.596  45.324  49.336  1.00  0.00     0.021 C 
HETATM   14  C   UNL     1      26.963  45.985  49.664  1.00  0.00     0.021 C 
ENDBRANCH   6  11
ENDBRANCH   4   5
ENDBRANCH   1   4
BRANCH   1  15
HETATM   15  C   UNL     1      27.829  41.379  51.368  1.00  0.00     0.337 C 
BRANCH  15  16
HETATM   16  C   UNL     1      28.341  41.689  52.774  1.00  0.00     0.248 C 
HETATM   17  N   UNL     1      29.039  42.885  52.841  1.00  0.00    -0.326 N 
HETATM   18  H   UNL     1      29.389  43.290  51.979  1.00  0.00     0.169 HD
HETATM   19  O   UNL     1      28.037  40.957  53.709  1.00  0.00    -0.271 OA
BRANCH  17  20
HETATM   20  C   UNL     1      29.400  43.588  54.013  1.00  0.00     0.040 A 
HETATM   21  C   UNL     1      28.813  44.785  54.423  1.00  0.00     0.072 A 
HETATM   22  C   UNL     1      29.285  45.440  55.562  1.00  0.00     0.121 A 
HETATM   23  F   UNL     1      28.722  46.598  55.928  1.00  0.00    -0.206 F 
HETATM   24  C   UNL     1      30.331  44.926  56.311  1.00  0.00     0.084 A 
HETATM   25  C   UNL     1      30.902  43.731  55.908  1.00  0.00     0.121 A 
HETATM   26  F   UNL     1      31.917  43.211  56.609  1.00  0.00    -0.206 F 
HETATM   27  C   UNL     1      30.449  43.058  54.775  1.00  0.00     0.072 A 
ENDBRANCH  17  20
ENDBRANCH  15  16
ENDBRANCH   1  15
TORSDOF 6
ENDMDL
MODEL 4
REMARK VINA RESULT:      -7.3      1.895      2.686
REMARK  6 active torsions:
REMARK  status: ('A' for Active; 'I' for Inactive)
REMARK    1  A    between atoms: C_2  and  C_3 
REMARK    2  A    between atoms: C_8  and  C_9 
REMARK    3  A    between atoms: C_9  and  N_10 
REMARK    4  A    between atoms: N_10  and  C_12 
REMARK    5  A    between atoms: C_12  and  C_13 
REMARK       I    between atoms: C_13  and  N_14 
REMARK    6  A    between atoms: N_14  and  C_15 
ROOT
HETATM    1  N   UNL     1      25.480  44.870  51.409  1.00  0.00    -0.063 N 
HETATM    2  H   UNL     1      25.182  45.446  52.207  1.00  0.00     0.280 HD
HETATM    3  C   UNL     1      24.349  43.954  51.046  1.00  0.00     0.270 C 
ENDROOT
BRANCH   1   4
HETATM    4  C   UNL     1      26.717  44.123  51.917  1.00  0.00     0.277 C 
BRANCH   4   5
HETATM    5  C   UNL     1      27.266  44.725  53.170  1.00  0.00     0.012 A 
HETATM    6  C   UNL     1      28.358  44.320  54.024  1.00  0.00     0.071 A 
HETATM    7  N   UNL     1      28.507  45.196  55.030  1.00  0.00    -0.178 NA
HETATM    8  N   UNL     1      27.515  46.069  54.911  1.00  0.00    -0.288 N 
HETATM    9  H   UNL     1      27.422  46.793  55.620  1.00  0.00     0.188 HD
HETATM   10  C   UNL     1      26.750  45.843  53.809  1.00  0.00     0.120 A 
BRANCH   6  11
HETATM   11  C   UNL     1      29.338  43.138  54.029  1.00  0.00    -0.004 C 
HETATM   12  C   UNL     1      28.548  41.811  54.126  1.00  0.00     0.021 C 
HETATM   13  C   UNL     1      30.278  43.242  55.254  1.00  0.00     0.021 C 
HETATM   14  C   UNL     1      30.223  43.035  52.784  1.00  0.00     0.021 C 
ENDBRANCH   6  11
ENDBRANCH   4   5
ENDBRANCH   1   4
BRANCH   1  15
HETATM   15  C   UNL     1      25.794  45.820  50.248  1.00  0.00     0.337 C 
BRANCH  15  16
HETATM   16  C   UNL     1      25.011  47.129  50.337  1.00  0.00     0.248 C 
HETATM   17  N   UNL     1      24.358  47.446  49.155  1.00  0.00    -0.326 N 
HETATM   18  H   UNL     1      24.658  46.990  48.299  1.00  0.00     0.169 HD
HETATM   19  O   UNL     1      24.934  47.723  51.405  1.00  0.00    -0.271 OA
BRANCH  17  20
HETATM   20  C   UNL     1      23.348  48.418  48.982  1.00  0.00     0.040 A 
HETATM   21  C   UNL     1      21.980  48.146  49.023  1.00  0.00     0.072 A 
HETATM   22  C   UNL     1      21.058  49.165  48.774  1.00  0.00     0.121 A 
HETATM   23  F   UNL     1      19.750  48.879  48.799  1.00  0.00    -0.206 F 
HETATM   24  C   UNL     1      21.466  50.457  48.488  1.00  0.00     0.084 A 
HETATM   25  C   UNL     1      22.824  50.726  48.462  1.00  0.00     0.121 A 
HETATM   26  F   UNL     1      23.250  51.965  48.184  1.00  0.00    -0.206 F 
HETATM   27  C   UNL     1      23.764  49.727  48.707  1.00  0.00     0.072 A 
ENDBRANCH  17  20
ENDBRANCH  15  16
ENDBRANCH   1  15
TORSDOF 6
ENDMDL
MODEL 5
REMARK VINA RESULT:      -7.3      3.273      7.646
REMARK  6 active torsions:
REMARK  status: ('A' for Active; 'I' for Inactive)
REMARK    1  A    between atoms: C_2  and  C_3 
REMARK    2  A    between atoms: C_8  and  C_9 
REMARK    3  A    between atoms: C_9  and  N_10 
REMARK    4  A    between atoms: N_10  and  C_12 
REMARK    5  A    between atoms: C_12  and  C_13 
REMARK       I    between atoms: C_13  and  N_14 
REMARK    6  A    between atoms: N_14  and  C_15 
ROOT
HETATM    1  N   UNL     1      24.784  45.714  49.812  1.00  0.00    -0.063 N 
HETATM    2  H   UNL     1      25.589  45.772  49.175  1.00  0.00     0.280 HD
HETATM    3  C   UNL     1      23.578  45.329  49.008  1.00  0.00     0.270 C 
ENDROOT
BRANCH   1   4
HETATM    4  C   UNL     1      24.677  47.115  50.422  1.00  0.00     0.277 C 
BRANCH   4   5
HETATM    5  C   UNL     1      25.297  48.160  49.552  1.00  0.00     0.012 A 
HETATM    6  C   UNL     1      24.711  49.226  48.775  1.00  0.00     0.071 A 
HETATM    7  N   UNL     1      25.673  49.943  48.174  1.00  0.00    -0.178 NA
HETATM    8  N   UNL     1      26.818  49.332  48.450  1.00  0.00    -0.288 N 
HETATM    9  H   UNL     1      27.672  49.698  48.036  1.00  0.00     0.188 HD
HETATM   10  C   UNL     1      26.654  48.267  49.282  1.00  0.00     0.120 A 
BRANCH   6  11
HETATM   11  C   UNL     1      23.273  49.686  48.493  1.00  0.00    -0.004 C 
HETATM   12  C   UNL     1      22.639  50.228  49.796  1.00  0.00     0.021 C 
HETATM   13  C   UNL     1      22.428  48.490  47.995  1.00  0.00     0.021 C 
HETATM   14  C   UNL     1      23.150  50.797  47.447  1.00  0.00     0.021 C 
ENDBRANCH   6  11
ENDBRANCH   4   5
ENDBRANCH   1   4
BRANCH   1  15
HETATM   15  C   UNL     1      25.100  44.635  50.854  1.00  0.00     0.337 C 
BRANCH  15  16
HETATM   16  C   UNL     1      26.537  44.723  51.367  1.00  0.00     0.248 C 
HETATM   17  N   UNL     1      26.632  44.528  52.737  1.00  0.00    -0.326 N 
HETATM   18  H   UNL     1      25.793  44.629  53.299  1.00  0.00     0.169 HD
HETATM   19  O   UNL     1      27.461  44.854  50.574  1.00  0.00    -0.271 OA
BRANCH  17  20
HETATM   20  C   UNL     1      27.811  44.277  53.475  1.00  0.00     0.040 A 
HETATM   21  C   UNL     1      28.170  44.959  54.637  1.00  0.00     0.072 A 
HETATM   22  C   UNL     1      29.390  44.684  55.259  1.00  0.00     0.121 A 
HETATM   23  F   UNL     1      29.725  45.364  56.363  1.00  0.00    -0.206 F 
HETATM   24  C   UNL     1      30.264  43.737  54.752  1.00  0.00     0.084 A 
HETATM   25  C   UNL     1      29.897  43.052  53.605  1.00  0.00     0.121 A 
HETATM   26  F   UNL     1      30.723  42.134  53.088  1.00  0.00    -0.206 F 
HETATM   27  C   UNL     1      28.685  43.309  52.966  1.00  0.00     0.072 A 
ENDBRANCH  17  20
ENDBRANCH  15  16
ENDBRANCH   1  15
TORSDOF 6
ENDMDL
MODEL 6
REMARK VINA RESULT:      -7.3      4.913      7.624
REMARK  6 active torsions:
REMARK  status: ('A' for Active; 'I' for Inactive)
REMARK    1  A    between atoms: C_2  and  C_3 
REMARK    2  A    between atoms: C_8  and  C_9 
REMARK    3  A    between atoms: C_9  and  N_10 
REMARK    4  A    between atoms: N_10  and  C_12 
REMARK    5  A    between atoms: C_12  and  C_13 
REMARK       I    between atoms: C_13  and  N_14 
REMARK    6  A    between atoms: N_14  and  C_15 
ROOT
HETATM    1  N   UNL     1      26.509  41.586  51.551  1.00  0.00    -0.063 N 
HETATM    2  H   UNL     1      26.198  41.272  52.480  1.00  0.00     0.280 HD
HETATM    3  C   UNL     1      25.901  42.930  51.284  1.00  0.00     0.270 C 
ENDROOT
BRANCH   1   4
HETATM    4  C   UNL     1      26.010  40.500  50.592  1.00  0.00     0.277 C 
BRANCH   4   5
HETATM    5  C   UNL     1      26.691  40.563  49.263  1.00  0.00     0.012 A 
HETATM    6  C   UNL     1      27.588  39.642  48.606  1.00  0.00     0.071 A 
HETATM    7  N   UNL     1      27.923  40.109  47.393  1.00  0.00    -0.178 NA
HETATM    8  N   UNL     1      27.368  41.310  47.293  1.00  0.00    -0.288 N 
HETATM    9  H   UNL     1      27.551  41.857  46.455  1.00  0.00     0.188 HD
HETATM   10  C   UNL     1      26.609  41.627  48.376  1.00  0.00     0.120 A 
BRANCH   6  11
HETATM   11  C   UNL     1      28.222  38.298  48.993  1.00  0.00    -0.004 C 
HETATM   12  C   UNL     1      29.007  37.730  47.787  1.00  0.00     0.021 C 
HETATM   13  C   UNL     1      27.116  37.289  49.380  1.00  0.00     0.021 C 
HETATM   14  C   UNL     1      29.205  38.368  50.165  1.00  0.00     0.021 C 
ENDBRANCH   6  11
ENDBRANCH   4   5
ENDBRANCH   1   4
BRANCH   1  15
HETATM   15  C   UNL     1      28.038  41.687  51.590  1.00  0.00     0.337 C 
BRANCH  15  16
HETATM   16  C   UNL     1      28.572  41.922  53.002  1.00  0.00     0.248 C 
HETATM   17  N   UNL     1      29.193  43.154  53.144  1.00  0.00    -0.326 N 
HETATM   18  H   UNL     1      29.491  43.645  52.307  1.00  0.00     0.169 HD
HETATM   19  O   UNL     1      28.345  41.104  53.885  1.00  0.00    -0.271 OA
BRANCH  17  20
HETATM   20  C   UNL     1      29.544  43.789  54.357  1.00  0.00     0.040 A 
HETATM   21  C   UNL     1      28.889  44.905  54.877  1.00  0.00     0.072 A 
HETATM   22  C   UNL     1      29.353  45.502  56.051  1.00  0.00     0.121 A 
HETATM   23  F   UNL     1      28.722  46.584  56.524  1.00  0.00    -0.206 F 
HETATM   24  C   UNL     1      30.458  45.010  56.726  1.00  0.00     0.084 A 
HETATM   25  C   UNL     1      31.097  43.894  56.213  1.00  0.00     0.121 A 
HETATM   26  F   UNL     1      32.171  43.397  56.841  1.00  0.00    -0.206 F 
HETATM   27  C   UNL     1      30.653  43.280  55.043  1.00  0.00     0.072 A 
ENDBRANCH  17  20
ENDBRANCH  15  16
ENDBRANCH   1  15
TORSDOF 6
ENDMDL
MODEL 7
REMARK VINA RESULT:      -7.3      4.019      7.199
REMARK  6 active torsions:
REMARK  status: ('A' for Active; 'I' for Inactive)
REMARK    1  A    between atoms: C_2  and  C_3 
REMARK    2  A    between atoms: C_8  and  C_9 
REMARK    3  A    between atoms: C_9  and  N_10 
REMARK    4  A    between atoms: N_10  and  C_12 
REMARK    5  A    between atoms: C_12  and  C_13 
REMARK       I    between atoms: C_13  and  N_14 
REMARK    6  A    between atoms: N_14  and  C_15 
ROOT
HETATM    1  N   UNL     1      27.125  41.242  50.555  1.00  0.00    -0.063 N 
HETATM    2  H   UNL     1      27.359  41.659  49.644  1.00  0.00     0.280 HD
HETATM    3  C   UNL     1      26.183  40.099  50.318  1.00  0.00     0.270 C 
ENDROOT
BRANCH   1   4
HETATM    4  C   UNL     1      26.489  42.389  51.348  1.00  0.00     0.277 C 
BRANCH   4   5
HETATM    5  C   UNL     1      26.401  43.649  50.549  1.00  0.00     0.012 A 
HETATM    6  C   UNL     1      25.396  44.127  49.629  1.00  0.00     0.071 A 
HETATM    7  N   UNL     1      25.731  45.344  49.171  1.00  0.00    -0.178 NA
HETATM    8  N   UNL     1      26.929  45.612  49.673  1.00  0.00    -0.288 N 
HETATM    9  H   UNL     1      27.385  46.479  49.397  1.00  0.00     0.188 HD
HETATM   10  C   UNL     1      27.373  44.639  50.515  1.00  0.00     0.120 A 
BRANCH   6  11
HETATM   11  C   UNL     1      24.082  43.554  49.078  1.00  0.00    -0.004 C 
HETATM   12  C   UNL     1      24.394  42.407  48.087  1.00  0.00     0.021 C 
HETATM   13  C   UNL     1      23.304  44.658  48.325  1.00  0.00     0.021 C 
HETATM   14  C   UNL     1      23.141  42.977  50.139  1.00  0.00     0.021 C 
ENDBRANCH   6  11
ENDBRANCH   4   5
ENDBRANCH   1   4
BRANCH   1  15
HETATM   15  C   UNL     1      28.431  40.741  51.180  1.00  0.00     0.337 C 
BRANCH  15  16
HETATM   16  C   UNL     1      28.639  41.271  52.598  1.00  0.00     0.248 C 
HETATM   17  N   UNL     1      29.487  42.367  52.644  1.00  0.00    -0.326 N 
HETATM   18  H   UNL     1      30.093  42.544  51.849  1.00  0.00     0.169 HD
HETATM   19  O   UNL     1      28.008  40.786  53.530  1.00  0.00    -0.271 OA
BRANCH  17  20
HETATM   20  C   UNL     1      29.671  43.249  53.733  1.00  0.00     0.040 A 
HETATM   21  C   UNL     1      30.703  43.140  54.665  1.00  0.00     0.072 A 
HETATM   22  C   UNL     1      30.762  44.022  55.747  1.00  0.00     0.121 A 
HETATM   23  F   UNL     1      31.749  43.889  56.641  1.00  0.00    -0.206 F 
HETATM   24  C   UNL     1      29.815  45.018  55.921  1.00  0.00     0.084 A 
HETATM   25  C   UNL     1      28.800  45.130  54.986  1.00  0.00     0.121 A 
HETATM   26  F   UNL     1      27.868  46.080  55.130  1.00  0.00    -0.206 F 
HETATM   27  C   UNL     1      28.719  44.262  53.898  1.00  0.00     0.072 A 
ENDBRANCH  17  20
ENDBRANCH  15  16
ENDBRANCH   1  15
TORSDOF 6
ENDMDL
MODEL 8
REMARK VINA RESULT:      -7.2      3.966      6.271
REMARK  6 active torsions:
REMARK  status: ('A' for Active; 'I' for Inactive)
REMARK    1  A    between atoms: C_2  and  C_3 
REMARK    2  A    between atoms: C_8  and  C_9 
REMARK    3  A    between atoms: C_9  and  N_10 
REMARK    4  A    between atoms: N_10  and  C_12 
REMARK    5  A    between atoms: C_12  and  C_13 
REMARK       I    between atoms: C_13  and  N_14 
REMARK    6  A    between atoms: N_14  and  C_15 
ROOT
HETATM    1  N   UNL     1      25.972  44.859  51.950  1.00  0.00    -0.063 N 
HETATM    2  H   UNL     1      26.979  44.963  51.773  1.00  0.00     0.280 HD
HETATM    3  C   UNL     1      25.275  46.077  51.420  1.00  0.00     0.270 C 
ENDROOT
BRANCH   1   4
HETATM    4  C   UNL     1      25.862  44.720  53.472  1.00  0.00     0.277 C 
BRANCH   4   5
HETATM    5  C   UNL     1      27.072  45.243  54.176  1.00  0.00     0.012 A 
HETATM    6  C   UNL     1      28.376  44.661  54.394  1.00  0.00     0.071 A 
HETATM    7  N   UNL     1      29.161  45.523  55.058  1.00  0.00    -0.178 NA
HETATM    8  N   UNL     1      28.398  46.568  55.353  1.00  0.00    -0.288 N 
HETATM    9  H   UNL     1      28.802  47.318  55.909  1.00  0.00     0.188 HD
HETATM   10  C   UNL     1      27.143  46.460  54.839  1.00  0.00     0.120 A 
BRANCH   6  11
HETATM   11  C   UNL     1      29.023  43.312  54.047  1.00  0.00    -0.004 C 
HETATM   12  C   UNL     1      30.210  43.047  55.003  1.00  0.00     0.021 C 
HETATM   13  C   UNL     1      29.556  43.344  52.595  1.00  0.00     0.021 C 
HETATM   14  C   UNL     1      28.087  42.105  54.161  1.00  0.00     0.021 C 
ENDBRANCH   6  11
ENDBRANCH   4   5
ENDBRANCH   1   4
BRANCH   1  15
HETATM   15  C   UNL     1      25.501  43.605  51.204  1.00  0.00     0.337 C 
BRANCH  15  16
HETATM   16  C   UNL     1      26.628  42.940  50.414  1.00  0.00     0.248 C 
HETATM   17  N   UNL     1      26.842  41.623  50.789  1.00  0.00    -0.326 N 
HETATM   18  H   UNL     1      26.478  41.308  51.682  1.00  0.00     0.169 HD
HETATM   19  O   UNL     1      27.166  43.543  49.493  1.00  0.00    -0.271 OA
BRANCH  17  20
HETATM   20  C   UNL     1      27.602  40.658  50.089  1.00  0.00     0.040 A 
HETATM   21  C   UNL     1      27.479  40.401  48.723  1.00  0.00     0.072 A 
HETATM   22  C   UNL     1      28.228  39.379  48.135  1.00  0.00     0.121 A 
HETATM   23  F   UNL     1      28.081  39.136  46.827  1.00  0.00    -0.206 F 
HETATM   24  C   UNL     1      29.105  38.606  48.877  1.00  0.00     0.084 A 
HETATM   25  C   UNL     1      29.234  38.873  50.229  1.00  0.00     0.121 A 
HETATM   26  F   UNL     1      30.072  38.140  50.974  1.00  0.00    -0.206 F 
HETATM   27  C   UNL     1      28.498  39.887  50.840  1.00  0.00     0.072 A 
ENDBRANCH  17  20
ENDBRANCH  15  16
ENDBRANCH   1  15
TORSDOF 6
ENDMDL
MODEL 9
REMARK VINA RESULT:      -7.1      3.540      4.965
REMARK  6 active torsions:
REMARK  status: ('A' for Active; 'I' for Inactive)
REMARK    1  A    between atoms: C_2  and  C_3 
REMARK    2  A    between atoms: C_8  and  C_9 
REMARK    3  A    between atoms: C_9  and  N_10 
REMARK    4  A    between atoms: N_10  and  C_12 
REMARK    5  A    between atoms: C_12  and  C_13 
REMARK       I    between atoms: C_13  and  N_14 
REMARK    6  A    between atoms: N_14  and  C_15 
ROOT
HETATM    1  N   UNL     1      24.580  47.381  50.304  1.00  0.00    -0.063 N 
HETATM    2  H   UNL     1      24.019  47.615  51.134  1.00  0.00     0.280 HD
HETATM    3  C   UNL     1      24.034  46.115  49.714  1.00  0.00     0.270 C 
ENDROOT
BRANCH   1   4
HETATM    4  C   UNL     1      26.008  47.227  50.837  1.00  0.00     0.277 C 
BRANCH   4   5
HETATM    5  C   UNL     1      26.037  46.682  52.229  1.00  0.00     0.012 A 
HETATM    6  C   UNL     1      26.320  45.358  52.730  1.00  0.00     0.071 A 
HETATM    7  N   UNL     1      26.260  45.349  54.071  1.00  0.00    -0.178 NA
HETATM    8  N   UNL     1      25.862  46.562  54.432  1.00  0.00    -0.288 N 
HETATM    9  H   UNL     1      25.703  46.743  55.421  1.00  0.00     0.188 HD
HETATM   10  C   UNL     1      25.726  47.404  53.373  1.00  0.00     0.120 A 
BRANCH   6  11
HETATM   11  C   UNL     1      26.652  44.009  52.076  1.00  0.00    -0.004 C 
HETATM   12  C   UNL     1      25.353  43.361  51.540  1.00  0.00     0.021 C 
HETATM   13  C   UNL     1      27.281  43.060  53.123  1.00  0.00     0.021 C 
HETATM   14  C   UNL     1      27.623  44.092  50.895  1.00  0.00     0.021 C 
ENDBRANCH   6  11
ENDBRANCH   4   5
ENDBRANCH   1   4
BRANCH   1  15
HETATM   15  C   UNL     1      24.438  48.540  49.312  1.00  0.00     0.337 C 
BRANCH  15  16
HETATM   16  C   UNL     1      23.014  48.679  48.777  1.00  0.00     0.248 C 
HETATM   17  N   UNL     1      22.145  49.239  49.700  1.00  0.00    -0.326 N 
HETATM   18  H   UNL     1      22.414  49.243  50.678  1.00  0.00     0.169 HD
HETATM   19  O   UNL     1      22.770  48.396  47.610  1.00  0.00    -0.271 OA
BRANCH  17  20
HETATM   20  C   UNL     1      20.852  49.750  49.442  1.00  0.00     0.040 A 
HETATM   21  C   UNL     1      19.680  48.996  49.519  1.00  0.00     0.072 A 
HETATM   22  C   UNL     1      18.455  49.574  49.181  1.00  0.00     0.121 A 
HETATM   23  F   UNL     1      17.345  48.829  49.242  1.00  0.00    -0.206 F 
HETATM   24  C   UNL     1      18.367  50.894  48.769  1.00  0.00     0.084 A 
HETATM   25  C   UNL     1      19.530  51.642  48.707  1.00  0.00     0.121 A 
HETATM   26  F   UNL     1      19.477  52.919  48.309  1.00  0.00    -0.206 F 
HETATM   27  C   UNL     1      20.765  51.088  49.039  1.00  0.00     0.072 A 
ENDBRANCH  17  20
ENDBRANCH  15  16
ENDBRANCH   1  15
TORSDOF 6
ENDMDL
MODEL 10
REMARK VINA RESULT:      -7.0      3.919      7.561
REMARK  6 active torsions:
REMARK  status: ('A' for Active; 'I' for Inactive)
REMARK    1  A    between atoms: C_2  and  C_3 
REMARK    2  A    between atoms: C_8  and  C_9 
REMARK    3  A    between atoms: C_9  and  N_10 
REMARK    4  A    between atoms: N_10  and  C_12 
REMARK    5  A    between atoms: C_12  and  C_13 
REMARK       I    between atoms: C_13  and  N_14 
REMARK    6  A    between atoms: N_14  and  C_15 
ROOT
HETATM    1  N   UNL     1      27.491  42.408  51.260  1.00  0.00    -0.063 N 
HETATM    2  H   UNL     1      28.515  42.365  51.177  1.00  0.00     0.280 HD
HETATM    3  C   UNL     1      26.960  41.007  51.232  1.00  0.00     0.270 C 
ENDROOT
BRANCH   1   4
HETATM    4  C   UNL     1      27.045  43.243  50.055  1.00  0.00     0.277 C 
BRANCH   4   5
HETATM    5  C   UNL     1      25.610  43.650  50.148  1.00  0.00     0.012 A 
HETATM    6  C   UNL     1      24.995  44.942  50.335  1.00  0.00     0.071 A 
HETATM    7  N   UNL     1      23.658  44.824  50.322  1.00  0.00    -0.178 NA
HETATM    8  N   UNL     1      23.402  43.525  50.235  1.00  0.00    -0.288 N 
HETATM    9  H   UNL     1      22.431  43.222  50.264  1.00  0.00     0.188 HD
HETATM   10  C   UNL     1      24.531  42.777  50.115  1.00  0.00     0.120 A 
BRANCH   6  11
HETATM   11  C   UNL     1      25.529  46.366  50.549  1.00  0.00    -0.004 C 
HETATM   12  C   UNL     1      25.965  46.539  52.024  1.00  0.00     0.021 C 
HETATM   13  C   UNL     1      24.415  47.395  50.241  1.00  0.00     0.021 C 
HETATM   14  C   UNL     1      26.739  46.733  49.685  1.00  0.00     0.021 C 
ENDBRANCH   6  11
ENDBRANCH   4   5
ENDBRANCH   1   4
BRANCH   1  15
HETATM   15  C   UNL     1      27.166  43.079  52.599  1.00  0.00     0.337 C 
BRANCH  15  16
HETATM   16  C   UNL     1      28.282  42.899  53.628  1.00  0.00     0.248 C 
HETATM   17  N   UNL     1      28.777  44.104  54.101  1.00  0.00    -0.326 N 
HETATM   18  H   UNL     1      28.594  44.947  53.565  1.00  0.00     0.169 HD
HETATM   19  O   UNL     1      28.579  41.775  54.014  1.00  0.00    -0.271 OA
BRANCH  17  20
HETATM   20  C   UNL     1      29.600  44.293  55.234  1.00  0.00     0.040 A 
HETATM   21  C   UNL     1      30.681  43.475  55.564  1.00  0.00     0.072 A 
HETATM   22  C   UNL     1      31.395  43.704  56.742  1.00  0.00     0.121 A 
HETATM   23  F   UNL     1      32.416  42.896  57.052  1.00  0.00    -0.206 F 
HETATM   24  C   UNL     1      31.061  44.737  57.602  1.00  0.00     0.084 A 
HETATM   25  C   UNL     1      29.996  45.555  57.264  1.00  0.00     0.121 A 
HETATM   26  F   UNL     1      29.646  46.559  58.077  1.00  0.00    -0.206 F 
HETATM   27  C   UNL     1      29.267  45.347  56.094  1.00  0.00     0.072 A 
ENDBRANCH  17  20
ENDBRANCH  15  16
ENDBRANCH   1  15
TORSDOF 6
ENDMDL
