MODEL 1
REMARK VINA RESULT:      -9.8      0.000      0.000
REMARK  7 active torsions:
REMARK  status: ('A' for Active; 'I' for Inactive)
REMARK    1  A    between atoms: O_2  and  C_3 
REMARK    2  A    between atoms: C_6  and  N_7 
REMARK    3  A    between atoms: N_7  and  C_8 
REMARK    4  A    between atoms: C_8  and  C_9 
REMARK       I    between atoms: C_9  and  N_10 
REMARK    5  A    between atoms: N_10  and  N_11 
REMARK       I    between atoms: N_11  and  C_12 
REMARK    6  A    between atoms: C_12  and  C_13 
REMARK    7  A    between atoms: N_15  and  C_16 
ROOT
HETATM    1  N   UNL     1      24.923  46.965  50.998  1.00  0.00    -0.263 N 
HETATM    2  C   UNL     1      25.019  45.905  51.881  1.00  0.00     0.273 C 
HETATM    3  O   UNL     1      24.296  44.913  51.796  1.00  0.00    -0.266 OA
HETATM    4  H   UNL     1      25.234  47.891  51.287  1.00  0.00     0.190 HD
ENDROOT
BRANCH   1   5
HETATM    5  N   UNL     1      23.843  46.959  50.091  1.00  0.00    -0.266 N 
HETATM    6  C   UNL     1      23.566  48.149  49.437  1.00  0.00     0.253 C 
HETATM    7  O   UNL     1      24.296  49.138  49.529  1.00  0.00    -0.270 OA
HETATM    8  H   UNL     1      23.090  46.310  50.316  1.00  0.00     0.190 HD
BRANCH   6   9
HETATM    9  C   UNL     1      22.291  48.108  48.587  1.00  0.00     0.224 C 
BRANCH   9  10
HETATM   10  N   UNL     1      21.121  48.246  49.452  1.00  0.00    -0.381 N 
HETATM   11  H   UNL     1      20.562  47.393  49.484  1.00  0.00     0.160 HD
BRANCH  10  12
HETATM   12  C   UNL     1      20.382  49.420  49.506  1.00  0.00     0.028 A 
HETATM   13  C   UNL     1      20.841  50.531  48.783  1.00  0.00     0.032 A 
HETATM   14  C   UNL     1      20.092  51.712  48.688  1.00  0.00     0.039 A 
HETATM   15  C   UNL     1      18.843  51.795  49.297  1.00  0.00     0.068 A 
HETATM   16  C   UNL     1      18.371  50.697  50.014  1.00  0.00     0.039 A 
HETATM   17  C   UNL     1      19.124  49.520  50.106  1.00  0.00     0.032 A 
BRANCH  15  18
HETATM   18  O   UNL     1      18.000  52.870  49.261  1.00  0.00    -0.356 OA
HETATM   19  C   UNL     1      16.747  52.716  49.915  1.00  0.00     0.210 C 
ENDBRANCH  15  18
ENDBRANCH  10  12
ENDBRANCH   9  10
ENDBRANCH   6   9
ENDBRANCH   1   5
BRANCH   2  20
HETATM   20  C   UNL     1      26.027  46.057  52.911  1.00  0.00     0.070 A 
HETATM   21  C   UNL     1      26.963  45.109  53.275  1.00  0.00     0.137 A 
HETATM   22  N   UNL     1      27.750  45.654  54.265  1.00  0.00    -0.244 N 
HETATM   23  N   UNL     1      27.366  46.925  54.545  1.00  0.00    -0.179 NA
HETATM   24  C   UNL     1      26.332  47.155  53.736  1.00  0.00     0.157 A 
BRANCH  22  25
HETATM   25  C   UNL     1      28.837  45.052  54.955  1.00  0.00     0.059 A 
HETATM   26  C   UNL     1      29.266  45.603  56.174  1.00  0.00     0.055 A 
HETATM   27  C   UNL     1      30.336  45.027  56.857  1.00  0.00     0.036 A 
HETATM   28 CL   UNL     1      30.872  45.714  58.341  1.00  0.00    -0.084 Cl
HETATM   29  C   UNL     1      30.978  43.900  56.349  1.00  0.00     0.024 A 
HETATM   30  C   UNL     1      30.551  43.345  55.143  1.00  0.00     0.004 A 
HETATM   31  C   UNL     1      29.486  43.919  54.442  1.00  0.00     0.031 A 
ENDBRANCH  22  25
ENDBRANCH   2  20
TORSDOF 7
ENDMDL
MODEL 2
REMARK VINA RESULT:      -9.5      1.142      1.366
REMARK  7 active torsions:
REMARK  status: ('A' for Active; 'I' for Inactive)
REMARK    1  A    between atoms: O_2  and  C_3 
REMARK    2  A    between atoms: C_6  and  N_7 
REMARK    3  A    between atoms: N_7  and  C_8 
REMARK    4  A    between atoms: C_8  and  C_9 
REMARK       I    between atoms: C_9  and  N_10 
REMARK    5  A    between atoms: N_10  and  N_11 
REMARK       I    between atoms: N_11  and  C_12 
REMARK    6  A    between atoms: C_12  and  C_13 
REMARK    7  A    between atoms: N_15  and  C_16 
ROOT
HETATM    1  N   UNL     1      25.003  46.450  51.318  1.00  0.00    -0.263 N 
HETATM    2  C   UNL     1      25.617  46.771  52.515  1.00  0.00     0.273 C 
HETATM    3  O   UNL     1      25.329  47.787  53.147  1.00  0.00    -0.266 OA
HETATM    4  H   UNL     1      25.487  45.853  50.649  1.00  0.00     0.190 HD
ENDROOT
BRANCH   1   5
HETATM    5  N   UNL     1      24.153  47.417  50.743  1.00  0.00    -0.266 N 
HETATM    6  C   UNL     1      23.615  47.122  49.501  1.00  0.00     0.253 C 
HETATM    7  O   UNL     1      23.753  46.020  48.967  1.00  0.00    -0.270 OA
HETATM    8  H   UNL     1      24.360  48.383  50.996  1.00  0.00     0.190 HD
BRANCH   6   9
HETATM    9  C   UNL     1      22.828  48.279  48.874  1.00  0.00     0.224 C 
BRANCH   9  10
HETATM   10  N   UNL     1      21.441  48.235  49.333  1.00  0.00    -0.381 N 
HETATM   11  H   UNL     1      20.938  47.427  48.965  1.00  0.00     0.160 HD
BRANCH  10  12
HETATM   12  C   UNL     1      20.672  49.385  49.456  1.00  0.00     0.028 A 
HETATM   13  C   UNL     1      20.996  50.493  48.661  1.00  0.00     0.032 A 
HETATM   14  C   UNL     1      20.199  51.645  48.638  1.00  0.00     0.039 A 
HETATM   15  C   UNL     1      19.033  51.700  49.396  1.00  0.00     0.068 A 
HETATM   16  C   UNL     1      18.694  50.603  50.187  1.00  0.00     0.039 A 
HETATM   17  C   UNL     1      19.496  49.455  50.207  1.00  0.00     0.032 A 
BRANCH  15  18
HETATM   18  O   UNL     1      18.153  52.744  49.446  1.00  0.00    -0.356 OA
HETATM   19  C   UNL     1      16.824  52.437  49.846  1.00  0.00     0.210 C 
ENDBRANCH  15  18
ENDBRANCH  10  12
ENDBRANCH   9  10
ENDBRANCH   6   9
ENDBRANCH   1   5
BRANCH   2  20
HETATM   20  C   UNL     1      26.622  45.827  52.959  1.00  0.00     0.070 A 
HETATM   21  C   UNL     1      27.468  45.991  54.039  1.00  0.00     0.137 A 
HETATM   22  N   UNL     1      28.245  44.859  54.138  1.00  0.00    -0.244 N 
HETATM   23  N   UNL     1      27.924  43.962  53.172  1.00  0.00    -0.179 NA
HETATM   24  C   UNL     1      26.958  44.552  52.468  1.00  0.00     0.157 A 
BRANCH  22  25
HETATM   25  C   UNL     1      29.265  44.574  55.088  1.00  0.00     0.059 A 
HETATM   26  C   UNL     1      29.477  45.463  56.155  1.00  0.00     0.055 A 
HETATM   27  C   UNL     1      30.479  45.200  57.089  1.00  0.00     0.036 A 
HETATM   28 CL   UNL     1      30.749  46.300  58.385  1.00  0.00    -0.084 Cl
HETATM   29  C   UNL     1      31.265  44.056  56.980  1.00  0.00     0.024 A 
HETATM   30  C   UNL     1      31.054  43.167  55.927  1.00  0.00     0.004 A 
HETATM   31  C   UNL     1      30.059  43.424  54.979  1.00  0.00     0.031 A 
ENDBRANCH  22  25
ENDBRANCH   2  20
TORSDOF 7
ENDMDL
MODEL 3
REMARK VINA RESULT:      -9.3      1.215      1.952
REMARK  7 active torsions:
REMARK  status: ('A' for Active; 'I' for Inactive)
REMARK    1  A    between atoms: O_2  and  C_3 
REMARK    2  A    between atoms: C_6  and  N_7 
REMARK    3  A    between atoms: N_7  and  C_8 
REMARK    4  A    between atoms: C_8  and  C_9 
REMARK       I    between atoms: C_9  and  N_10 
REMARK    5  A    between atoms: N_10  and  N_11 
REMARK       I    between atoms: N_11  and  C_12 
REMARK    6  A    between atoms: C_12  and  C_13 
REMARK    7  A    between atoms: N_15  and  C_16 
ROOT
HETATM    1  N   UNL     1      25.332  45.900  50.630  1.00  0.00    -0.263 N 
HETATM    2  C   UNL     1      25.280  44.875  51.558  1.00  0.00     0.273 C 
HETATM    3  O   UNL     1      24.259  44.216  51.750  1.00  0.00    -0.266 OA
HETATM    4  H   UNL     1      26.015  46.647  50.744  1.00  0.00     0.190 HD
ENDROOT
BRANCH   1   5
HETATM    5  N   UNL     1      24.119  46.293  50.028  1.00  0.00    -0.266 N 
HETATM    6  C   UNL     1      23.985  47.633  49.703  1.00  0.00     0.253 C 
HETATM    7  O   UNL     1      24.916  48.435  49.808  1.00  0.00    -0.270 OA
HETATM    8  H   UNL     1      23.302  45.746  50.297  1.00  0.00     0.190 HD
BRANCH   6   9
HETATM    9  C   UNL     1      22.589  48.013  49.195  1.00  0.00     0.224 C 
BRANCH   9  10
HETATM   10  N   UNL     1      22.308  49.408  49.528  1.00  0.00    -0.381 N 
HETATM   11  H   UNL     1      22.915  49.757  50.270  1.00  0.00     0.160 HD
BRANCH  10  12
HETATM   12  C   UNL     1      21.013  49.909  49.559  1.00  0.00     0.028 A 
HETATM   13  C   UNL     1      19.971  49.041  49.915  1.00  0.00     0.032 A 
HETATM   14  C   UNL     1      18.657  49.496  50.087  1.00  0.00     0.039 A 
HETATM   15  C   UNL     1      18.362  50.847  49.933  1.00  0.00     0.068 A 
HETATM   16  C   UNL     1      19.389  51.724  49.586  1.00  0.00     0.039 A 
HETATM   17  C   UNL     1      20.701  51.263  49.415  1.00  0.00     0.032 A 
BRANCH  15  18
HETATM   18  O   UNL     1      17.137  51.428  50.098  1.00  0.00    -0.356 OA
HETATM   19  C   UNL     1      17.026  52.796  49.726  1.00  0.00     0.210 C 
ENDBRANCH  15  18
ENDBRANCH  10  12
ENDBRANCH   9  10
ENDBRANCH   6   9
ENDBRANCH   1   5
BRANCH   2  20
HETATM   20  C   UNL     1      26.513  44.644  52.283  1.00  0.00     0.070 A 
HETATM   21  C   UNL     1      26.827  45.151  53.529  1.00  0.00     0.137 A 
HETATM   22  N   UNL     1      28.072  44.673  53.874  1.00  0.00    -0.244 N 
HETATM   23  N   UNL     1      28.568  43.864  52.904  1.00  0.00    -0.179 NA
HETATM   24  C   UNL     1      27.632  43.858  51.955  1.00  0.00     0.157 A 
BRANCH  22  25
HETATM   25  C   UNL     1      28.814  44.930  55.059  1.00  0.00     0.059 A 
HETATM   26  C   UNL     1      29.950  44.153  55.341  1.00  0.00     0.055 A 
HETATM   27  C   UNL     1      30.682  44.389  56.503  1.00  0.00     0.036 A 
HETATM   28 CL   UNL     1      32.063  43.423  56.855  1.00  0.00    -0.084 Cl
HETATM   29  C   UNL     1      30.305  45.398  57.385  1.00  0.00     0.024 A 
HETATM   30  C   UNL     1      29.183  46.178  57.107  1.00  0.00     0.004 A 
HETATM   31  C   UNL     1      28.434  45.945  55.950  1.00  0.00     0.031 A 
ENDBRANCH  22  25
ENDBRANCH   2  20
TORSDOF 7
ENDMDL
MODEL 4
REMARK VINA RESULT:      -9.1      4.208     11.419
REMARK  7 active torsions:
REMARK  status: ('A' for Active; 'I' for Inactive)
REMARK    1  A    between atoms: O_2  and  C_3 
REMARK    2  A    between atoms: C_6  and  N_7 
REMARK    3  A    between atoms: N_7  and  C_8 
REMARK    4  A    between atoms: C_8  and  C_9 
REMARK       I    between atoms: C_9  and  N_10 
REMARK    5  A    between atoms: N_10  and  N_11 
REMARK       I    between atoms: N_11  and  C_12 
REMARK    6  A    between atoms: C_12  and  C_13 
REMARK    7  A    between atoms: N_15  and  C_16 
ROOT
HETATM    1  N   UNL     1      24.670  47.035  50.692  1.00  0.00    -0.263 N 
HETATM    2  C   UNL     1      25.316  47.863  49.792  1.00  0.00     0.273 C 
HETATM    3  O   UNL     1      26.538  47.844  49.646  1.00  0.00    -0.266 OA
HETATM    4  H   UNL     1      23.762  47.309  51.064  1.00  0.00     0.190 HD
ENDROOT
BRANCH   1   5
HETATM    5  N   UNL     1      25.471  46.284  51.576  1.00  0.00    -0.266 N 
HETATM    6  C   UNL     1      24.965  45.068  52.004  1.00  0.00     0.253 C 
HETATM    7  O   UNL     1      23.927  44.586  51.545  1.00  0.00    -0.270 OA
HETATM    8  H   UNL     1      26.074  46.833  52.189  1.00  0.00     0.190 HD
BRANCH   6   9
HETATM    9  C   UNL     1      25.818  44.382  53.078  1.00  0.00     0.224 C 
BRANCH   9  10
HETATM   10  N   UNL     1      27.215  44.782  52.923  1.00  0.00    -0.381 N 
HETATM   11  H   UNL     1      27.588  44.536  52.005  1.00  0.00     0.160 HD
BRANCH  10  12
HETATM   12  C   UNL     1      28.129  44.674  53.963  1.00  0.00     0.028 A 
HETATM   13  C   UNL     1      28.984  43.563  53.987  1.00  0.00     0.032 A 
HETATM   14  C   UNL     1      30.012  43.441  54.931  1.00  0.00     0.039 A 
HETATM   15  C   UNL     1      30.226  44.454  55.862  1.00  0.00     0.068 A 
HETATM   16  C   UNL     1      29.389  45.569  55.846  1.00  0.00     0.039 A 
HETATM   17  C   UNL     1      28.362  45.683  54.900  1.00  0.00     0.032 A 
BRANCH  15  18
HETATM   18  O   UNL     1      31.204  44.478  56.815  1.00  0.00    -0.356 OA
HETATM   19  C   UNL     1      31.805  43.232  57.142  1.00  0.00     0.210 C 
ENDBRANCH  15  18
ENDBRANCH  10  12
ENDBRANCH   9  10
ENDBRANCH   6   9
ENDBRANCH   1   5
BRANCH   2  20
HETATM   20  C   UNL     1      24.448  48.749  49.044  1.00  0.00     0.070 A 
HETATM   21  C   UNL     1      23.083  48.881  49.213  1.00  0.00     0.137 A 
HETATM   22  N   UNL     1      22.643  49.844  48.334  1.00  0.00    -0.244 N 
HETATM   23  N   UNL     1      23.674  50.351  47.611  1.00  0.00    -0.179 NA
HETATM   24  C   UNL     1      24.747  49.686  48.038  1.00  0.00     0.157 A 
BRANCH  22  25
HETATM   25  C   UNL     1      21.315  50.313  48.138  1.00  0.00     0.059 A 
HETATM   26  C   UNL     1      20.416  49.538  47.385  1.00  0.00     0.055 A 
HETATM   27  C   UNL     1      19.114  49.991  47.178  1.00  0.00     0.036 A 
HETATM   28 CL   UNL     1      18.021  49.048  46.241  1.00  0.00    -0.084 Cl
HETATM   29  C   UNL     1      18.690  51.201  47.721  1.00  0.00     0.024 A 
HETATM   30  C   UNL     1      19.575  51.970  48.475  1.00  0.00     0.004 A 
HETATM   31  C   UNL     1      20.887  51.533  48.682  1.00  0.00     0.031 A 
ENDBRANCH  22  25
ENDBRANCH   2  20
TORSDOF 7
ENDMDL
MODEL 5
REMARK VINA RESULT:      -9.1      1.578      1.968
REMARK  7 active torsions:
REMARK  status: ('A' for Active; 'I' for Inactive)
REMARK    1  A    between atoms: O_2  and  C_3 
REMARK    2  A    between atoms: C_6  and  N_7 
REMARK    3  A    between atoms: N_7  and  C_8 
REMARK    4  A    between atoms: C_8  and  C_9 
REMARK       I    between atoms: C_9  and  N_10 
REMARK    5  A    between atoms: N_10  and  N_11 
REMARK       I    between atoms: N_11  and  C_12 
REMARK    6  A    between atoms: C_12  and  C_13 
REMARK    7  A    between atoms: N_15  and  C_16 
ROOT
HETATM    1  N   UNL     1      24.463  46.825  50.603  1.00  0.00    -0.263 N 
HETATM    2  C   UNL     1      24.691  45.561  50.090  1.00  0.00     0.273 C 
HETATM    3  O   UNL     1      24.185  45.182  49.034  1.00  0.00    -0.266 OA
HETATM    4  H   UNL     1      24.562  46.986  51.604  1.00  0.00     0.190 HD
ENDROOT
BRANCH   1   5
HETATM    5  N   UNL     1      23.483  47.617  49.970  1.00  0.00    -0.266 N 
HETATM    6  C   UNL     1      23.911  48.799  49.388  1.00  0.00     0.253 C 
HETATM    7  O   UNL     1      25.103  49.099  49.301  1.00  0.00    -0.270 OA
HETATM    8  H   UNL     1      22.546  47.551  50.368  1.00  0.00     0.190 HD
BRANCH   6   9
HETATM    9  C   UNL     1      22.772  49.677  48.855  1.00  0.00     0.224 C 
BRANCH   9  10
HETATM   10  N   UNL     1      21.585  49.500  49.689  1.00  0.00    -0.381 N 
HETATM   11  H   UNL     1      21.346  48.516  49.817  1.00  0.00     0.160 HD
BRANCH  10  12
HETATM   12  C   UNL     1      20.491  50.350  49.599  1.00  0.00     0.028 A 
HETATM   13  C   UNL     1      20.556  51.429  48.705  1.00  0.00     0.032 A 
HETATM   14  C   UNL     1      19.454  52.260  48.467  1.00  0.00     0.039 A 
HETATM   15  C   UNL     1      18.242  52.008  49.104  1.00  0.00     0.068 A 
HETATM   16  C   UNL     1      18.159  50.935  49.990  1.00  0.00     0.039 A 
HETATM   17  C   UNL     1      19.266  50.109  50.225  1.00  0.00     0.032 A 
BRANCH  15  18
HETATM   18  O   UNL     1      17.085  52.716  48.944  1.00  0.00    -0.356 OA
HETATM   19  C   UNL     1      16.265  52.864  50.096  1.00  0.00     0.210 C 
ENDBRANCH  15  18
ENDBRANCH  10  12
ENDBRANCH   9  10
ENDBRANCH   6   9
ENDBRANCH   1   5
BRANCH   2  20
HETATM   20  C   UNL     1      25.561  44.724  50.889  1.00  0.00     0.070 A 
HETATM   21  C   UNL     1      26.529  45.168  51.770  1.00  0.00     0.137 A 
HETATM   22  N   UNL     1      27.109  44.062  52.348  1.00  0.00    -0.244 N 
HETATM   23  N   UNL     1      26.544  42.918  51.885  1.00  0.00    -0.179 NA
HETATM   24  C   UNL     1      25.625  43.324  51.009  1.00  0.00     0.157 A 
BRANCH  22  25
HETATM   25  C   UNL     1      28.157  44.020  53.308  1.00  0.00     0.059 A 
HETATM   26  C   UNL     1      28.128  44.908  54.397  1.00  0.00     0.055 A 
HETATM   27  C   UNL     1      29.153  44.883  55.341  1.00  0.00     0.036 A 
HETATM   28 CL   UNL     1      29.124  45.985  56.663  1.00  0.00    -0.084 Cl
HETATM   29  C   UNL     1      30.204  43.977  55.222  1.00  0.00     0.024 A 
HETATM   30  C   UNL     1      30.234  43.089  54.147  1.00  0.00     0.004 A 
HETATM   31  C   UNL     1      29.218  43.110  53.188  1.00  0.00     0.031 A 
ENDBRANCH  22  25
ENDBRANCH   2  20
TORSDOF 7
ENDMDL
MODEL 6
REMARK VINA RESULT:      -8.5      4.493     10.478
REMARK  7 active torsions:
REMARK  status: ('A' for Active; 'I' for Inactive)
REMARK    1  A    between atoms: O_2  and  C_3 
REMARK    2  A    between atoms: C_6  and  N_7 
REMARK    3  A    between atoms: N_7  and  C_8 
REMARK    4  A    between atoms: C_8  and  C_9 
REMARK       I    between atoms: C_9  and  N_10 
REMARK    5  A    between atoms: N_10  and  N_11 
REMARK       I    between atoms: N_11  and  C_12 
REMARK    6  A    between atoms: C_12  and  C_13 
REMARK    7  A    between atoms: N_15  and  C_16 
ROOT
HETATM    1  N   UNL     1      26.114  43.808  49.376  1.00  0.00    -0.263 N 
HETATM    2  C   UNL     1      25.834  44.979  50.057  1.00  0.00     0.273 C 
HETATM    3  O   UNL     1      26.509  45.357  51.014  1.00  0.00    -0.266 OA
HETATM    4  H   UNL     1      25.370  43.332  48.867  1.00  0.00     0.190 HD
ENDROOT
BRANCH   1   5
HETATM    5  N   UNL     1      27.096  42.957  49.923  1.00  0.00    -0.266 N 
HETATM    6  C   UNL     1      26.648  41.854  50.630  1.00  0.00     0.253 C 
HETATM    7  O   UNL     1      25.457  41.541  50.681  1.00  0.00    -0.270 OA
HETATM    8  H   UNL     1      27.971  43.412  50.182  1.00  0.00     0.190 HD
BRANCH   6   9
HETATM    9  C   UNL     1      27.765  41.062  51.322  1.00  0.00     0.224 C 
BRANCH   9  10
HETATM   10  N   UNL     1      27.571  41.104  52.769  1.00  0.00    -0.381 N 
HETATM   11  H   UNL     1      26.688  40.678  53.053  1.00  0.00     0.160 HD
BRANCH  10  12
HETATM   12  C   UNL     1      27.951  42.202  53.530  1.00  0.00     0.028 A 
HETATM   13  C   UNL     1      29.311  42.369  53.826  1.00  0.00     0.032 A 
HETATM   14  C   UNL     1      29.790  43.511  54.483  1.00  0.00     0.039 A 
HETATM   15  C   UNL     1      28.911  44.532  54.834  1.00  0.00     0.068 A 
HETATM   16  C   UNL     1      27.556  44.383  54.540  1.00  0.00     0.039 A 
HETATM   17  C   UNL     1      27.084  43.238  53.885  1.00  0.00     0.032 A 
BRANCH  15  18
HETATM   18  O   UNL     1      29.244  45.705  55.449  1.00  0.00    -0.356 OA
HETATM   19  C   UNL     1      30.353  45.665  56.338  1.00  0.00     0.210 C 
ENDBRANCH  15  18
ENDBRANCH  10  12
ENDBRANCH   9  10
ENDBRANCH   6   9
ENDBRANCH   1   5
BRANCH   2  20
HETATM   20  C   UNL     1      24.690  45.716  49.561  1.00  0.00     0.070 A 
HETATM   21  C   UNL     1      24.503  47.082  49.655  1.00  0.00     0.137 A 
HETATM   22  N   UNL     1      23.310  47.385  49.038  1.00  0.00    -0.244 N 
HETATM   23  N   UNL     1      22.725  46.268  48.535  1.00  0.00    -0.179 NA
HETATM   24  C   UNL     1      23.554  45.276  48.858  1.00  0.00     0.157 A 
BRANCH  22  25
HETATM   25  C   UNL     1      22.695  48.658  48.892  1.00  0.00     0.059 A 
HETATM   26  C   UNL     1      21.293  48.752  48.925  1.00  0.00     0.055 A 
HETATM   27  C   UNL     1      20.677  49.993  48.775  1.00  0.00     0.036 A 
HETATM   28 CL   UNL     1      18.959  50.103  48.797  1.00  0.00    -0.084 Cl
HETATM   29  C   UNL     1      21.438  51.147  48.605  1.00  0.00     0.024 A 
HETATM   30  C   UNL     1      22.830  51.060  48.580  1.00  0.00     0.004 A 
HETATM   31  C   UNL     1      23.461  49.820  48.719  1.00  0.00     0.031 A 
ENDBRANCH  22  25
ENDBRANCH   2  20
TORSDOF 7
ENDMDL
MODEL 7
REMARK VINA RESULT:      -8.4      2.351      3.186
REMARK  7 active torsions:
REMARK  status: ('A' for Active; 'I' for Inactive)
REMARK    1  A    between atoms: O_2  and  C_3 
REMARK    2  A    between atoms: C_6  and  N_7 
REMARK    3  A    between atoms: N_7  and  C_8 
REMARK    4  A    between atoms: C_8  and  C_9 
REMARK       I    between atoms: C_9  and  N_10 
REMARK    5  A    between atoms: N_10  and  N_11 
REMARK       I    between atoms: N_11  and  C_12 
REMARK    6  A    between atoms: C_12  and  C_13 
REMARK    7  A    between atoms: N_15  and  C_16 
ROOT
HETATM    1  N   UNL     1      24.683  45.279  51.863  1.00  0.00    -0.263 N 
HETATM    2  C   UNL     1      25.320  46.477  52.132  1.00  0.00     0.273 C 
HETATM    3  O   UNL     1      25.090  47.500  51.488  1.00  0.00    -0.266 OA
HETATM    4  H   UNL     1      25.131  44.402  52.123  1.00  0.00     0.190 HD
ENDROOT
BRANCH   1   5
HETATM    5  N   UNL     1      23.882  45.214  50.704  1.00  0.00    -0.266 N 
HETATM    6  C   UNL     1      23.430  43.961  50.322  1.00  0.00     0.253 C 
HETATM    7  O   UNL     1      23.599  42.958  51.018  1.00  0.00    -0.270 OA
HETATM    8  H   UNL     1      24.077  45.926  50.000  1.00  0.00     0.190 HD
BRANCH   6   9
HETATM    9  C   UNL     1      22.697  43.949  48.975  1.00  0.00     0.224 C 
BRANCH   9  10
HETATM   10  N   UNL     1      22.636  45.307  48.438  1.00  0.00    -0.381 N 
HETATM   11  H   UNL     1      23.430  45.875  48.732  1.00  0.00     0.160 HD
BRANCH  10  12
HETATM   12  C   UNL     1      21.438  46.002  48.336  1.00  0.00     0.028 A 
HETATM   13  C   UNL     1      20.248  45.268  48.235  1.00  0.00     0.032 A 
HETATM   14  C   UNL     1      18.992  45.890  48.250  1.00  0.00     0.039 A 
HETATM   15  C   UNL     1      18.901  47.271  48.396  1.00  0.00     0.068 A 
HETATM   16  C   UNL     1      20.076  48.014  48.504  1.00  0.00     0.039 A 
HETATM   17  C   UNL     1      21.328  47.386  48.487  1.00  0.00     0.032 A 
BRANCH  15  18
HETATM   18  O   UNL     1      17.747  48.001  48.454  1.00  0.00    -0.356 OA
HETATM   19  C   UNL     1      16.567  47.297  48.820  1.00  0.00     0.210 C 
ENDBRANCH  15  18
ENDBRANCH  10  12
ENDBRANCH   9  10
ENDBRANCH   6   9
ENDBRANCH   1   5
BRANCH   2  20
HETATM   20  C   UNL     1      26.276  46.430  53.219  1.00  0.00     0.070 A 
HETATM   21  C   UNL     1      27.206  45.432  53.439  1.00  0.00     0.137 A 
HETATM   22  N   UNL     1      27.938  45.779  54.552  1.00  0.00    -0.244 N 
HETATM   23  N   UNL     1      27.526  46.971  55.052  1.00  0.00    -0.179 NA
HETATM   24  C   UNL     1      26.529  47.349  54.253  1.00  0.00     0.157 A 
BRANCH  22  25
HETATM   25  C   UNL     1      28.998  45.058  55.166  1.00  0.00     0.059 A 
HETATM   26  C   UNL     1      29.506  45.500  56.399  1.00  0.00     0.055 A 
HETATM   27  C   UNL     1      30.551  44.807  57.008  1.00  0.00     0.036 A 
HETATM   28 CL   UNL     1      31.184  45.361  58.510  1.00  0.00    -0.084 Cl
HETATM   29  C   UNL     1      31.091  43.671  56.411  1.00  0.00     0.024 A 
HETATM   30  C   UNL     1      30.586  43.223  55.190  1.00  0.00     0.004 A 
HETATM   31  C   UNL     1      29.545  43.915  54.564  1.00  0.00     0.031 A 
ENDBRANCH  22  25
ENDBRANCH   2  20
TORSDOF 7
ENDMDL
MODEL 8
REMARK VINA RESULT:      -8.1      2.189      2.835
REMARK  7 active torsions:
REMARK  status: ('A' for Active; 'I' for Inactive)
REMARK    1  A    between atoms: O_2  and  C_3 
REMARK    2  A    between atoms: C_6  and  N_7 
REMARK    3  A    between atoms: N_7  and  C_8 
REMARK    4  A    between atoms: C_8  and  C_9 
REMARK       I    between atoms: C_9  and  N_10 
REMARK    5  A    between atoms: N_10  and  N_11 
REMARK       I    between atoms: N_11  and  C_12 
REMARK    6  A    between atoms: C_12  and  C_13 
REMARK    7  A    between atoms: N_15  and  C_16 
ROOT
HETATM    1  N   UNL     1      23.530  45.420  49.906  1.00  0.00    -0.263 N 
HETATM    2  C   UNL     1      24.798  45.967  49.970  1.00  0.00     0.273 C 
HETATM    3  O   UNL     1      25.030  47.127  49.628  1.00  0.00    -0.266 OA
HETATM    4  H   UNL     1      23.422  44.410  49.825  1.00  0.00     0.190 HD
ENDROOT
BRANCH   1   5
HETATM    5  N   UNL     1      22.527  46.176  49.265  1.00  0.00    -0.266 N 
HETATM    6  C   UNL     1      21.573  45.474  48.547  1.00  0.00     0.253 C 
HETATM    7  O   UNL     1      21.508  44.243  48.563  1.00  0.00    -0.270 OA
HETATM    8  H   UNL     1      22.810  47.109  48.966  1.00  0.00     0.190 HD
BRANCH   6   9
HETATM    9  C   UNL     1      20.609  46.366  47.755  1.00  0.00     0.224 C 
BRANCH   9  10
HETATM   10  N   UNL     1      21.299  47.585  47.339  1.00  0.00    -0.381 N 
HETATM   11  H   UNL     1      22.306  47.529  47.490  1.00  0.00     0.160 HD
BRANCH  10  12
HETATM   12  C   UNL     1      20.755  48.845  47.549  1.00  0.00     0.028 A 
HETATM   13  C   UNL     1      19.373  49.010  47.382  1.00  0.00     0.032 A 
HETATM   14  C   UNL     1      18.729  50.217  47.691  1.00  0.00     0.039 A 
HETATM   15  C   UNL     1      19.461  51.283  48.207  1.00  0.00     0.068 A 
HETATM   16  C   UNL     1      20.835  51.132  48.385  1.00  0.00     0.039 A 
HETATM   17  C   UNL     1      21.472  49.924  48.072  1.00  0.00     0.032 A 
BRANCH  15  18
HETATM   18  O   UNL     1      18.960  52.499  48.575  1.00  0.00    -0.356 OA
HETATM   19  C   UNL     1      17.978  52.498  49.604  1.00  0.00     0.210 C 
ENDBRANCH  15  18
ENDBRANCH  10  12
ENDBRANCH   9  10
ENDBRANCH   6   9
ENDBRANCH   1   5
BRANCH   2  20
HETATM   20  C   UNL     1      25.826  45.073  50.462  1.00  0.00     0.070 A 
HETATM   21  C   UNL     1      26.575  45.252  51.609  1.00  0.00     0.137 A 
HETATM   22  N   UNL     1      27.415  44.168  51.735  1.00  0.00    -0.244 N 
HETATM   23  N   UNL     1      27.227  43.287  50.719  1.00  0.00    -0.179 NA
HETATM   24  C   UNL     1      26.281  43.840  49.961  1.00  0.00     0.157 A 
BRANCH  22  25
HETATM   25  C   UNL     1      28.376  43.915  52.752  1.00  0.00     0.059 A 
HETATM   26  C   UNL     1      28.346  44.678  53.931  1.00  0.00     0.055 A 
HETATM   27  C   UNL     1      29.287  44.445  54.932  1.00  0.00     0.036 A 
HETATM   28 CL   UNL     1      29.259  45.394  56.369  1.00  0.00    -0.084 Cl
HETATM   29  C   UNL     1      30.253  43.453  54.781  1.00  0.00     0.024 A 
HETATM   30  C   UNL     1      30.283  42.688  53.615  1.00  0.00     0.004 A 
HETATM   31  C   UNL     1      29.350  42.918  52.599  1.00  0.00     0.031 A 
ENDBRANCH  22  25
ENDBRANCH   2  20
TORSDOF 7
ENDMDL
MODEL 9
REMARK VINA RESULT:      -8.0      2.733      3.772
REMARK  7 active torsions:
REMARK  status: ('A' for Active; 'I' for Inactive)
REMARK    1  A    between atoms: O_2  and  C_3 
REMARK    2  A    between atoms: C_6  and  N_7 
REMARK    3  A    between atoms: N_7  and  C_8 
REMARK    4  A    between atoms: C_8  and  C_9 
REMARK       I    between atoms: C_9  and  N_10 
REMARK    5  A    between atoms: N_10  and  N_11 
REMARK       I    between atoms: N_11  and  C_12 
REMARK    6  A    between atoms: C_12  and  C_13 
REMARK    7  A    between atoms: N_15  and  C_16 
ROOT
HETATM    1  N   UNL     1      25.738  44.218  50.370  1.00  0.00    -0.263 N 
HETATM    2  C   UNL     1      26.827  43.384  50.189  1.00  0.00     0.273 C 
HETATM    3  O   UNL     1      27.073  42.853  49.106  1.00  0.00    -0.266 OA
HETATM    4  H   UNL     1      25.344  44.335  51.302  1.00  0.00     0.190 HD
ENDROOT
BRANCH   1   5
HETATM    5  N   UNL     1      24.805  44.306  49.316  1.00  0.00    -0.266 N 
HETATM    6  C   UNL     1      23.491  43.980  49.612  1.00  0.00     0.253 C 
HETATM    7  O   UNL     1      23.111  43.748  50.762  1.00  0.00    -0.270 OA
HETATM    8  H   UNL     1      25.181  44.127  48.386  1.00  0.00     0.190 HD
BRANCH   6   9
HETATM    9  C   UNL     1      22.567  43.951  48.389  1.00  0.00     0.224 C 
BRANCH   9  10
HETATM   10  N   UNL     1      21.392  44.782  48.643  1.00  0.00    -0.381 N 
HETATM   11  H   UNL     1      20.521  44.279  48.479  1.00  0.00     0.160 HD
BRANCH  10  12
HETATM   12  C   UNL     1      21.355  46.126  48.294  1.00  0.00     0.028 A 
HETATM   13  C   UNL     1      20.118  46.694  47.961  1.00  0.00     0.032 A 
HETATM   14  C   UNL     1      19.976  48.067  47.716  1.00  0.00     0.039 A 
HETATM   15  C   UNL     1      21.077  48.911  47.830  1.00  0.00     0.068 A 
HETATM   16  C   UNL     1      22.313  48.362  48.167  1.00  0.00     0.039 A 
HETATM   17  C   UNL     1      22.448  46.989  48.409  1.00  0.00     0.032 A 
BRANCH  15  18
HETATM   18  O   UNL     1      21.076  50.265  47.647  1.00  0.00    -0.356 OA
HETATM   19  C   UNL     1      21.917  51.024  48.507  1.00  0.00     0.210 C 
ENDBRANCH  15  18
ENDBRANCH  10  12
ENDBRANCH   9  10
ENDBRANCH   6   9
ENDBRANCH   1   5
BRANCH   2  20
HETATM   20  C   UNL     1      27.645  43.182  51.367  1.00  0.00     0.070 A 
HETATM   21  C   UNL     1      27.932  44.133  52.327  1.00  0.00     0.137 A 
HETATM   22  N   UNL     1      28.711  43.534  53.291  1.00  0.00    -0.244 N 
HETATM   23  N   UNL     1      28.927  42.226  52.998  1.00  0.00    -0.179 NA
HETATM   24  C   UNL     1      28.292  42.027  51.844  1.00  0.00     0.157 A 
BRANCH  22  25
HETATM   25  C   UNL     1      29.258  44.117  54.467  1.00  0.00     0.059 A 
HETATM   26  C   UNL     1      30.307  43.462  55.135  1.00  0.00     0.055 A 
HETATM   27  C   UNL     1      30.847  44.019  56.293  1.00  0.00     0.036 A 
HETATM   28 CL   UNL     1      32.119  43.206  57.120  1.00  0.00    -0.084 Cl
HETATM   29  C   UNL     1      30.364  45.227  56.790  1.00  0.00     0.024 A 
HETATM   30  C   UNL     1      29.328  45.885  56.127  1.00  0.00     0.004 A 
HETATM   31  C   UNL     1      28.771  45.332  54.970  1.00  0.00     0.031 A 
ENDBRANCH  22  25
ENDBRANCH   2  20
TORSDOF 7
ENDMDL
MODEL 10
REMARK VINA RESULT:      -8.0      4.185     11.058
REMARK  7 active torsions:
REMARK  status: ('A' for Active; 'I' for Inactive)
REMARK    1  A    between atoms: O_2  and  C_3 
REMARK    2  A    between atoms: C_6  and  N_7 
REMARK    3  A    between atoms: N_7  and  C_8 
REMARK    4  A    between atoms: C_8  and  C_9 
REMARK       I    between atoms: C_9  and  N_10 
REMARK    5  A    between atoms: N_10  and  N_11 
REMARK       I    between atoms: N_11  and  C_12 
REMARK    6  A    between atoms: C_12  and  C_13 
REMARK    7  A    between atoms: N_15  and  C_16 
ROOT
HETATM    1  N   UNL     1      24.887  45.723  50.190  1.00  0.00    -0.263 N 
HETATM    2  C   UNL     1      24.107  45.322  49.121  1.00  0.00     0.273 C 
HETATM    3  O   UNL     1      24.399  44.350  48.424  1.00  0.00    -0.266 OA
HETATM    4  H   UNL     1      24.854  46.693  50.501  1.00  0.00     0.190 HD
ENDROOT
BRANCH   1   5
HETATM    5  N   UNL     1      26.136  45.090  50.358  1.00  0.00    -0.266 N 
HETATM    6  C   UNL     1      26.282  44.274  51.468  1.00  0.00     0.253 C 
HETATM    7  O   UNL     1      25.341  43.998  52.214  1.00  0.00    -0.270 OA
HETATM    8  H   UNL     1      26.936  45.602  49.988  1.00  0.00     0.190 HD
BRANCH   6   9
HETATM    9  C   UNL     1      27.708  43.744  51.666  1.00  0.00     0.224 C 
BRANCH   9  10
HETATM   10  N   UNL     1      27.817  43.112  52.979  1.00  0.00    -0.381 N 
HETATM   11  H   UNL     1      26.977  42.590  53.228  1.00  0.00     0.160 HD
BRANCH  10  12
HETATM   12  C   UNL     1      28.441  43.742  54.047  1.00  0.00     0.028 A 
HETATM   13  C   UNL     1      29.694  43.270  54.461  1.00  0.00     0.032 A 
HETATM   14  C   UNL     1      30.441  43.925  55.450  1.00  0.00     0.039 A 
HETATM   15  C   UNL     1      29.956  45.095  56.028  1.00  0.00     0.068 A 
HETATM   16  C   UNL     1      28.714  45.580  55.623  1.00  0.00     0.039 A 
HETATM   17  C   UNL     1      27.972  44.920  54.635  1.00  0.00     0.032 A 
BRANCH  15  18
HETATM   18  O   UNL     1      30.589  45.846  56.978  1.00  0.00    -0.356 OA
HETATM   19  C   UNL     1      30.541  45.358  58.312  1.00  0.00     0.210 C 
ENDBRANCH  15  18
ENDBRANCH  10  12
ENDBRANCH   9  10
ENDBRANCH   6   9
ENDBRANCH   1   5
BRANCH   2  20
HETATM   20  C   UNL     1      22.931  46.134  48.884  1.00  0.00     0.070 A 
HETATM   21  C   UNL     1      22.816  47.488  49.132  1.00  0.00     0.137 A 
HETATM   22  N   UNL     1      21.555  47.880  48.743  1.00  0.00    -0.244 N 
HETATM   23  N   UNL     1      20.854  46.833  48.239  1.00  0.00    -0.179 NA
HETATM   24  C   UNL     1      21.682  45.793  48.333  1.00  0.00     0.157 A 
BRANCH  22  25
HETATM   25  C   UNL     1      20.977  49.177  48.815  1.00  0.00     0.059 A 
HETATM   26  C   UNL     1      19.658  49.317  49.278  1.00  0.00     0.055 A 
HETATM   27  C   UNL     1      19.077  50.582  49.347  1.00  0.00     0.036 A 
HETATM   28 CL   UNL     1      17.454  50.748  49.897  1.00  0.00    -0.084 Cl
HETATM   29  C   UNL     1      19.796  51.714  48.971  1.00  0.00     0.024 A 
HETATM   30  C   UNL     1      21.108  51.582  48.517  1.00  0.00     0.004 A 
HETATM   31  C   UNL     1      21.700  50.318  48.435  1.00  0.00     0.031 A 
ENDBRANCH  22  25
ENDBRANCH   2  20
TORSDOF 7
ENDMDL
