MODEL 1
REMARK VINA RESULT:      -9.9      0.000      0.000
REMARK  8 active torsions:
REMARK  status: ('A' for Active; 'I' for Inactive)
REMARK    1  A    between atoms: C_2  and  C_3 
REMARK    2  A    between atoms: C_6  and  N_7 
REMARK       I    between atoms: N_7  and  C_8 
REMARK    3  A    between atoms: C_8  and  O_9 
REMARK    4  A    between atoms: O_9  and  C_10 
REMARK    5  A    between atoms: C_13  and  N_14 
REMARK       I    between atoms: N_14  and  C_15 
REMARK    6  A    between atoms: C_15  and  C_16 
REMARK    7  A    between atoms: N_19  and  C_20 
REMARK    8  A    between atoms: C_22  and  C_23 
ROOT
HETATM    1  C   UNL     1      22.177  50.672  48.739  1.00  0.00     0.189 C 
HETATM    2  C   UNL     1      22.402  49.381  49.533  1.00  0.00     0.184 C 
HETATM    3  C   UNL     1      23.760  48.860  49.069  1.00  0.00     0.177 C 
HETATM    4  C   UNL     1      23.520  47.395  48.740  1.00  0.00     0.139 C 
HETATM    5  C   UNL     1      22.052  47.432  48.330  1.00  0.00     0.196 C 
HETATM    6  O   UNL     1      21.425  48.359  49.232  1.00  0.00    -0.378 OA
HETATM    7  O   UNL     1      24.094  49.592  47.874  1.00  0.00    -0.378 OA
HETATM    8  C   UNL     1      23.501  50.889  48.024  1.00  0.00     0.203 C 
ENDROOT
BRANCH   4   9
HETATM    9  N   UNL     1      23.714  46.488  49.873  1.00  0.00    -0.351 N 
HETATM   10  C   UNL     1      24.749  45.578  49.913  1.00  0.00     0.222 C 
HETATM   11  O   UNL     1      25.700  45.616  49.141  1.00  0.00    -0.273 OA
HETATM   12  H   UNL     1      22.911  46.313  50.465  1.00  0.00     0.163 HD
BRANCH  10  13
HETATM   13  C   UNL     1      24.559  44.495  50.972  1.00  0.00     0.081 C 
HETATM   14  C   UNL     1      25.412  43.251  50.694  1.00  0.00     0.034 C 
HETATM   15  C   UNL     1      26.872  43.414  51.119  1.00  0.00     0.142 C 
HETATM   16  N   UNL     1      26.914  43.881  52.504  1.00  0.00    -0.214 N 
HETATM   17  C   UNL     1      26.259  45.159  52.751  1.00  0.00     0.142 C 
HETATM   18  C   UNL     1      24.778  45.026  52.394  1.00  0.00     0.034 C 
BRANCH  16  19
HETATM   19  C   UNL     1      28.106  43.655  53.183  1.00  0.00     0.724 A 
HETATM   20  N   UNL     1      28.358  44.364  54.294  1.00  0.00    -0.058 NA
HETATM   21  C   UNL     1      29.562  44.223  54.909  1.00  0.00     0.160 A 
HETATM   22  C   UNL     1      30.529  43.370  54.419  1.00  0.00     0.057 A 
HETATM   23  C   UNL     1      30.191  42.674  53.291  1.00  0.00     0.139 A 
HETATM   24  N   UNL     1      29.006  42.803  52.668  1.00  0.00    -0.075 NA
BRANCH  21  25
HETATM   25  C   UNL     1      29.869  45.067  56.132  1.00  0.00     0.435 C 
HETATM   26  F   UNL     1      30.567  44.417  57.105  1.00  0.00    -0.165 F 
HETATM   27  F   UNL     1      30.610  46.174  55.827  1.00  0.00    -0.165 F 
HETATM   28  F   UNL     1      28.740  45.544  56.733  1.00  0.00    -0.165 F 
ENDBRANCH  21  25
ENDBRANCH  16  19
ENDBRANCH  10  13
ENDBRANCH   4   9
BRANCH   1  29
HETATM   29  O   UNL     1      21.137  50.502  47.756  1.00  0.00    -0.293 OA
BRANCH  29  30
HETATM   30  C   UNL     1      19.966  51.116  48.050  1.00  0.00     0.365 C 
HETATM   31  N   UNL     1      18.829  50.394  47.800  1.00  0.00    -0.303 N 
HETATM   32  H   UNL     1      18.010  50.923  48.068  1.00  0.00     0.171 HD
HETATM   33  O   UNL     1      19.883  52.246  48.521  1.00  0.00    -0.238 OA
BRANCH  31  34
HETATM   34  C   UNL     1      18.622  49.060  47.407  1.00  0.00     0.036 A 
HETATM   35  C   UNL     1      18.947  48.529  46.158  1.00  0.00     0.030 A 
HETATM   36  C   UNL     1      18.777  47.162  45.891  1.00  0.00     0.017 A 
HETATM   37  C   UNL     1      18.267  46.310  46.873  1.00  0.00     0.009 A 
HETATM   38  C   UNL     1      17.894  46.843  48.110  1.00  0.00     0.017 A 
HETATM   39  C   UNL     1      18.072  48.206  48.372  1.00  0.00     0.030 A 
BRANCH  37  40
HETATM   40  C   UNL     1      18.111  44.844  46.653  1.00  0.00     0.155 C 
HETATM   41  C   UNL     1      17.177  44.367  45.571  1.00  0.00     0.096 C 
HETATM   42  O   UNL     1      18.745  44.050  47.344  1.00  0.00    -0.293 OA
ENDBRANCH  37  40
ENDBRANCH  31  34
ENDBRANCH  29  30
ENDBRANCH   1  29
TORSDOF 8
ENDMDL
MODEL 2
REMARK VINA RESULT:      -9.8      4.682     11.779
REMARK  8 active torsions:
REMARK  status: ('A' for Active; 'I' for Inactive)
REMARK    1  A    between atoms: C_2  and  C_3 
REMARK    2  A    between atoms: C_6  and  N_7 
REMARK       I    between atoms: N_7  and  C_8 
REMARK    3  A    between atoms: C_8  and  O_9 
REMARK    4  A    between atoms: O_9  and  C_10 
REMARK    5  A    between atoms: C_13  and  N_14 
REMARK       I    between atoms: N_14  and  C_15 
REMARK    6  A    between atoms: C_15  and  C_16 
REMARK    7  A    between atoms: N_19  and  C_20 
REMARK    8  A    between atoms: C_22  and  C_23 
ROOT
HETATM    1  C   UNL     1      26.138  42.722  49.588  1.00  0.00     0.189 C 
HETATM    2  C   UNL     1      24.762  42.922  48.946  1.00  0.00     0.184 C 
HETATM    3  C   UNL     1      24.608  44.434  48.798  1.00  0.00     0.177 C 
HETATM    4  C   UNL     1      23.236  44.740  49.379  1.00  0.00     0.139 C 
HETATM    5  C   UNL     1      23.105  43.622  50.406  1.00  0.00     0.196 C 
HETATM    6  O   UNL     1      23.679  42.460  49.784  1.00  0.00    -0.378 OA
HETATM    7  O   UNL     1      25.638  45.033  49.608  1.00  0.00    -0.378 OA
HETATM    8  C   UNL     1      26.742  44.118  49.586  1.00  0.00     0.203 C 
ENDROOT
BRANCH   4   9
HETATM    9  N   UNL     1      22.146  44.673  48.405  1.00  0.00    -0.351 N 
HETATM   10  C   UNL     1      21.796  45.753  47.622  1.00  0.00     0.222 C 
HETATM   11  O   UNL     1      22.499  46.750  47.509  1.00  0.00    -0.273 OA
HETATM   12  H   UNL     1      21.454  43.945  48.538  1.00  0.00     0.163 HD
BRANCH  10  13
HETATM   13  C   UNL     1      20.426  45.601  46.964  1.00  0.00     0.081 C 
HETATM   14  C   UNL     1      19.295  45.481  47.993  1.00  0.00     0.034 C 
HETATM   15  C   UNL     1      18.867  46.827  48.579  1.00  0.00     0.142 C 
HETATM   16  N   UNL     1      18.594  47.756  47.484  1.00  0.00    -0.214 N 
HETATM   17  C   UNL     1      19.720  48.022  46.597  1.00  0.00     0.142 C 
HETATM   18  C   UNL     1      20.145  46.709  45.941  1.00  0.00     0.034 C 
BRANCH  16  19
HETATM   19  C   UNL     1      17.785  48.841  47.799  1.00  0.00     0.724 A 
HETATM   20  N   UNL     1      18.348  49.925  48.355  1.00  0.00    -0.058 NA
HETATM   21  C   UNL     1      17.552  50.951  48.758  1.00  0.00     0.160 A 
HETATM   22  C   UNL     1      16.182  50.905  48.608  1.00  0.00     0.057 A 
HETATM   23  C   UNL     1      15.686  49.773  48.021  1.00  0.00     0.139 A 
HETATM   24  N   UNL     1      16.458  48.748  47.619  1.00  0.00    -0.075 NA
BRANCH  21  25
HETATM   25  C   UNL     1      18.183  52.151  49.439  1.00  0.00     0.435 C 
HETATM   26  F   UNL     1      18.682  53.087  48.584  1.00  0.00    -0.165 F 
HETATM   27  F   UNL     1      17.298  52.820  50.238  1.00  0.00    -0.165 F 
HETATM   28  F   UNL     1      19.215  51.802  50.260  1.00  0.00    -0.165 F 
ENDBRANCH  21  25
ENDBRANCH  16  19
ENDBRANCH  10  13
ENDBRANCH   4   9
BRANCH   1  29
HETATM   29  O   UNL     1      26.015  42.269  50.950  1.00  0.00    -0.293 OA
BRANCH  29  30
HETATM   30  C   UNL     1      26.495  41.024  51.186  1.00  0.00     0.365 C 
HETATM   31  N   UNL     1      27.511  40.935  52.101  1.00  0.00    -0.303 N 
HETATM   32  H   UNL     1      27.788  39.970  52.225  1.00  0.00     0.171 HD
HETATM   33  O   UNL     1      26.069  40.010  50.641  1.00  0.00    -0.238 OA
BRANCH  31  34
HETATM   34  C   UNL     1      28.092  41.878  52.965  1.00  0.00     0.036 A 
HETATM   35  C   UNL     1      27.392  42.690  53.858  1.00  0.00     0.030 A 
HETATM   36  C   UNL     1      28.073  43.543  54.741  1.00  0.00     0.017 A 
HETATM   37  C   UNL     1      29.469  43.601  54.730  1.00  0.00     0.009 A 
HETATM   38  C   UNL     1      30.174  42.827  53.805  1.00  0.00     0.017 A 
HETATM   39  C   UNL     1      29.490  41.974  52.932  1.00  0.00     0.030 A 
BRANCH  37  40
HETATM   40  C   UNL     1      30.238  44.456  55.677  1.00  0.00     0.155 C 
HETATM   41  C   UNL     1      31.363  43.838  56.466  1.00  0.00     0.096 C 
HETATM   42  O   UNL     1      29.953  45.646  55.796  1.00  0.00    -0.293 OA
ENDBRANCH  37  40
ENDBRANCH  31  34
ENDBRANCH  29  30
ENDBRANCH   1  29
TORSDOF 8
ENDMDL
MODEL 3
REMARK VINA RESULT:      -9.6      2.190      4.650
REMARK  8 active torsions:
REMARK  status: ('A' for Active; 'I' for Inactive)
REMARK    1  A    between atoms: C_2  and  C_3 
REMARK    2  A    between atoms: C_6  and  N_7 
REMARK       I    between atoms: N_7  and  C_8 
REMARK    3  A    between atoms: C_8  and  O_9 
REMARK    4  A    between atoms: O_9  and  C_10 
REMARK    5  A    between atoms: C_13  and  N_14 
REMARK       I    between atoms: N_14  and  C_15 
REMARK    6  A    between atoms: C_15  and  C_16 
REMARK    7  A    between atoms: N_19  and  C_20 
REMARK    8  A    between atoms: C_22  and  C_23 
ROOT
HETATM    1  C   UNL     1      18.123  46.255  46.371  1.00  0.00     0.189 C 
HETATM    2  C   UNL     1      19.619  46.139  46.680  1.00  0.00     0.184 C 
HETATM    3  C   UNL     1      19.816  44.704  47.163  1.00  0.00     0.177 C 
HETATM    4  C   UNL     1      20.613  44.836  48.451  1.00  0.00     0.139 C 
HETATM    5  C   UNL     1      20.149  46.205  48.934  1.00  0.00     0.196 C 
HETATM    6  O   UNL     1      20.041  47.013  47.751  1.00  0.00    -0.378 OA
HETATM    7  O   UNL     1      18.503  44.180  47.440  1.00  0.00    -0.378 OA
HETATM    8  C   UNL     1      17.615  44.829  46.521  1.00  0.00     0.203 C 
ENDROOT
BRANCH   4   9
HETATM    9  N   UNL     1      22.065  44.823  48.259  1.00  0.00    -0.351 N 
HETATM   10  C   UNL     1      22.935  44.497  49.278  1.00  0.00     0.222 C 
HETATM   11  O   UNL     1      22.570  43.976  50.324  1.00  0.00    -0.273 OA
HETATM   12  H   UNL     1      22.431  45.360  47.482  1.00  0.00     0.163 HD
BRANCH  10  13
HETATM   13  C   UNL     1      24.378  44.904  48.990  1.00  0.00     0.081 C 
HETATM   14  C   UNL     1      24.766  46.214  49.689  1.00  0.00     0.034 C 
HETATM   15  C   UNL     1      25.109  46.030  51.167  1.00  0.00     0.142 C 
HETATM   16  N   UNL     1      26.096  44.960  51.296  1.00  0.00    -0.214 N 
HETATM   17  C   UNL     1      25.673  43.658  50.797  1.00  0.00     0.142 C 
HETATM   18  C   UNL     1      25.374  43.780  49.303  1.00  0.00     0.034 C 
BRANCH  16  19
HETATM   19  C   UNL     1      26.841  44.961  52.469  1.00  0.00     0.724 A 
HETATM   20  N   UNL     1      27.868  44.105  52.581  1.00  0.00    -0.058 NA
HETATM   21  C   UNL     1      28.540  44.028  53.760  1.00  0.00     0.160 A 
HETATM   22  C   UNL     1      28.191  44.807  54.844  1.00  0.00     0.057 A 
HETATM   23  C   UNL     1      27.141  45.662  54.647  1.00  0.00     0.139 A 
HETATM   24  N   UNL     1      26.465  45.750  53.488  1.00  0.00    -0.075 NA
BRANCH  21  25
HETATM   25  C   UNL     1      29.665  43.020  53.905  1.00  0.00     0.435 C 
HETATM   26  F   UNL     1      29.252  41.730  54.047  1.00  0.00    -0.165 F 
HETATM   27  F   UNL     1      30.504  43.019  52.826  1.00  0.00    -0.165 F 
HETATM   28  F   UNL     1      30.463  43.280  54.981  1.00  0.00    -0.165 F 
ENDBRANCH  21  25
ENDBRANCH  16  19
ENDBRANCH  10  13
ENDBRANCH   4   9
BRANCH   1  29
HETATM   29  O   UNL     1      17.457  47.092  47.336  1.00  0.00    -0.293 OA
BRANCH  29  30
HETATM   30  C   UNL     1      16.803  48.158  46.814  1.00  0.00     0.365 C 
HETATM   31  N   UNL     1      17.272  49.390  47.183  1.00  0.00    -0.303 N 
HETATM   32  H   UNL     1      16.737  50.120  46.731  1.00  0.00     0.171 HD
HETATM   33  O   UNL     1      15.849  48.069  46.047  1.00  0.00    -0.238 OA
BRANCH  31  34
HETATM   34  C   UNL     1      18.404  49.793  47.913  1.00  0.00     0.036 A 
HETATM   35  C   UNL     1      18.557  49.667  49.295  1.00  0.00     0.030 A 
HETATM   36  C   UNL     1      19.762  50.023  49.920  1.00  0.00     0.017 A 
HETATM   37  C   UNL     1      20.827  50.523  49.167  1.00  0.00     0.009 A 
HETATM   38  C   UNL     1      20.663  50.699  47.791  1.00  0.00     0.017 A 
HETATM   39  C   UNL     1      19.462  50.336  47.172  1.00  0.00     0.030 A 
BRANCH  37  40
HETATM   40  C   UNL     1      22.140  50.873  49.779  1.00  0.00     0.155 C 
HETATM   41  C   UNL     1      23.384  50.780  48.933  1.00  0.00     0.096 C 
HETATM   42  O   UNL     1      22.191  51.238  50.951  1.00  0.00    -0.293 OA
ENDBRANCH  37  40
ENDBRANCH  31  34
ENDBRANCH  29  30
ENDBRANCH   1  29
TORSDOF 8
ENDMDL
MODEL 4
REMARK VINA RESULT:      -9.3      5.800     12.436
REMARK  8 active torsions:
REMARK  status: ('A' for Active; 'I' for Inactive)
REMARK    1  A    between atoms: C_2  and  C_3 
REMARK    2  A    between atoms: C_6  and  N_7 
REMARK       I    between atoms: N_7  and  C_8 
REMARK    3  A    between atoms: C_8  and  O_9 
REMARK    4  A    between atoms: O_9  and  C_10 
REMARK    5  A    between atoms: C_13  and  N_14 
REMARK       I    between atoms: N_14  and  C_15 
REMARK    6  A    between atoms: C_15  and  C_16 
REMARK    7  A    between atoms: N_19  and  C_20 
REMARK    8  A    between atoms: C_22  and  C_23 
ROOT
HETATM    1  C   UNL     1      25.602  44.726  51.696  1.00  0.00     0.189 C 
HETATM    2  C   UNL     1      25.195  46.192  51.514  1.00  0.00     0.184 C 
HETATM    3  C   UNL     1      24.117  46.173  50.433  1.00  0.00     0.177 C 
HETATM    4  C   UNL     1      24.546  47.245  49.442  1.00  0.00     0.139 C 
HETATM    5  C   UNL     1      26.059  47.208  49.620  1.00  0.00     0.196 C 
HETATM    6  O   UNL     1      26.276  47.019  51.028  1.00  0.00    -0.378 OA
HETATM    7  O   UNL     1      24.175  44.872  49.817  1.00  0.00    -0.378 OA
HETATM    8  C   UNL     1      24.598  43.966  50.844  1.00  0.00     0.203 C 
ENDROOT
BRANCH   4   9
HETATM    9  N   UNL     1      24.026  48.580  49.743  1.00  0.00    -0.351 N 
HETATM   10  C   UNL     1      22.776  48.989  49.328  1.00  0.00     0.222 C 
HETATM   11  O   UNL     1      21.931  48.215  48.895  1.00  0.00    -0.273 OA
HETATM   12  H   UNL     1      24.704  49.297  49.972  1.00  0.00     0.163 HD
BRANCH  10  13
HETATM   13  C   UNL     1      22.581  50.502  49.409  1.00  0.00     0.081 C 
HETATM   14  C   UNL     1      22.022  51.088  48.106  1.00  0.00     0.034 C 
HETATM   15  C   UNL     1      20.512  50.897  47.957  1.00  0.00     0.142 C 
HETATM   16  N   UNL     1      19.851  51.377  49.170  1.00  0.00    -0.214 N 
HETATM   17  C   UNL     1      20.242  50.702  50.401  1.00  0.00     0.142 C 
HETATM   18  C   UNL     1      21.739  50.916  50.623  1.00  0.00     0.034 C 
BRANCH  16  19
HETATM   19  C   UNL     1      18.505  51.697  49.039  1.00  0.00     0.724 A 
HETATM   20  N   UNL     1      17.949  51.656  47.819  1.00  0.00    -0.058 NA
HETATM   21  C   UNL     1      16.661  52.062  47.665  1.00  0.00     0.160 A 
HETATM   22  C   UNL     1      15.913  52.515  48.733  1.00  0.00     0.057 A 
HETATM   23  C   UNL     1      16.547  52.515  49.945  1.00  0.00     0.139 A 
HETATM   24  N   UNL     1      17.821  52.118  50.115  1.00  0.00    -0.075 NA
BRANCH  21  25
HETATM   25  C   UNL     1      16.050  52.070  46.277  1.00  0.00     0.435 C 
HETATM   26  F   UNL     1      15.341  50.950  45.965  1.00  0.00    -0.165 F 
HETATM   27  F   UNL     1      15.184  53.113  46.096  1.00  0.00    -0.165 F 
HETATM   28  F   UNL     1      16.988  52.208  45.295  1.00  0.00    -0.165 F 
ENDBRANCH  21  25
ENDBRANCH  16  19
ENDBRANCH  10  13
ENDBRANCH   4   9
BRANCH   1  29
HETATM   29  O   UNL     1      26.927  44.488  51.182  1.00  0.00    -0.293 OA
BRANCH  29  30
HETATM   30  C   UNL     1      27.251  43.183  51.019  1.00  0.00     0.365 C 
HETATM   31  N   UNL     1      28.175  42.679  51.896  1.00  0.00    -0.303 N 
HETATM   32  H   UNL     1      28.337  41.697  51.710  1.00  0.00     0.171 HD
HETATM   33  O   UNL     1      26.763  42.457  50.158  1.00  0.00    -0.238 OA
BRANCH  31  34
HETATM   34  C   UNL     1      28.784  43.216  53.043  1.00  0.00     0.036 A 
HETATM   35  C   UNL     1      28.200  44.148  53.902  1.00  0.00     0.030 A 
HETATM   36  C   UNL     1      28.859  44.561  55.070  1.00  0.00     0.017 A 
HETATM   37  C   UNL     1      30.121  44.053  55.386  1.00  0.00     0.009 A 
HETATM   38  C   UNL     1      30.733  43.157  54.505  1.00  0.00     0.017 A 
HETATM   39  C   UNL     1      30.068  42.744  53.346  1.00  0.00     0.030 A 
BRANCH  37  40
HETATM   40  C   UNL     1      30.841  44.427  56.636  1.00  0.00     0.155 C 
HETATM   41  C   UNL     1      31.864  43.474  57.198  1.00  0.00     0.096 C 
HETATM   42  O   UNL     1      30.599  45.500  57.183  1.00  0.00    -0.293 OA
ENDBRANCH  37  40
ENDBRANCH  31  34
ENDBRANCH  29  30
ENDBRANCH   1  29
TORSDOF 8
ENDMDL
MODEL 5
REMARK VINA RESULT:      -9.1      4.481      9.880
REMARK  8 active torsions:
REMARK  status: ('A' for Active; 'I' for Inactive)
REMARK    1  A    between atoms: C_2  and  C_3 
REMARK    2  A    between atoms: C_6  and  N_7 
REMARK       I    between atoms: N_7  and  C_8 
REMARK    3  A    between atoms: C_8  and  O_9 
REMARK    4  A    between atoms: O_9  and  C_10 
REMARK    5  A    between atoms: C_13  and  N_14 
REMARK       I    between atoms: N_14  and  C_15 
REMARK    6  A    between atoms: C_15  and  C_16 
REMARK    7  A    between atoms: N_19  and  C_20 
REMARK    8  A    between atoms: C_22  and  C_23 
ROOT
HETATM    1  C   UNL     1      24.468  42.906  50.610  1.00  0.00     0.189 C 
HETATM    2  C   UNL     1      23.144  43.206  49.902  1.00  0.00     0.184 C 
HETATM    3  C   UNL     1      23.218  42.445  48.580  1.00  0.00     0.177 C 
HETATM    4  C   UNL     1      22.825  43.466  47.524  1.00  0.00     0.139 C 
HETATM    5  C   UNL     1      23.293  44.756  48.187  1.00  0.00     0.196 C 
HETATM    6  O   UNL     1      22.982  44.606  49.582  1.00  0.00    -0.378 OA
HETATM    7  O   UNL     1      24.595  42.055  48.409  1.00  0.00    -0.378 OA
HETATM    8  C   UNL     1      25.117  41.851  49.728  1.00  0.00     0.203 C 
ENDROOT
BRANCH   4   9
HETATM    9  N   UNL     1      21.387  43.521  47.252  1.00  0.00    -0.351 N 
HETATM   10  C   UNL     1      20.869  44.238  46.195  1.00  0.00     0.222 C 
HETATM   11  O   UNL     1      21.561  44.679  45.286  1.00  0.00    -0.273 OA
HETATM   12  H   UNL     1      20.765  43.299  48.020  1.00  0.00     0.163 HD
BRANCH  10  13
HETATM   13  C   UNL     1      19.364  44.474  46.308  1.00  0.00     0.081 C 
HETATM   14  C   UNL     1      18.952  44.951  47.706  1.00  0.00     0.034 C 
HETATM   15  C   UNL     1      19.205  46.441  47.935  1.00  0.00     0.142 C 
HETATM   16  N   UNL     1      18.608  47.198  46.836  1.00  0.00    -0.214 N 
HETATM   17  C   UNL     1      19.122  46.882  45.509  1.00  0.00     0.142 C 
HETATM   18  C   UNL     1      18.838  45.410  45.212  1.00  0.00     0.034 C 
BRANCH  16  19
HETATM   19  C   UNL     1      18.347  48.538  47.095  1.00  0.00     0.724 A 
HETATM   20  N   UNL     1      19.213  49.228  47.854  1.00  0.00    -0.058 NA
HETATM   21  C   UNL     1      18.918  50.510  48.196  1.00  0.00     0.160 A 
HETATM   22  C   UNL     1      17.751  51.118  47.783  1.00  0.00     0.057 A 
HETATM   23  C   UNL     1      16.926  50.354  47.003  1.00  0.00     0.139 A 
HETATM   24  N   UNL     1      17.202  49.084  46.657  1.00  0.00    -0.075 NA
BRANCH  21  25
HETATM   25  C   UNL     1      19.870  51.270  49.100  1.00  0.00     0.435 C 
HETATM   26  F   UNL     1      20.713  52.118  48.447  1.00  0.00    -0.165 F 
HETATM   27  F   UNL     1      19.211  52.042  50.017  1.00  0.00    -0.165 F 
HETATM   28  F   UNL     1      20.666  50.440  49.835  1.00  0.00    -0.165 F 
ENDBRANCH  21  25
ENDBRANCH  16  19
ENDBRANCH  10  13
ENDBRANCH   4   9
BRANCH   1  29
HETATM   29  O   UNL     1      25.315  44.072  50.643  1.00  0.00    -0.293 OA
BRANCH  29  30
HETATM   30  C   UNL     1      25.586  44.548  51.882  1.00  0.00     0.365 C 
HETATM   31  N   UNL     1      25.808  45.897  51.973  1.00  0.00    -0.303 N 
HETATM   32  H   UNL     1      25.981  46.161  52.934  1.00  0.00     0.171 HD
HETATM   33  O   UNL     1      25.630  43.850  52.891  1.00  0.00    -0.238 OA
BRANCH  31  34
HETATM   34  C   UNL     1      25.687  46.941  51.040  1.00  0.00     0.036 A 
HETATM   35  C   UNL     1      26.754  47.610  50.438  1.00  0.00     0.030 A 
HETATM   36  C   UNL     1      26.528  48.584  49.454  1.00  0.00     0.017 A 
HETATM   37  C   UNL     1      25.226  48.909  49.068  1.00  0.00     0.009 A 
HETATM   38  C   UNL     1      24.152  48.279  49.702  1.00  0.00     0.017 A 
HETATM   39  C   UNL     1      24.383  47.304  50.678  1.00  0.00     0.030 A 
BRANCH  37  40
HETATM   40  C   UNL     1      24.937  49.904  47.997  1.00  0.00     0.155 C 
HETATM   41  C   UNL     1      23.528  50.417  47.842  1.00  0.00     0.096 C 
HETATM   42  O   UNL     1      25.843  50.297  47.266  1.00  0.00    -0.293 OA
ENDBRANCH  37  40
ENDBRANCH  31  34
ENDBRANCH  29  30
ENDBRANCH   1  29
TORSDOF 8
ENDMDL
MODEL 6
REMARK VINA RESULT:      -9.1      5.483     11.872
REMARK  8 active torsions:
REMARK  status: ('A' for Active; 'I' for Inactive)
REMARK    1  A    between atoms: C_2  and  C_3 
REMARK    2  A    between atoms: C_6  and  N_7 
REMARK       I    between atoms: N_7  and  C_8 
REMARK    3  A    between atoms: C_8  and  O_9 
REMARK    4  A    between atoms: O_9  and  C_10 
REMARK    5  A    between atoms: C_13  and  N_14 
REMARK       I    between atoms: N_14  and  C_15 
REMARK    6  A    between atoms: C_15  and  C_16 
REMARK    7  A    between atoms: N_19  and  C_20 
REMARK    8  A    between atoms: C_22  and  C_23 
ROOT
HETATM    1  C   UNL     1      26.943  42.976  49.954  1.00  0.00     0.189 C 
HETATM    2  C   UNL     1      25.604  43.325  49.296  1.00  0.00     0.184 C 
HETATM    3  C   UNL     1      25.308  44.758  49.732  1.00  0.00     0.177 C 
HETATM    4  C   UNL     1      23.873  44.718  50.235  1.00  0.00     0.139 C 
HETATM    5  C   UNL     1      23.782  43.277  50.725  1.00  0.00     0.196 C 
HETATM    6  O   UNL     1      24.516  42.498  49.765  1.00  0.00    -0.378 OA
HETATM    7  O   UNL     1      26.209  45.051  50.818  1.00  0.00    -0.378 OA
HETATM    8  C   UNL     1      27.399  44.294  50.561  1.00  0.00     0.203 C 
ENDROOT
BRANCH   4   9
HETATM    9  N   UNL     1      22.869  44.973  49.200  1.00  0.00    -0.351 N 
HETATM   10  C   UNL     1      22.643  46.235  48.695  1.00  0.00     0.222 C 
HETATM   11  O   UNL     1      23.402  47.177  48.890  1.00  0.00    -0.273 OA
HETATM   12  H   UNL     1      22.133  44.284  49.093  1.00  0.00     0.163 HD
BRANCH  10  13
HETATM   13  C   UNL     1      21.331  46.349  47.923  1.00  0.00     0.081 C 
HETATM   14  C   UNL     1      20.106  46.317  48.847  1.00  0.00     0.034 C 
HETATM   15  C   UNL     1      19.826  47.658  49.525  1.00  0.00     0.142 C 
HETATM   16  N   UNL     1      19.790  48.706  48.507  1.00  0.00    -0.214 N 
HETATM   17  C   UNL     1      21.017  48.871  47.737  1.00  0.00     0.142 C 
HETATM   18  C   UNL     1      21.305  47.568  46.992  1.00  0.00     0.034 C 
BRANCH  16  19
HETATM   19  C   UNL     1      19.121  49.872  48.861  1.00  0.00     0.724 A 
HETATM   20  N   UNL     1      17.799  49.946  48.646  1.00  0.00    -0.058 NA
HETATM   21  C   UNL     1      17.152  51.115  48.896  1.00  0.00     0.160 A 
HETATM   22  C   UNL     1      17.823  52.226  49.365  1.00  0.00     0.057 A 
HETATM   23  C   UNL     1      19.166  52.067  49.571  1.00  0.00     0.139 A 
HETATM   24  N   UNL     1      19.822  50.918  49.327  1.00  0.00    -0.075 NA
BRANCH  21  25
HETATM   25  C   UNL     1      15.668  51.217  48.599  1.00  0.00     0.435 C 
HETATM   26  F   UNL     1      14.926  51.757  49.605  1.00  0.00    -0.165 F 
HETATM   27  F   UNL     1      15.410  51.987  47.499  1.00  0.00    -0.165 F 
HETATM   28  F   UNL     1      15.107  50.003  48.326  1.00  0.00    -0.165 F 
ENDBRANCH  21  25
ENDBRANCH  16  19
ENDBRANCH  10  13
ENDBRANCH   4   9
BRANCH   1  29
HETATM   29  O   UNL     1      26.767  42.012  51.010  1.00  0.00    -0.293 OA
BRANCH  29  30
HETATM   30  C   UNL     1      27.666  40.999  51.017  1.00  0.00     0.365 C 
HETATM   31  N   UNL     1      28.721  41.136  51.880  1.00  0.00    -0.303 N 
HETATM   32  H   UNL     1      29.324  40.326  51.830  1.00  0.00     0.171 HD
HETATM   33  O   UNL     1      27.575  39.996  50.315  1.00  0.00    -0.238 OA
BRANCH  31  34
HETATM   34  C   UNL     1      29.007  42.080  52.882  1.00  0.00     0.036 A 
HETATM   35  C   UNL     1      30.269  42.614  53.147  1.00  0.00     0.030 A 
HETATM   36  C   UNL     1      30.437  43.615  54.116  1.00  0.00     0.017 A 
HETATM   37  C   UNL     1      29.340  44.086  54.842  1.00  0.00     0.009 A 
HETATM   38  C   UNL     1      28.082  43.520  54.616  1.00  0.00     0.017 A 
HETATM   39  C   UNL     1      27.920  42.527  53.645  1.00  0.00     0.030 A 
BRANCH  37  40
HETATM   40  C   UNL     1      29.460  45.177  55.849  1.00  0.00     0.155 C 
HETATM   41  C   UNL     1      28.663  46.441  55.650  1.00  0.00     0.096 C 
HETATM   42  O   UNL     1      30.195  45.033  56.823  1.00  0.00    -0.293 OA
ENDBRANCH  37  40
ENDBRANCH  31  34
ENDBRANCH  29  30
ENDBRANCH   1  29
TORSDOF 8
ENDMDL
MODEL 7
REMARK VINA RESULT:      -8.8      2.214      4.155
REMARK  8 active torsions:
REMARK  status: ('A' for Active; 'I' for Inactive)
REMARK    1  A    between atoms: C_2  and  C_3 
REMARK    2  A    between atoms: C_6  and  N_7 
REMARK       I    between atoms: N_7  and  C_8 
REMARK    3  A    between atoms: C_8  and  O_9 
REMARK    4  A    between atoms: O_9  and  C_10 
REMARK    5  A    between atoms: C_13  and  N_14 
REMARK       I    between atoms: N_14  and  C_15 
REMARK    6  A    between atoms: C_15  and  C_16 
REMARK    7  A    between atoms: N_19  and  C_20 
REMARK    8  A    between atoms: C_22  and  C_23 
ROOT
HETATM    1  C   UNL     1      20.738  44.937  45.475  1.00  0.00     0.189 C 
HETATM    2  C   UNL     1      21.923  45.409  46.322  1.00  0.00     0.184 C 
HETATM    3  C   UNL     1      22.220  44.250  47.272  1.00  0.00     0.177 C 
HETATM    4  C   UNL     1      22.309  44.893  48.647  1.00  0.00     0.139 C 
HETATM    5  C   UNL     1      21.371  46.080  48.470  1.00  0.00     0.196 C 
HETATM    6  O   UNL     1      21.608  46.561  47.136  1.00  0.00    -0.378 OA
HETATM    7  O   UNL     1      21.084  43.366  47.207  1.00  0.00    -0.378 OA
HETATM    8  C   UNL     1      20.568  43.480  45.875  1.00  0.00     0.203 C 
ENDROOT
BRANCH   4   9
HETATM    9  N   UNL     1      23.654  45.349  49.007  1.00  0.00    -0.351 N 
HETATM   10  C   UNL     1      24.185  45.143  50.262  1.00  0.00     0.222 C 
HETATM   11  O   UNL     1      23.688  44.377  51.079  1.00  0.00    -0.273 OA
HETATM   12  H   UNL     1      24.055  46.087  48.441  1.00  0.00     0.163 HD
BRANCH  10  13
HETATM   13  C   UNL     1      25.412  46.007  50.545  1.00  0.00     0.081 C 
HETATM   14  C   UNL     1      25.492  46.443  52.014  1.00  0.00     0.034 C 
HETATM   15  C   UNL     1      26.041  45.355  52.938  1.00  0.00     0.142 C 
HETATM   16  N   UNL     1      27.298  44.853  52.386  1.00  0.00    -0.214 N 
HETATM   17  C   UNL     1      27.204  44.267  51.055  1.00  0.00     0.142 C 
HETATM   18  C   UNL     1      26.714  45.340  50.082  1.00  0.00     0.034 C 
BRANCH  16  19
HETATM   19  C   UNL     1      28.141  44.212  53.286  1.00  0.00     0.724 A 
HETATM   20  N   UNL     1      28.643  44.917  54.312  1.00  0.00    -0.058 NA
HETATM   21  C   UNL     1      29.545  44.328  55.140  1.00  0.00     0.160 A 
HETATM   22  C   UNL     1      29.958  43.026  54.951  1.00  0.00     0.057 A 
HETATM   23  C   UNL     1      29.392  42.371  53.891  1.00  0.00     0.139 A 
HETATM   24  N   UNL     1      28.499  42.938  53.061  1.00  0.00    -0.075 NA
BRANCH  21  25
HETATM   25  C   UNL     1      30.155  45.142  56.266  1.00  0.00     0.435 C 
HETATM   26  F   UNL     1      29.298  45.428  57.284  1.00  0.00    -0.165 F 
HETATM   27  F   UNL     1      31.218  44.509  56.848  1.00  0.00    -0.165 F 
HETATM   28  F   UNL     1      30.644  46.342  55.836  1.00  0.00    -0.165 F 
ENDBRANCH  21  25
ENDBRANCH  16  19
ENDBRANCH  10  13
ENDBRANCH   4   9
BRANCH   1  29
HETATM   29  O   UNL     1      19.537  45.657  45.815  1.00  0.00    -0.293 OA
BRANCH  29  30
HETATM   30  C   UNL     1      18.794  46.063  44.757  1.00  0.00     0.365 C 
HETATM   31  N   UNL     1      18.047  47.196  44.946  1.00  0.00    -0.303 N 
HETATM   32  H   UNL     1      17.545  47.431  44.100  1.00  0.00     0.171 HD
HETATM   33  O   UNL     1      18.768  45.485  43.675  1.00  0.00    -0.238 OA
BRANCH  31  34
HETATM   34  C   UNL     1      17.985  48.124  45.999  1.00  0.00     0.036 A 
HETATM   35  C   UNL     1      17.449  47.873  47.263  1.00  0.00     0.030 A 
HETATM   36  C   UNL     1      17.511  48.843  48.276  1.00  0.00     0.017 A 
HETATM   37  C   UNL     1      18.102  50.084  48.030  1.00  0.00     0.009 A 
HETATM   38  C   UNL     1      18.597  50.360  46.752  1.00  0.00     0.017 A 
HETATM   39  C   UNL     1      18.538  49.387  45.749  1.00  0.00     0.030 A 
BRANCH  37  40
HETATM   40  C   UNL     1      18.231  51.129  49.084  1.00  0.00     0.155 C 
HETATM   41  C   UNL     1      18.954  52.409  48.755  1.00  0.00     0.096 C 
HETATM   42  O   UNL     1      17.744  50.939  50.197  1.00  0.00    -0.293 OA
ENDBRANCH  37  40
ENDBRANCH  31  34
ENDBRANCH  29  30
ENDBRANCH   1  29
TORSDOF 8
ENDMDL
MODEL 8
REMARK VINA RESULT:      -8.7      2.917      4.883
REMARK  8 active torsions:
REMARK  status: ('A' for Active; 'I' for Inactive)
REMARK    1  A    between atoms: C_2  and  C_3 
REMARK    2  A    between atoms: C_6  and  N_7 
REMARK       I    between atoms: N_7  and  C_8 
REMARK    3  A    between atoms: C_8  and  O_9 
REMARK    4  A    between atoms: O_9  and  C_10 
REMARK    5  A    between atoms: C_13  and  N_14 
REMARK       I    between atoms: N_14  and  C_15 
REMARK    6  A    between atoms: C_15  and  C_16 
REMARK    7  A    between atoms: N_19  and  C_20 
REMARK    8  A    between atoms: C_22  and  C_23 
ROOT
HETATM    1  C   UNL     1      18.120  46.766  47.148  1.00  0.00     0.189 C 
HETATM    2  C   UNL     1      19.606  46.544  47.447  1.00  0.00     0.184 C 
HETATM    3  C   UNL     1      19.787  46.968  48.902  1.00  0.00     0.177 C 
HETATM    4  C   UNL     1      20.990  47.899  48.885  1.00  0.00     0.139 C 
HETATM    5  C   UNL     1      20.886  48.474  47.478  1.00  0.00     0.196 C 
HETATM    6  O   UNL     1      20.471  47.379  46.645  1.00  0.00    -0.378 OA
HETATM    7  O   UNL     1      18.599  47.697  49.268  1.00  0.00    -0.378 OA
HETATM    8  C   UNL     1      17.530  47.122  48.504  1.00  0.00     0.203 C 
ENDROOT
BRANCH   4   9
HETATM    9  N   UNL     1      22.274  47.218  49.069  1.00  0.00    -0.351 N 
HETATM   10  C   UNL     1      23.408  47.891  49.471  1.00  0.00     0.222 C 
HETATM   11  O   UNL     1      23.382  49.029  49.924  1.00  0.00    -0.273 OA
HETATM   12  H   UNL     1      22.396  46.331  48.595  1.00  0.00     0.163 HD
BRANCH  10  13
HETATM   13  C   UNL     1      24.692  47.098  49.239  1.00  0.00     0.081 C 
HETATM   14  C   UNL     1      25.849  47.594  50.117  1.00  0.00     0.034 C 
HETATM   15  C   UNL     1      25.784  47.074  51.552  1.00  0.00     0.142 C 
HETATM   16  N   UNL     1      25.624  45.621  51.525  1.00  0.00    -0.214 N 
HETATM   17  C   UNL     1      24.427  45.138  50.847  1.00  0.00     0.142 C 
HETATM   18  C   UNL     1      24.478  45.586  49.386  1.00  0.00     0.034 C 
BRANCH  16  19
HETATM   19  C   UNL     1      25.991  44.949  52.684  1.00  0.00     0.724 A 
HETATM   20  N   UNL     1      27.251  44.499  52.796  1.00  0.00    -0.058 NA
HETATM   21  C   UNL     1      27.594  43.755  53.881  1.00  0.00     0.160 A 
HETATM   22  C   UNL     1      26.679  43.451  54.868  1.00  0.00     0.057 A 
HETATM   23  C   UNL     1      25.420  43.956  54.687  1.00  0.00     0.139 A 
HETATM   24  N   UNL     1      25.063  44.692  53.620  1.00  0.00    -0.075 NA
BRANCH  21  25
HETATM   25  C   UNL     1      29.002  43.199  53.980  1.00  0.00     0.435 C 
HETATM   26  F   UNL     1      29.066  41.846  54.121  1.00  0.00    -0.165 F 
HETATM   27  F   UNL     1      29.754  43.488  52.875  1.00  0.00    -0.165 F 
HETATM   28  F   UNL     1      29.695  43.721  55.033  1.00  0.00    -0.165 F 
ENDBRANCH  21  25
ENDBRANCH  16  19
ENDBRANCH  10  13
ENDBRANCH   4   9
BRANCH   1  29
HETATM   29  O   UNL     1      17.931  47.878  46.251  1.00  0.00    -0.293 OA
BRANCH  29  30
HETATM   30  C   UNL     1      16.831  47.800  45.465  1.00  0.00     0.365 C 
HETATM   31  N   UNL     1      15.882  48.769  45.660  1.00  0.00    -0.303 N 
HETATM   32  H   UNL     1      15.111  48.640  45.017  1.00  0.00     0.171 HD
HETATM   33  O   UNL     1      16.657  46.935  44.612  1.00  0.00    -0.238 OA
BRANCH  31  34
HETATM   34  C   UNL     1      15.869  49.936  46.442  1.00  0.00     0.036 A 
HETATM   35  C   UNL     1      16.013  51.235  45.953  1.00  0.00     0.030 A 
HETATM   36  C   UNL     1      15.901  52.342  46.808  1.00  0.00     0.017 A 
HETATM   37  C   UNL     1      15.653  52.160  48.170  1.00  0.00     0.009 A 
HETATM   38  C   UNL     1      15.556  50.860  48.676  1.00  0.00     0.017 A 
HETATM   39  C   UNL     1      15.663  49.761  47.817  1.00  0.00     0.030 A 
BRANCH  37  40
HETATM   40  C   UNL     1      15.482  53.304  49.109  1.00  0.00     0.155 C 
HETATM   41  C   UNL     1      14.343  54.264  48.884  1.00  0.00     0.096 C 
HETATM   42  O   UNL     1      16.259  53.445  50.050  1.00  0.00    -0.293 OA
ENDBRANCH  37  40
ENDBRANCH  31  34
ENDBRANCH  29  30
ENDBRANCH   1  29
TORSDOF 8
ENDMDL
MODEL 9
REMARK VINA RESULT:      -8.6      5.495     11.036
REMARK  8 active torsions:
REMARK  status: ('A' for Active; 'I' for Inactive)
REMARK    1  A    between atoms: C_2  and  C_3 
REMARK    2  A    between atoms: C_6  and  N_7 
REMARK       I    between atoms: N_7  and  C_8 
REMARK    3  A    between atoms: C_8  and  O_9 
REMARK    4  A    between atoms: O_9  and  C_10 
REMARK    5  A    between atoms: C_13  and  N_14 
REMARK       I    between atoms: N_14  and  C_15 
REMARK    6  A    between atoms: C_15  and  C_16 
REMARK    7  A    between atoms: N_19  and  C_20 
REMARK    8  A    between atoms: C_22  and  C_23 
ROOT
HETATM    1  C   UNL     1      26.742  44.893  52.295  1.00  0.00     0.189 C 
HETATM    2  C   UNL     1      25.913  45.547  51.185  1.00  0.00     0.184 C 
HETATM    3  C   UNL     1      24.497  45.010  51.377  1.00  0.00     0.177 C 
HETATM    4  C   UNL     1      24.073  44.537  49.994  1.00  0.00     0.139 C 
HETATM    5  C   UNL     1      25.423  44.158  49.397  1.00  0.00     0.196 C 
HETATM    6  O   UNL     1      26.343  45.160  49.860  1.00  0.00    -0.378 OA
HETATM    7  O   UNL     1      24.601  43.890  52.277  1.00  0.00    -0.378 OA
HETATM    8  C   UNL     1      25.702  44.181  53.147  1.00  0.00     0.203 C 
ENDROOT
BRANCH   4   9
HETATM    9  N   UNL     1      23.423  45.568  49.183  1.00  0.00    -0.351 N 
HETATM   10  C   UNL     1      22.154  45.405  48.672  1.00  0.00     0.222 C 
HETATM   11  O   UNL     1      21.396  44.516  49.041  1.00  0.00    -0.273 OA
HETATM   12  H   UNL     1      24.026  46.251  48.738  1.00  0.00     0.163 HD
BRANCH  10  13
HETATM   13  C   UNL     1      21.817  46.404  47.567  1.00  0.00     0.081 C 
HETATM   14  C   UNL     1      20.312  46.461  47.272  1.00  0.00     0.034 C 
HETATM   15  C   UNL     1      19.531  47.307  48.278  1.00  0.00     0.142 C 
HETATM   16  N   UNL     1      20.175  48.613  48.402  1.00  0.00    -0.214 N 
HETATM   17  C   UNL     1      21.559  48.587  48.858  1.00  0.00     0.142 C 
HETATM   18  C   UNL     1      22.392  47.799  47.847  1.00  0.00     0.034 C 
BRANCH  16  19
HETATM   19  C   UNL     1      19.378  49.636  48.902  1.00  0.00     0.724 A 
HETATM   20  N   UNL     1      18.091  49.694  48.525  1.00  0.00    -0.058 NA
HETATM   21  C   UNL     1      17.330  50.745  48.929  1.00  0.00     0.160 A 
HETATM   22  C   UNL     1      17.847  51.752  49.717  1.00  0.00     0.057 A 
HETATM   23  C   UNL     1      19.162  51.615  50.070  1.00  0.00     0.139 A 
HETATM   24  N   UNL     1      19.931  50.583  49.677  1.00  0.00    -0.075 NA
BRANCH  21  25
HETATM   25  C   UNL     1      15.892  50.840  48.456  1.00  0.00     0.435 C 
HETATM   26  F   UNL     1      15.736  51.432  47.239  1.00  0.00    -0.165 F 
HETATM   27  F   UNL     1      15.298  49.613  48.345  1.00  0.00    -0.165 F 
HETATM   28  F   UNL     1      15.104  51.543  49.321  1.00  0.00    -0.165 F 
ENDBRANCH  21  25
ENDBRANCH  16  19
ENDBRANCH  10  13
ENDBRANCH   4   9
BRANCH   1  29
HETATM   29  O   UNL     1      27.652  43.915  51.755  1.00  0.00    -0.293 OA
BRANCH  29  30
HETATM   30  C   UNL     1      28.242  43.113  52.675  1.00  0.00     0.365 C 
HETATM   31  N   UNL     1      28.173  41.767  52.431  1.00  0.00    -0.303 N 
HETATM   32  H   UNL     1      28.656  41.253  53.157  1.00  0.00     0.171 HD
HETATM   33  O   UNL     1      28.822  43.527  53.674  1.00  0.00    -0.238 OA
BRANCH  31  34
HETATM   34  C   UNL     1      27.712  41.027  51.329  1.00  0.00     0.036 A 
HETATM   35  C   UNL     1      26.396  41.009  50.865  1.00  0.00     0.030 A 
HETATM   36  C   UNL     1      26.053  40.301  49.703  1.00  0.00     0.017 A 
HETATM   37  C   UNL     1      27.026  39.590  48.996  1.00  0.00     0.009 A 
HETATM   38  C   UNL     1      28.336  39.564  49.482  1.00  0.00     0.017 A 
HETATM   39  C   UNL     1      28.673  40.276  50.638  1.00  0.00     0.030 A 
BRANCH  37  40
HETATM   40  C   UNL     1      26.720  38.861  47.734  1.00  0.00     0.155 C 
HETATM   41  C   UNL     1      27.645  39.027  46.555  1.00  0.00     0.096 C 
HETATM   42  O   UNL     1      25.731  38.133  47.671  1.00  0.00    -0.293 OA
ENDBRANCH  37  40
ENDBRANCH  31  34
ENDBRANCH  29  30
ENDBRANCH   1  29
TORSDOF 8
ENDMDL
MODEL 10
REMARK VINA RESULT:      -8.5      2.017      2.424
REMARK  8 active torsions:
REMARK  status: ('A' for Active; 'I' for Inactive)
REMARK    1  A    between atoms: C_2  and  C_3 
REMARK    2  A    between atoms: C_6  and  N_7 
REMARK       I    between atoms: N_7  and  C_8 
REMARK    3  A    between atoms: C_8  and  O_9 
REMARK    4  A    between atoms: O_9  and  C_10 
REMARK    5  A    between atoms: C_13  and  N_14 
REMARK       I    between atoms: N_14  and  C_15 
REMARK    6  A    between atoms: C_15  and  C_16 
REMARK    7  A    between atoms: N_19  and  C_20 
REMARK    8  A    between atoms: C_22  and  C_23 
ROOT
HETATM    1  C   UNL     1      21.634  50.471  48.699  1.00  0.00     0.189 C 
HETATM    2  C   UNL     1      21.786  49.052  49.257  1.00  0.00     0.184 C 
HETATM    3  C   UNL     1      23.108  48.541  48.689  1.00  0.00     0.177 C 
HETATM    4  C   UNL     1      22.778  47.171  48.118  1.00  0.00     0.139 C 
HETATM    5  C   UNL     1      21.313  47.362  47.745  1.00  0.00     0.196 C 
HETATM    6  O   UNL     1      20.748  48.156  48.802  1.00  0.00    -0.378 OA
HETATM    7  O   UNL     1      23.477  49.447  47.631  1.00  0.00    -0.378 OA
HETATM    8  C   UNL     1      22.964  50.731  48.010  1.00  0.00     0.203 C 
ENDROOT
BRANCH   4   9
HETATM    9  N   UNL     1      22.925  46.073  49.076  1.00  0.00    -0.351 N 
HETATM   10  C   UNL     1      23.141  44.773  48.672  1.00  0.00     0.222 C 
HETATM   11  O   UNL     1      23.457  44.475  47.527  1.00  0.00    -0.273 OA
HETATM   12  H   UNL     1      22.550  46.221  50.005  1.00  0.00     0.163 HD
BRANCH  10  13
HETATM   13  C   UNL     1      22.890  43.750  49.778  1.00  0.00     0.081 C 
HETATM   14  C   UNL     1      23.258  42.324  49.347  1.00  0.00     0.034 C 
HETATM   15  C   UNL     1      24.758  42.040  49.419  1.00  0.00     0.142 C 
HETATM   16  N   UNL     1      25.250  42.418  50.743  1.00  0.00    -0.214 N 
HETATM   17  C   UNL     1      25.069  43.820  51.098  1.00  0.00     0.142 C 
HETATM   18  C   UNL     1      23.574  44.137  51.095  1.00  0.00     0.034 C 
BRANCH  16  19
HETATM   19  C   UNL     1      26.446  41.830  51.136  1.00  0.00     0.724 A 
HETATM   20  N   UNL     1      27.227  42.481  52.012  1.00  0.00    -0.058 NA
HETATM   21  C   UNL     1      28.444  41.963  52.326  1.00  0.00     0.160 A 
HETATM   22  C   UNL     1      28.894  40.785  51.767  1.00  0.00     0.057 A 
HETATM   23  C   UNL     1      28.036  40.175  50.893  1.00  0.00     0.139 A 
HETATM   24  N   UNL     1      26.830  40.675  50.569  1.00  0.00    -0.075 NA
BRANCH  21  25
HETATM   25  C   UNL     1      29.350  42.728  53.273  1.00  0.00     0.435 C 
HETATM   26  F   UNL     1      30.662  42.746  52.906  1.00  0.00    -0.165 F 
HETATM   27  F   UNL     1      28.985  44.039  53.395  1.00  0.00    -0.165 F 
HETATM   28  F   UNL     1      29.320  42.226  54.542  1.00  0.00    -0.165 F 
ENDBRANCH  21  25
ENDBRANCH  16  19
ENDBRANCH  10  13
ENDBRANCH   4   9
BRANCH   1  29
HETATM   29  O   UNL     1      20.580  50.533  47.718  1.00  0.00    -0.293 OA
BRANCH  29  30
HETATM   30  C   UNL     1      19.527  51.315  48.058  1.00  0.00     0.365 C 
HETATM   31  N   UNL     1      18.303  50.910  47.594  1.00  0.00    -0.303 N 
HETATM   32  H   UNL     1      17.580  51.541  47.914  1.00  0.00     0.171 HD
HETATM   33  O   UNL     1      19.618  52.328  48.745  1.00  0.00    -0.238 OA
BRANCH  31  34
HETATM   34  C   UNL     1      17.882  49.749  46.923  1.00  0.00     0.036 A 
HETATM   35  C   UNL     1      17.897  49.569  45.540  1.00  0.00     0.030 A 
HETATM   36  C   UNL     1      17.533  48.339  44.971  1.00  0.00     0.017 A 
HETATM   37  C   UNL     1      17.137  47.275  45.784  1.00  0.00     0.009 A 
HETATM   38  C   UNL     1      17.072  47.463  47.167  1.00  0.00     0.017 A 
HETATM   39  C   UNL     1      17.443  48.690  47.729  1.00  0.00     0.030 A 
BRANCH  37  40
HETATM   40  C   UNL     1      16.785  45.937  45.230  1.00  0.00     0.155 C 
HETATM   41  C   UNL     1      15.862  45.863  44.041  1.00  0.00     0.096 C 
HETATM   42  O   UNL     1      17.252  44.921  45.739  1.00  0.00    -0.293 OA
ENDBRANCH  37  40
ENDBRANCH  31  34
ENDBRANCH  29  30
ENDBRANCH   1  29
TORSDOF 8
ENDMDL
