MODEL 1
REMARK VINA RESULT:      -9.6      0.000      0.000
REMARK  4 active torsions:
REMARK  status: ('A' for Active; 'I' for Inactive)
REMARK    1  A    between atoms: C_3  and  O_4 
REMARK    2  A    between atoms: O_4  and  C_5 
REMARK    3  A    between atoms: C_11  and  C_12 
REMARK    4  A    between atoms: C_23  and  N_24 
ROOT
HETATM    1  C   UNL     1      28.683  43.255  52.006  1.00  0.00     0.244 A 
HETATM    2  N   UNL     1      27.290  43.244  51.626  1.00  0.00    -0.151 N 
HETATM    3  C   UNL     1      26.634  42.060  51.402  1.00  0.00     0.734 A 
HETATM    4  N   UNL     1      25.405  42.306  51.007  1.00  0.00    -0.060 NA
HETATM    5  C   UNL     1      25.282  43.672  50.944  1.00  0.00     0.103 A 
HETATM    6  C   UNL     1      26.467  44.296  51.325  1.00  0.00     0.083 A 
HETATM    7  C   UNL     1      24.184  44.452  50.558  1.00  0.00     0.034 A 
HETATM    8  C   UNL     1      24.314  45.845  50.567  1.00  0.00     0.002 A 
HETATM    9  C   UNL     1      25.513  46.448  50.954  1.00  0.00     0.002 A 
HETATM   10  C   UNL     1      26.621  45.686  51.342  1.00  0.00     0.033 A 
HETATM   11  N   UNL     1      27.220  40.855  51.573  1.00  0.00    -0.033 NA
HETATM   12  C   UNL     1      28.464  40.803  51.884  1.00  0.00     0.193 A 
HETATM   13  N   UNL     1      29.280  41.923  52.087  1.00  0.00    -0.339 N 
HETATM   14  H   UNL     1      30.216  41.815  52.442  1.00  0.00     0.164 HD
ENDROOT
BRANCH   1  15
HETATM   15  C   UNL     1      28.930  43.922  53.349  1.00  0.00    -0.014 A 
HETATM   16  C   UNL     1      29.895  43.430  54.247  1.00  0.00     0.020 A 
HETATM   17  C   UNL     1      30.164  44.089  55.455  1.00  0.00    -0.027 A 
HETATM   18  C   UNL     1      29.464  45.268  55.756  1.00  0.00     0.086 A 
HETATM   19  C   UNL     1      31.236  43.563  56.369  1.00  0.00     0.051 C 
HETATM   20  C   UNL     1      28.529  45.807  54.859  1.00  0.00    -0.027 A 
HETATM   21  C   UNL     1      27.806  47.093  55.149  1.00  0.00     0.051 C 
HETATM   22  C   UNL     1      28.254  45.112  53.671  1.00  0.00     0.020 A 
BRANCH  18  23
HETATM   23  O   UNL     1      29.784  45.946  56.902  1.00  0.00    -0.289 OA
BRANCH  23  24
HETATM   24  C   UNL     1      28.915  45.578  57.967  1.00  0.00     0.505 C 
HETATM   25  F   UNL     1      29.693  45.189  59.007  1.00  0.00    -0.184 F 
HETATM   26  F   UNL     1      28.251  46.691  58.367  1.00  0.00    -0.184 F 
ENDBRANCH  23  24
ENDBRANCH  18  23
ENDBRANCH   1  15
BRANCH  12  27
HETATM   27  N   UNL     1      29.126  39.643  52.068  1.00  0.00    -0.272 NA
HETATM   28  H   UNL     1      30.098  39.815  52.315  1.00  0.00     0.127 HD
HETATM   29  H   UNL     1      28.704  38.976  52.700  1.00  0.00     0.127 HD
ENDBRANCH  12  27
TORSDOF 4
ENDMDL
MODEL 2
REMARK VINA RESULT:      -9.6      2.794      4.696
REMARK  4 active torsions:
REMARK  status: ('A' for Active; 'I' for Inactive)
REMARK    1  A    between atoms: C_3  and  O_4 
REMARK    2  A    between atoms: O_4  and  C_5 
REMARK    3  A    between atoms: C_11  and  C_12 
REMARK    4  A    between atoms: C_23  and  N_24 
ROOT
HETATM    1  C   UNL     1      25.818  45.283  50.437  1.00  0.00     0.244 A 
HETATM    2  N   UNL     1      25.357  46.536  49.885  1.00  0.00    -0.151 N 
HETATM    3  C   UNL     1      24.039  46.707  49.545  1.00  0.00     0.734 A 
HETATM    4  N   UNL     1      23.875  47.895  49.007  1.00  0.00    -0.060 NA
HETATM    5  C   UNL     1      25.116  48.481  48.970  1.00  0.00     0.103 A 
HETATM    6  C   UNL     1      26.080  47.638  49.516  1.00  0.00     0.083 A 
HETATM    7  C   UNL     1      25.497  49.734  48.474  1.00  0.00     0.034 A 
HETATM    8  C   UNL     1      26.845  50.103  48.542  1.00  0.00     0.002 A 
HETATM    9  C   UNL     1      27.794  49.240  49.094  1.00  0.00     0.002 A 
HETATM   10  C   UNL     1      27.433  47.983  49.595  1.00  0.00     0.033 A 
HETATM   11  N   UNL     1      23.100  45.758  49.751  1.00  0.00    -0.033 NA
HETATM   12  C   UNL     1      23.457  44.616  50.213  1.00  0.00     0.193 A 
HETATM   13  N   UNL     1      24.771  44.269  50.551  1.00  0.00    -0.339 N 
HETATM   14  H   UNL     1      24.966  43.399  51.018  1.00  0.00     0.164 HD
ENDROOT
BRANCH   1  15
HETATM   15  C   UNL     1      26.431  45.430  51.820  1.00  0.00    -0.014 A 
HETATM   16  C   UNL     1      26.102  46.513  52.656  1.00  0.00     0.020 A 
HETATM   17  C   UNL     1      26.620  46.608  53.957  1.00  0.00    -0.027 A 
HETATM   18  C   UNL     1      27.466  45.592  54.426  1.00  0.00     0.086 A 
HETATM   19  C   UNL     1      26.208  47.753  54.841  1.00  0.00     0.051 C 
HETATM   20  C   UNL     1      27.774  44.478  53.631  1.00  0.00    -0.027 A 
HETATM   21  C   UNL     1      28.643  43.360  54.139  1.00  0.00     0.051 C 
HETATM   22  C   UNL     1      27.270  44.421  52.323  1.00  0.00     0.020 A 
BRANCH  18  23
HETATM   23  O   UNL     1      27.908  45.653  55.722  1.00  0.00    -0.289 OA
BRANCH  23  24
HETATM   24  C   UNL     1      29.295  45.967  55.768  1.00  0.00     0.505 C 
HETATM   25  F   UNL     1      29.488  47.059  54.987  1.00  0.00    -0.184 F 
HETATM   26  F   UNL     1      29.598  46.333  57.037  1.00  0.00    -0.184 F 
ENDBRANCH  23  24
ENDBRANCH  18  23
ENDBRANCH   1  15
BRANCH  12  27
HETATM   27  N   UNL     1      22.585  43.613  50.443  1.00  0.00    -0.272 NA
HETATM   28  H   UNL     1      22.834  43.102  51.288  1.00  0.00     0.127 HD
HETATM   29  H   UNL     1      21.604  43.856  50.443  1.00  0.00     0.127 HD
ENDBRANCH  12  27
TORSDOF 4
ENDMDL
MODEL 3
REMARK VINA RESULT:      -9.2      1.698      3.785
REMARK  4 active torsions:
REMARK  status: ('A' for Active; 'I' for Inactive)
REMARK    1  A    between atoms: C_3  and  O_4 
REMARK    2  A    between atoms: O_4  and  C_5 
REMARK    3  A    between atoms: C_11  and  C_12 
REMARK    4  A    between atoms: C_23  and  N_24 
ROOT
HETATM    1  C   UNL     1      25.921  43.887  52.450  1.00  0.00     0.244 A 
HETATM    2  N   UNL     1      26.522  43.216  51.322  1.00  0.00    -0.151 N 
HETATM    3  C   UNL     1      26.278  43.644  50.041  1.00  0.00     0.734 A 
HETATM    4  N   UNL     1      26.876  42.842  49.188  1.00  0.00    -0.060 NA
HETATM    5  C   UNL     1      27.485  41.865  49.934  1.00  0.00     0.103 A 
HETATM    6  C   UNL     1      27.272  42.071  51.294  1.00  0.00     0.083 A 
HETATM    7  C   UNL     1      28.234  40.757  49.513  1.00  0.00     0.034 A 
HETATM    8  C   UNL     1      28.748  39.887  50.481  1.00  0.00     0.002 A 
HETATM    9  C   UNL     1      28.521  40.116  51.840  1.00  0.00     0.002 A 
HETATM   10  C   UNL     1      27.776  41.216  52.280  1.00  0.00     0.033 A 
HETATM   11  N   UNL     1      25.522  44.729  49.763  1.00  0.00    -0.033 NA
HETATM   12  C   UNL     1      24.941  45.348  50.725  1.00  0.00     0.193 A 
HETATM   13  N   UNL     1      25.045  44.996  52.076  1.00  0.00    -0.339 N 
HETATM   14  H   UNL     1      24.659  45.592  52.791  1.00  0.00     0.164 HD
ENDROOT
BRANCH   1  15
HETATM   15  C   UNL     1      26.944  44.452  53.422  1.00  0.00    -0.014 A 
HETATM   16  C   UNL     1      28.046  43.691  53.852  1.00  0.00     0.020 A 
HETATM   17  C   UNL     1      29.022  44.240  54.696  1.00  0.00    -0.027 A 
HETATM   18  C   UNL     1      28.895  45.578  55.099  1.00  0.00     0.086 A 
HETATM   19  C   UNL     1      30.213  43.413  55.096  1.00  0.00     0.051 C 
HETATM   20  C   UNL     1      27.831  46.375  54.649  1.00  0.00    -0.027 A 
HETATM   21  C   UNL     1      27.709  47.823  55.037  1.00  0.00     0.051 C 
HETATM   22  C   UNL     1      26.851  45.794  53.831  1.00  0.00     0.020 A 
BRANCH  18  23
HETATM   23  O   UNL     1      29.890  46.130  55.863  1.00  0.00    -0.289 OA
BRANCH  23  24
HETATM   24  C   UNL     1      29.766  45.728  57.222  1.00  0.00     0.505 C 
HETATM   25  F   UNL     1      30.671  46.441  57.938  1.00  0.00    -0.184 F 
HETATM   26  F   UNL     1      28.538  46.104  57.657  1.00  0.00    -0.184 F 
ENDBRANCH  23  24
ENDBRANCH  18  23
ENDBRANCH   1  15
BRANCH  12  27
HETATM   27  N   UNL     1      24.166  46.435  50.534  1.00  0.00    -0.272 NA
HETATM   28  H   UNL     1      23.462  46.259  49.820  1.00  0.00     0.127 HD
HETATM   29  H   UNL     1      23.749  46.846  51.359  1.00  0.00     0.127 HD
ENDBRANCH  12  27
TORSDOF 4
ENDMDL
MODEL 4
REMARK VINA RESULT:      -9.1      3.328      5.973
REMARK  4 active torsions:
REMARK  status: ('A' for Active; 'I' for Inactive)
REMARK    1  A    between atoms: C_3  and  O_4 
REMARK    2  A    between atoms: O_4  and  C_5 
REMARK    3  A    between atoms: C_11  and  C_12 
REMARK    4  A    between atoms: C_23  and  N_24 
ROOT
HETATM    1  C   UNL     1      27.128  43.052  53.483  1.00  0.00     0.244 A 
HETATM    2  N   UNL     1      28.468  43.253  53.983  1.00  0.00    -0.151 N 
HETATM    3  C   UNL     1      29.490  42.423  53.600  1.00  0.00     0.734 A 
HETATM    4  N   UNL     1      30.592  42.760  54.233  1.00  0.00    -0.060 NA
HETATM    5  C   UNL     1      30.260  43.803  55.061  1.00  0.00     0.103 A 
HETATM    6  C   UNL     1      28.915  44.135  54.930  1.00  0.00     0.083 A 
HETATM    7  C   UNL     1      31.061  44.514  55.965  1.00  0.00     0.034 A 
HETATM    8  C   UNL     1      30.479  45.542  56.714  1.00  0.00     0.002 A 
HETATM    9  C   UNL     1      29.126  45.857  56.564  1.00  0.00     0.002 A 
HETATM   10  C   UNL     1      28.310  45.158  55.667  1.00  0.00     0.033 A 
HETATM   11  N   UNL     1      29.325  41.422  52.708  1.00  0.00    -0.033 NA
HETATM   12  C   UNL     1      28.151  41.179  52.251  1.00  0.00     0.193 A 
HETATM   13  N   UNL     1      27.000  41.899  52.592  1.00  0.00    -0.339 N 
HETATM   14  H   UNL     1      26.131  41.734  52.110  1.00  0.00     0.164 HD
ENDROOT
BRANCH   1  15
HETATM   15  C   UNL     1      26.591  44.251  52.719  1.00  0.00    -0.014 A 
HETATM   16  C   UNL     1      26.214  44.151  51.367  1.00  0.00     0.020 A 
HETATM   17  C   UNL     1      25.657  45.244  50.687  1.00  0.00    -0.027 A 
HETATM   18  C   UNL     1      25.462  46.448  51.381  1.00  0.00     0.086 A 
HETATM   19  C   UNL     1      25.220  45.088  49.256  1.00  0.00     0.051 C 
HETATM   20  C   UNL     1      25.786  46.562  52.742  1.00  0.00    -0.027 A 
HETATM   21  C   UNL     1      25.539  47.833  53.509  1.00  0.00     0.051 C 
HETATM   22  C   UNL     1      26.371  45.465  53.392  1.00  0.00     0.020 A 
BRANCH  18  23
HETATM   23  O   UNL     1      24.850  47.488  50.732  1.00  0.00    -0.289 OA
BRANCH  23  24
HETATM   24  C   UNL     1      25.714  48.050  49.751  1.00  0.00     0.505 C 
HETATM   25  F   UNL     1      25.141  49.202  49.321  1.00  0.00    -0.184 F 
HETATM   26  F   UNL     1      26.874  48.393  50.364  1.00  0.00    -0.184 F 
ENDBRANCH  23  24
ENDBRANCH  18  23
ENDBRANCH   1  15
BRANCH  12  27
HETATM   27  N   UNL     1      27.899  40.197  51.362  1.00  0.00    -0.272 NA
HETATM   28  H   UNL     1      28.379  39.338  51.623  1.00  0.00     0.127 HD
HETATM   29  H   UNL     1      26.927  40.017  51.148  1.00  0.00     0.127 HD
ENDBRANCH  12  27
TORSDOF 4
ENDMDL
MODEL 5
REMARK VINA RESULT:      -9.0      4.393      7.008
REMARK  4 active torsions:
REMARK  status: ('A' for Active; 'I' for Inactive)
REMARK    1  A    between atoms: C_3  and  O_4 
REMARK    2  A    between atoms: O_4  and  C_5 
REMARK    3  A    between atoms: C_11  and  C_12 
REMARK    4  A    between atoms: C_23  and  N_24 
ROOT
HETATM    1  C   UNL     1      25.321  44.297  50.506  1.00  0.00     0.244 A 
HETATM    2  N   UNL     1      26.502  44.036  51.297  1.00  0.00    -0.151 N 
HETATM    3  C   UNL     1      27.435  43.121  50.879  1.00  0.00     0.734 A 
HETATM    4  N   UNL     1      28.378  43.008  51.788  1.00  0.00    -0.060 NA
HETATM    5  C   UNL     1      28.023  43.840  52.821  1.00  0.00     0.103 A 
HETATM    6  C   UNL     1      26.831  44.502  52.541  1.00  0.00     0.083 A 
HETATM    7  C   UNL     1      28.672  44.075  54.041  1.00  0.00     0.034 A 
HETATM    8  C   UNL     1      28.096  44.973  54.946  1.00  0.00     0.002 A 
HETATM    9  C   UNL     1      26.900  45.626  54.641  1.00  0.00     0.002 A 
HETATM   10  C   UNL     1      26.236  45.404  53.429  1.00  0.00     0.033 A 
HETATM   11  N   UNL     1      27.341  42.463  49.703  1.00  0.00    -0.033 NA
HETATM   12  C   UNL     1      26.300  42.635  48.973  1.00  0.00     0.193 A 
HETATM   13  N   UNL     1      25.236  43.488  49.291  1.00  0.00    -0.339 N 
HETATM   14  H   UNL     1      24.506  43.666  48.622  1.00  0.00     0.164 HD
ENDROOT
BRANCH   1  15
HETATM   15  C   UNL     1      25.206  45.748  50.069  1.00  0.00    -0.014 A 
HETATM   16  C   UNL     1      23.954  46.354  49.861  1.00  0.00     0.020 A 
HETATM   17  C   UNL     1      23.852  47.712  49.522  1.00  0.00    -0.027 A 
HETATM   18  C   UNL     1      25.026  48.472  49.407  1.00  0.00     0.086 A 
HETATM   19  C   UNL     1      22.496  48.339  49.356  1.00  0.00     0.051 C 
HETATM   20  C   UNL     1      26.286  47.905  49.653  1.00  0.00    -0.027 A 
HETATM   21  C   UNL     1      27.548  48.720  49.578  1.00  0.00     0.051 C 
HETATM   22  C   UNL     1      26.364  46.538  49.959  1.00  0.00     0.020 A 
BRANCH  18  23
HETATM   23  O   UNL     1      24.916  49.813  49.149  1.00  0.00    -0.289 OA
BRANCH  23  24
HETATM   24  C   UNL     1      24.871  50.056  47.748  1.00  0.00     0.505 C 
HETATM   25  F   UNL     1      23.939  51.019  47.535  1.00  0.00    -0.184 F 
HETATM   26  F   UNL     1      26.066  50.576  47.375  1.00  0.00    -0.184 F 
ENDBRANCH  23  24
ENDBRANCH  18  23
ENDBRANCH   1  15
BRANCH  12  27
HETATM   27  N   UNL     1      26.124  42.013  47.789  1.00  0.00    -0.272 NA
HETATM   28  H   UNL     1      26.205  41.004  47.893  1.00  0.00     0.127 HD
HETATM   29  H   UNL     1      25.293  42.257  47.267  1.00  0.00     0.127 HD
ENDBRANCH  12  27
TORSDOF 4
ENDMDL
MODEL 6
REMARK VINA RESULT:      -8.9      6.794      9.291
REMARK  4 active torsions:
REMARK  status: ('A' for Active; 'I' for Inactive)
REMARK    1  A    between atoms: C_3  and  O_4 
REMARK    2  A    between atoms: O_4  and  C_5 
REMARK    3  A    between atoms: C_11  and  C_12 
REMARK    4  A    between atoms: C_23  and  N_24 
ROOT
HETATM    1  C   UNL     1      21.213  47.850  47.584  1.00  0.00     0.244 A 
HETATM    2  N   UNL     1      20.086  48.396  48.305  1.00  0.00    -0.151 N 
HETATM    3  C   UNL     1      19.065  47.582  48.727  1.00  0.00     0.734 A 
HETATM    4  N   UNL     1      18.129  48.309  49.295  1.00  0.00    -0.060 NA
HETATM    5  C   UNL     1      18.542  49.615  49.205  1.00  0.00     0.103 A 
HETATM    6  C   UNL     1      19.780  49.702  48.574  1.00  0.00     0.083 A 
HETATM    7  C   UNL     1      17.903  50.785  49.635  1.00  0.00     0.034 A 
HETATM    8  C   UNL     1      18.533  52.015  49.415  1.00  0.00     0.002 A 
HETATM    9  C   UNL     1      19.776  52.077  48.780  1.00  0.00     0.002 A 
HETATM   10  C   UNL     1      20.430  50.919  48.342  1.00  0.00     0.033 A 
HETATM   11  N   UNL     1      19.074  46.243  48.549  1.00  0.00    -0.033 NA
HETATM   12  C   UNL     1      20.037  45.707  47.892  1.00  0.00     0.193 A 
HETATM   13  N   UNL     1      21.118  46.411  47.348  1.00  0.00    -0.339 N 
HETATM   14  H   UNL     1      21.899  45.918  46.946  1.00  0.00     0.164 HD
ENDROOT
BRANCH   1  15
HETATM   15  C   UNL     1      22.540  48.088  48.286  1.00  0.00    -0.014 A 
HETATM   16  C   UNL     1      23.037  47.183  49.242  1.00  0.00     0.020 A 
HETATM   17  C   UNL     1      24.293  47.374  49.837  1.00  0.00    -0.027 A 
HETATM   18  C   UNL     1      25.064  48.481  49.453  1.00  0.00     0.086 A 
HETATM   19  C   UNL     1      24.814  46.361  50.818  1.00  0.00     0.051 C 
HETATM   20  C   UNL     1      24.614  49.375  48.469  1.00  0.00    -0.027 A 
HETATM   21  C   UNL     1      25.451  50.539  48.016  1.00  0.00     0.051 C 
HETATM   22  C   UNL     1      23.341  49.181  47.911  1.00  0.00     0.020 A 
BRANCH  18  23
HETATM   23  O   UNL     1      26.320  48.621  49.983  1.00  0.00    -0.289 OA
BRANCH  23  24
HETATM   24  C   UNL     1      27.315  48.343  49.004  1.00  0.00     0.505 C 
HETATM   25  F   UNL     1      28.383  49.133  49.278  1.00  0.00    -0.184 F 
HETATM   26  F   UNL     1      27.721  47.061  49.175  1.00  0.00    -0.184 F 
ENDBRANCH  23  24
ENDBRANCH  18  23
ENDBRANCH   1  15
BRANCH  12  27
HETATM   27  N   UNL     1      20.121  44.380  47.665  1.00  0.00    -0.272 NA
HETATM   28  H   UNL     1      19.330  43.890  48.078  1.00  0.00     0.127 HD
HETATM   29  H   UNL     1      20.264  44.091  46.706  1.00  0.00     0.127 HD
ENDBRANCH  12  27
TORSDOF 4
ENDMDL
MODEL 7
REMARK VINA RESULT:      -8.8      3.741      6.241
REMARK  4 active torsions:
REMARK  status: ('A' for Active; 'I' for Inactive)
REMARK    1  A    between atoms: C_3  and  O_4 
REMARK    2  A    between atoms: O_4  and  C_5 
REMARK    3  A    between atoms: C_11  and  C_12 
REMARK    4  A    between atoms: C_23  and  N_24 
ROOT
HETATM    1  C   UNL     1      26.993  42.559  52.864  1.00  0.00     0.244 A 
HETATM    2  N   UNL     1      28.157  43.110  53.520  1.00  0.00    -0.151 N 
HETATM    3  C   UNL     1      29.384  42.511  53.387  1.00  0.00     0.734 A 
HETATM    4  N   UNL     1      30.267  43.148  54.122  1.00  0.00    -0.060 NA
HETATM    5  C   UNL     1      29.586  44.153  54.764  1.00  0.00     0.103 A 
HETATM    6  C   UNL     1      28.241  44.150  54.406  1.00  0.00     0.083 A 
HETATM    7  C   UNL     1      30.054  45.106  55.678  1.00  0.00     0.034 A 
HETATM    8  C   UNL     1      29.148  46.030  56.208  1.00  0.00     0.002 A 
HETATM    9  C   UNL     1      27.803  46.007  55.833  1.00  0.00     0.002 A 
HETATM   10  C   UNL     1      27.316  45.063  54.921  1.00  0.00     0.033 A 
HETATM   11  N   UNL     1      29.589  41.426  52.608  1.00  0.00    -0.033 NA
HETATM   12  C   UNL     1      28.586  40.878  52.023  1.00  0.00     0.193 A 
HETATM   13  N   UNL     1      27.266  41.337  52.110  1.00  0.00    -0.339 N 
HETATM   14  H   UNL     1      26.546  40.933  51.534  1.00  0.00     0.164 HD
ENDROOT
BRANCH   1  15
HETATM   15  C   UNL     1      26.342  43.530  51.893  1.00  0.00    -0.014 A 
HETATM   16  C   UNL     1      27.088  44.531  51.245  1.00  0.00     0.020 A 
HETATM   17  C   UNL     1      26.494  45.381  50.300  1.00  0.00    -0.027 A 
HETATM   18  C   UNL     1      25.136  45.211  49.992  1.00  0.00     0.086 A 
HETATM   19  C   UNL     1      27.333  46.408  49.590  1.00  0.00     0.051 C 
HETATM   20  C   UNL     1      24.379  44.191  50.589  1.00  0.00    -0.027 A 
HETATM   21  C   UNL     1      22.934  43.968  50.233  1.00  0.00     0.051 C 
HETATM   22  C   UNL     1      24.987  43.374  51.554  1.00  0.00     0.020 A 
BRANCH  18  23
HETATM   23  O   UNL     1      24.582  45.995  49.015  1.00  0.00    -0.289 OA
BRANCH  23  24
HETATM   24  C   UNL     1      23.958  47.142  49.581  1.00  0.00     0.505 C 
HETATM   25  F   UNL     1      24.599  48.232  49.091  1.00  0.00    -0.184 F 
HETATM   26  F   UNL     1      22.685  47.195  49.120  1.00  0.00    -0.184 F 
ENDBRANCH  23  24
ENDBRANCH  18  23
ENDBRANCH   1  15
BRANCH  12  27
HETATM   27  N   UNL     1      28.702  39.791  51.234  1.00  0.00    -0.272 NA
HETATM   28  H   UNL     1      28.852  38.952  51.790  1.00  0.00     0.127 HD
HETATM   29  H   UNL     1      27.971  39.646  50.550  1.00  0.00     0.127 HD
ENDBRANCH  12  27
TORSDOF 4
ENDMDL
MODEL 8
REMARK VINA RESULT:      -8.7      2.022      4.119
REMARK  4 active torsions:
REMARK  status: ('A' for Active; 'I' for Inactive)
REMARK    1  A    between atoms: C_3  and  O_4 
REMARK    2  A    between atoms: O_4  and  C_5 
REMARK    3  A    between atoms: C_11  and  C_12 
REMARK    4  A    between atoms: C_23  and  N_24 
ROOT
HETATM    1  C   UNL     1      26.323  44.329  52.857  1.00  0.00     0.244 A 
HETATM    2  N   UNL     1      26.541  43.856  51.510  1.00  0.00    -0.151 N 
HETATM    3  C   UNL     1      26.180  44.623  50.432  1.00  0.00     0.734 A 
HETATM    4  N   UNL     1      26.413  43.960  49.321  1.00  0.00    -0.060 NA
HETATM    5  C   UNL     1      26.902  42.734  49.697  1.00  0.00     0.103 A 
HETATM    6  C   UNL     1      26.988  42.635  51.083  1.00  0.00     0.083 A 
HETATM    7  C   UNL     1      27.286  41.645  48.902  1.00  0.00     0.034 A 
HETATM    8  C   UNL     1      27.747  40.484  49.532  1.00  0.00     0.002 A 
HETATM    9  C   UNL     1      27.826  40.409  50.924  1.00  0.00     0.002 A 
HETATM   10  C   UNL     1      27.446  41.485  51.735  1.00  0.00     0.033 A 
HETATM   11  N   UNL     1      25.659  45.864  50.557  1.00  0.00    -0.033 NA
HETATM   12  C   UNL     1      25.418  46.325  51.731  1.00  0.00     0.193 A 
HETATM   13  N   UNL     1      25.676  45.638  52.923  1.00  0.00    -0.339 N 
HETATM   14  H   UNL     1      25.573  46.101  53.812  1.00  0.00     0.164 HD
ENDROOT
BRANCH   1  15
HETATM   15  C   UNL     1      27.605  44.438  53.666  1.00  0.00    -0.014 A 
HETATM   16  C   UNL     1      27.706  45.304  54.770  1.00  0.00     0.020 A 
HETATM   17  C   UNL     1      28.869  45.351  55.551  1.00  0.00    -0.027 A 
HETATM   18  C   UNL     1      29.939  44.503  55.227  1.00  0.00     0.086 A 
HETATM   19  C   UNL     1      28.924  46.253  56.754  1.00  0.00     0.051 C 
HETATM   20  C   UNL     1      29.850  43.596  54.160  1.00  0.00    -0.027 A 
HETATM   21  C   UNL     1      30.972  42.650  53.831  1.00  0.00     0.051 C 
HETATM   22  C   UNL     1      28.688  43.590  53.373  1.00  0.00     0.020 A 
BRANCH  18  23
HETATM   23  O   UNL     1      31.043  44.500  56.039  1.00  0.00    -0.289 OA
BRANCH  23  24
HETATM   24  C   UNL     1      30.954  43.464  57.010  1.00  0.00     0.505 C 
HETATM   25  F   UNL     1      32.152  42.829  57.034  1.00  0.00    -0.184 F 
HETATM   26  F   UNL     1      30.793  44.044  58.225  1.00  0.00    -0.184 F 
ENDBRANCH  23  24
ENDBRANCH  18  23
ENDBRANCH   1  15
BRANCH  12  27
HETATM   27  N   UNL     1      24.896  47.549  51.944  1.00  0.00    -0.272 NA
HETATM   28  H   UNL     1      23.958  47.482  52.334  1.00  0.00     0.127 HD
HETATM   29  H   UNL     1      25.462  48.198  52.475  1.00  0.00     0.127 HD
ENDBRANCH  12  27
TORSDOF 4
ENDMDL
MODEL 9
REMARK VINA RESULT:      -8.6     14.771     17.395
REMARK  4 active torsions:
REMARK  status: ('A' for Active; 'I' for Inactive)
REMARK    1  A    between atoms: C_3  and  O_4 
REMARK    2  A    between atoms: O_4  and  C_5 
REMARK    3  A    between atoms: C_11  and  C_12 
REMARK    4  A    between atoms: C_23  and  N_24 
ROOT
HETATM    1  C   UNL     1      39.112  44.229  63.281  1.00  0.00     0.244 A 
HETATM    2  N   UNL     1      39.726  45.234  64.116  1.00  0.00    -0.151 N 
HETATM    3  C   UNL     1      38.955  46.108  64.841  1.00  0.00     0.734 A 
HETATM    4  N   UNL     1      39.731  46.965  65.466  1.00  0.00    -0.060 NA
HETATM    5  C   UNL     1      41.020  46.655  65.109  1.00  0.00     0.103 A 
HETATM    6  C   UNL     1      41.048  45.563  64.246  1.00  0.00     0.083 A 
HETATM    7  C   UNL     1      42.222  47.274  65.478  1.00  0.00     0.034 A 
HETATM    8  C   UNL     1      43.422  46.771  64.964  1.00  0.00     0.002 A 
HETATM    9  C   UNL     1      43.425  45.674  64.101  1.00  0.00     0.002 A 
HETATM   10  C   UNL     1      42.235  45.043  63.719  1.00  0.00     0.033 A 
HETATM   11  N   UNL     1      37.606  46.050  64.862  1.00  0.00    -0.033 NA
HETATM   12  C   UNL     1      37.005  45.195  64.117  1.00  0.00     0.193 A 
HETATM   13  N   UNL     1      37.651  44.277  63.279  1.00  0.00    -0.339 N 
HETATM   14  H   UNL     1      37.127  43.556  62.811  1.00  0.00     0.164 HD
ENDROOT
BRANCH   1  15
HETATM   15  C   UNL     1      39.498  42.812  63.672  1.00  0.00    -0.014 A 
HETATM   16  C   UNL     1      39.298  41.728  62.797  1.00  0.00     0.020 A 
HETATM   17  C   UNL     1      39.717  40.434  63.138  1.00  0.00    -0.027 A 
HETATM   18  C   UNL     1      40.360  40.231  64.369  1.00  0.00     0.086 A 
HETATM   19  C   UNL     1      39.532  39.308  62.158  1.00  0.00     0.051 C 
HETATM   20  C   UNL     1      40.614  41.300  65.241  1.00  0.00    -0.027 A 
HETATM   21  C   UNL     1      41.343  41.103  66.542  1.00  0.00     0.051 C 
HETATM   22  C   UNL     1      40.157  42.580  64.892  1.00  0.00     0.020 A 
BRANCH  18  23
HETATM   23  O   UNL     1      40.833  38.979  64.663  1.00  0.00    -0.289 OA
BRANCH  23  24
HETATM   24  C   UNL     1      40.015  38.348  65.642  1.00  0.00     0.505 C 
HETATM   25  F   UNL     1      38.724  38.593  65.308  1.00  0.00    -0.184 F 
HETATM   26  F   UNL     1      40.199  37.008  65.538  1.00  0.00    -0.184 F 
ENDBRANCH  23  24
ENDBRANCH  18  23
ENDBRANCH   1  15
BRANCH  12  27
HETATM   27  N   UNL     1      35.663  45.074  64.074  1.00  0.00    -0.272 NA
HETATM   28  H   UNL     1      35.249  45.299  64.977  1.00  0.00     0.127 HD
HETATM   29  H   UNL     1      35.187  45.562  63.327  1.00  0.00     0.127 HD
ENDBRANCH  12  27
TORSDOF 4
ENDMDL
MODEL 10
REMARK VINA RESULT:      -8.5     10.507     12.796
REMARK  4 active torsions:
REMARK  status: ('A' for Active; 'I' for Inactive)
REMARK    1  A    between atoms: C_3  and  O_4 
REMARK    2  A    between atoms: O_4  and  C_5 
REMARK    3  A    between atoms: C_11  and  C_12 
REMARK    4  A    between atoms: C_23  and  N_24 
ROOT
HETATM    1  C   UNL     1      19.405  48.068  49.487  1.00  0.00     0.244 A 
HETATM    2  N   UNL     1      20.658  48.229  48.786  1.00  0.00    -0.151 N 
HETATM    3  C   UNL     1      21.178  47.204  48.038  1.00  0.00     0.734 A 
HETATM    4  N   UNL     1      22.347  47.560  47.555  1.00  0.00    -0.060 NA
HETATM    5  C   UNL     1      22.595  48.824  48.030  1.00  0.00     0.103 A 
HETATM    6  C   UNL     1      21.542  49.274  48.822  1.00  0.00     0.083 A 
HETATM    7  C   UNL     1      23.710  49.649  47.832  1.00  0.00     0.034 A 
HETATM    8  C   UNL     1      23.731  50.908  48.441  1.00  0.00     0.002 A 
HETATM    9  C   UNL     1      22.662  51.337  49.230  1.00  0.00     0.002 A 
HETATM   10  C   UNL     1      21.539  50.528  49.441  1.00  0.00     0.033 A 
HETATM   11  N   UNL     1      20.540  46.025  47.868  1.00  0.00    -0.033 NA
HETATM   12  C   UNL     1      19.436  45.816  48.488  1.00  0.00     0.193 A 
HETATM   13  N   UNL     1      18.811  46.741  49.333  1.00  0.00    -0.339 N 
HETATM   14  H   UNL     1      17.889  46.561  49.696  1.00  0.00     0.164 HD
ENDROOT
BRANCH   1  15
HETATM   15  C   UNL     1      18.347  49.069  49.053  1.00  0.00    -0.014 A 
HETATM   16  C   UNL     1      17.285  48.695  48.209  1.00  0.00     0.020 A 
HETATM   17  C   UNL     1      16.276  49.607  47.865  1.00  0.00    -0.027 A 
HETATM   18  C   UNL     1      16.327  50.906  48.392  1.00  0.00     0.086 A 
HETATM   19  C   UNL     1      15.130  49.159  47.000  1.00  0.00     0.051 C 
HETATM   20  C   UNL     1      17.348  51.293  49.273  1.00  0.00    -0.027 A 
HETATM   21  C   UNL     1      17.389  52.669  49.880  1.00  0.00     0.051 C 
HETATM   22  C   UNL     1      18.364  50.374  49.576  1.00  0.00     0.020 A 
BRANCH  18  23
HETATM   23  O   UNL     1      15.299  51.768  48.113  1.00  0.00    -0.289 OA
BRANCH  23  24
HETATM   24  C   UNL     1      15.453  52.334  46.816  1.00  0.00     0.505 C 
HETATM   25  F   UNL     1      14.904  53.574  46.850  1.00  0.00    -0.184 F 
HETATM   26  F   UNL     1      16.779  52.499  46.588  1.00  0.00    -0.184 F 
ENDBRANCH  23  24
ENDBRANCH  18  23
ENDBRANCH   1  15
BRANCH  12  27
HETATM   27  N   UNL     1      18.739  44.667  48.378  1.00  0.00    -0.272 NA
HETATM   28  H   UNL     1      18.465  44.318  49.294  1.00  0.00     0.127 HD
HETATM   29  H   UNL     1      17.951  44.674  47.743  1.00  0.00     0.127 HD
ENDBRANCH  12  27
TORSDOF 4
ENDMDL
