MODEL 1
REMARK VINA RESULT:     -11.1      0.000      0.000
REMARK  8 active torsions:
REMARK  status: ('A' for Active; 'I' for Inactive)
REMARK    1  A    between atoms: C_5  and  C_6 
REMARK    2  A    between atoms: C_11  and  C_12 
REMARK    3  A    between atoms: N_13  and  N_14 
REMARK    4  A    between atoms: C_20  and  C_21 
REMARK    5  A    between atoms: C_21  and  O_22 
REMARK    6  A    between atoms: O_22  and  N_23 
REMARK    7  A    between atoms: N_23  and  C_24 
REMARK    8  A    between atoms: C_24  and  C_25 
ROOT
HETATM    1  N   UNL     1      27.026  43.222  51.249  1.00  0.00    -0.180 N 
HETATM    2  C   UNL     1      27.564  41.981  51.619  1.00  0.00     0.282 C 
HETATM    3  O   UNL     1      27.752  41.592  52.772  1.00  0.00    -0.265 OA
HETATM    4  C   UNL     1      27.876  41.063  50.509  1.00  0.00     0.063 A 
HETATM    5  C   UNL     1      27.516  41.449  49.219  1.00  0.00     0.074 A 
HETATM    6  N   UNL     1      26.883  42.665  48.947  1.00  0.00    -0.230 NA
HETATM    7  C   UNL     1      26.666  43.484  49.934  1.00  0.00     0.157 C 
HETATM    8  C   UNL     1      28.494  39.827  50.747  1.00  0.00     0.019 A 
HETATM    9  C   UNL     1      28.753  38.968  49.680  1.00  0.00     0.001 A 
HETATM   10  C   UNL     1      28.396  39.343  48.386  1.00  0.00     0.002 A 
HETATM   11  C   UNL     1      27.781  40.578  48.159  1.00  0.00     0.032 A 
ENDROOT
BRANCH   1  12
HETATM   12  N   UNL     1      26.633  44.146  52.208  1.00  0.00    -0.174 NA
HETATM   13  C   UNL     1      27.520  44.987  52.631  1.00  0.00     0.154 C 
BRANCH  13  14
HETATM   14  C   UNL     1      27.157  45.920  53.672  1.00  0.00     0.031 A 
HETATM   15  C   UNL     1      27.778  46.140  54.942  1.00  0.00     0.100 A 
HETATM   16  N   UNL     1      27.178  47.155  55.590  1.00  0.00    -0.174 NA
HETATM   17  N   UNL     1      26.174  47.527  54.787  1.00  0.00    -0.288 N 
HETATM   18  H   UNL     1      25.569  48.281  55.094  1.00  0.00     0.188 HD
HETATM   19  C   UNL     1      26.114  46.823  53.628  1.00  0.00     0.124 A 
BRANCH  15  20
HETATM   20  C   UNL     1      28.897  45.422  55.559  1.00  0.00    -0.005 A 
HETATM   21  C   UNL     1      29.483  45.871  56.750  1.00  0.00     0.014 A 
HETATM   22  C   UNL     1      30.555  45.179  57.324  1.00  0.00     0.007 A 
HETATM   23  C   UNL     1      31.076  44.038  56.707  1.00  0.00    -0.062 A 
HETATM   24  C   UNL     1      32.225  43.290  57.314  1.00  0.00     0.048 C 
HETATM   25  C   UNL     1      30.501  43.592  55.512  1.00  0.00     0.007 A 
HETATM   26  C   UNL     1      29.426  44.280  54.943  1.00  0.00     0.014 A 
ENDBRANCH  15  20
ENDBRANCH  13  14
ENDBRANCH   1  12
BRANCH   7  27
HETATM   27  C   UNL     1      25.956  44.811  49.630  1.00  0.00     0.274 C 
BRANCH  27  28
HETATM   28  O   UNL     1      26.746  45.915  49.212  1.00  0.00    -0.293 OA
BRANCH  28  29
HETATM   29  N   UNL     1      26.447  47.011  50.028  1.00  0.00    -0.171 NA
HETATM   30  H   UNL     1      26.925  46.996  50.931  1.00  0.00     0.160 HD
BRANCH  29  31
HETATM   31  C   UNL     1      26.454  48.271  49.458  1.00  0.00     0.035 C 
HETATM   32  C   UNL     1      27.546  49.016  49.227  1.00  0.00     0.039 C 
BRANCH  31  33
HETATM   33  C   UNL     1      25.140  48.806  49.048  1.00  0.00    -0.014 A 
HETATM   34  C   UNL     1      25.074  49.954  48.247  1.00  0.00     0.013 A 
HETATM   35  C   UNL     1      23.839  50.473  47.855  1.00  0.00     0.001 A 
HETATM   36  C   UNL     1      22.660  49.845  48.256  1.00  0.00     0.000 A 
HETATM   37  C   UNL     1      22.714  48.697  49.045  1.00  0.00     0.001 A 
HETATM   38  C   UNL     1      23.949  48.179  49.441  1.00  0.00     0.013 A 
ENDBRANCH  31  33
ENDBRANCH  29  31
ENDBRANCH  28  29
ENDBRANCH  27  28
ENDBRANCH   7  27
TORSDOF 8
ENDMDL
MODEL 2
REMARK VINA RESULT:     -11.0      1.168      2.153
REMARK  8 active torsions:
REMARK  status: ('A' for Active; 'I' for Inactive)
REMARK    1  A    between atoms: C_5  and  C_6 
REMARK    2  A    between atoms: C_11  and  C_12 
REMARK    3  A    between atoms: N_13  and  N_14 
REMARK    4  A    between atoms: C_20  and  C_21 
REMARK    5  A    between atoms: C_21  and  O_22 
REMARK    6  A    between atoms: O_22  and  N_23 
REMARK    7  A    between atoms: N_23  and  C_24 
REMARK    8  A    between atoms: C_24  and  C_25 
ROOT
HETATM    1  N   UNL     1      26.169  43.098  51.541  1.00  0.00    -0.180 N 
HETATM    2  C   UNL     1      27.168  42.137  51.756  1.00  0.00     0.282 C 
HETATM    3  O   UNL     1      27.945  42.107  52.711  1.00  0.00    -0.265 OA
HETATM    4  C   UNL     1      27.237  41.053  50.761  1.00  0.00     0.063 A 
HETATM    5  C   UNL     1      26.255  41.008  49.772  1.00  0.00     0.074 A 
HETATM    6  N   UNL     1      25.225  41.950  49.691  1.00  0.00    -0.230 NA
HETATM    7  C   UNL     1      25.215  42.930  50.547  1.00  0.00     0.157 C 
HETATM    8  C   UNL     1      28.244  40.080  50.822  1.00  0.00     0.019 A 
HETATM    9  C   UNL     1      28.268  39.051  49.882  1.00  0.00     0.001 A 
HETATM   10  C   UNL     1      27.290  38.995  48.890  1.00  0.00     0.002 A 
HETATM   11  C   UNL     1      26.290  39.971  48.837  1.00  0.00     0.032 A 
ENDROOT
BRANCH   1  12
HETATM   12  N   UNL     1      25.965  44.132  52.445  1.00  0.00    -0.174 NA
HETATM   13  C   UNL     1      26.868  45.056  52.514  1.00  0.00     0.154 C 
BRANCH  13  14
HETATM   14  C   UNL     1      26.713  46.112  53.487  1.00  0.00     0.031 A 
HETATM   15  C   UNL     1      27.496  46.386  54.653  1.00  0.00     0.100 A 
HETATM   16  N   UNL     1      27.067  47.510  55.255  1.00  0.00    -0.174 NA
HETATM   17  N   UNL     1      26.012  47.904  54.532  1.00  0.00    -0.288 N 
HETATM   18  H   UNL     1      25.515  48.738  54.824  1.00  0.00     0.188 HD
HETATM   19  C   UNL     1      25.754  47.105  53.464  1.00  0.00     0.124 A 
BRANCH  15  20
HETATM   20  C   UNL     1      28.613  45.621  55.215  1.00  0.00    -0.005 A 
HETATM   21  C   UNL     1      29.065  44.440  54.612  1.00  0.00     0.014 A 
HETATM   22  C   UNL     1      30.129  43.718  55.164  1.00  0.00     0.007 A 
HETATM   23  C   UNL     1      30.747  44.151  56.340  1.00  0.00    -0.062 A 
HETATM   24  C   UNL     1      31.888  43.384  56.939  1.00  0.00     0.048 C 
HETATM   25  C   UNL     1      30.293  45.325  56.951  1.00  0.00     0.007 A 
HETATM   26  C   UNL     1      29.235  46.050  56.396  1.00  0.00     0.014 A 
ENDBRANCH  15  20
ENDBRANCH  13  14
ENDBRANCH   1  12
BRANCH   7  27
HETATM   27  C   UNL     1      24.073  43.953  50.462  1.00  0.00     0.274 C 
BRANCH  27  28
HETATM   28  O   UNL     1      24.227  45.061  49.587  1.00  0.00    -0.293 OA
BRANCH  28  29
HETATM   29  N   UNL     1      24.097  46.238  50.333  1.00  0.00    -0.171 NA
HETATM   30  H   UNL     1      24.768  46.317  51.100  1.00  0.00     0.160 HD
BRANCH  29  31
HETATM   31  C   UNL     1      23.947  47.431  49.650  1.00  0.00     0.035 C 
HETATM   32  C   UNL     1      22.779  47.963  49.258  1.00  0.00     0.039 C 
BRANCH  31  33
HETATM   33  C   UNL     1      25.189  48.180  49.371  1.00  0.00    -0.014 A 
HETATM   34  C   UNL     1      26.408  47.724  49.890  1.00  0.00     0.013 A 
HETATM   35  C   UNL     1      27.590  48.424  49.637  1.00  0.00     0.001 A 
HETATM   36  C   UNL     1      27.562  49.581  48.858  1.00  0.00     0.000 A 
HETATM   37  C   UNL     1      26.356  50.037  48.329  1.00  0.00     0.001 A 
HETATM   38  C   UNL     1      25.172  49.339  48.584  1.00  0.00     0.013 A 
ENDBRANCH  31  33
ENDBRANCH  29  31
ENDBRANCH  28  29
ENDBRANCH  27  28
ENDBRANCH   7  27
TORSDOF 8
ENDMDL
MODEL 3
REMARK VINA RESULT:     -10.9      1.133      1.454
REMARK  8 active torsions:
REMARK  status: ('A' for Active; 'I' for Inactive)
REMARK    1  A    between atoms: C_5  and  C_6 
REMARK    2  A    between atoms: C_11  and  C_12 
REMARK    3  A    between atoms: N_13  and  N_14 
REMARK    4  A    between atoms: C_20  and  C_21 
REMARK    5  A    between atoms: C_21  and  O_22 
REMARK    6  A    between atoms: O_22  and  N_23 
REMARK    7  A    between atoms: N_23  and  C_24 
REMARK    8  A    between atoms: C_24  and  C_25 
ROOT
HETATM    1  N   UNL     1      26.126  43.264  51.703  1.00  0.00    -0.180 N 
HETATM    2  C   UNL     1      27.133  42.300  51.868  1.00  0.00     0.282 C 
HETATM    3  O   UNL     1      27.946  42.260  52.791  1.00  0.00    -0.265 OA
HETATM    4  C   UNL     1      27.162  41.228  50.859  1.00  0.00     0.063 A 
HETATM    5  C   UNL     1      26.143  41.194  49.909  1.00  0.00     0.074 A 
HETATM    6  N   UNL     1      25.111  42.137  49.879  1.00  0.00    -0.230 NA
HETATM    7  C   UNL     1      25.134  43.107  50.745  1.00  0.00     0.157 C 
HETATM    8  C   UNL     1      28.171  40.254  50.870  1.00  0.00     0.019 A 
HETATM    9  C   UNL     1      28.158  39.236  49.918  1.00  0.00     0.001 A 
HETATM   10  C   UNL     1      27.143  39.191  48.964  1.00  0.00     0.002 A 
HETATM   11  C   UNL     1      26.142  40.167  48.961  1.00  0.00     0.032 A 
ENDROOT
BRANCH   1  12
HETATM   12  N   UNL     1      25.958  44.287  52.626  1.00  0.00    -0.174 NA
HETATM   13  C   UNL     1      26.914  45.150  52.747  1.00  0.00     0.154 C 
BRANCH  13  14
HETATM   14  C   UNL     1      26.794  46.191  53.740  1.00  0.00     0.031 A 
HETATM   15  C   UNL     1      27.602  46.432  54.896  1.00  0.00     0.100 A 
HETATM   16  N   UNL     1      27.203  47.552  55.526  1.00  0.00    -0.174 NA
HETATM   17  N   UNL     1      26.140  47.975  54.829  1.00  0.00    -0.288 N 
HETATM   18  H   UNL     1      25.663  48.812  55.145  1.00  0.00     0.188 HD
HETATM   19  C   UNL     1      25.851  47.200  53.753  1.00  0.00     0.124 A 
BRANCH  15  20
HETATM   20  C   UNL     1      28.718  45.641  55.423  1.00  0.00    -0.005 A 
HETATM   21  C   UNL     1      29.180  44.498  54.758  1.00  0.00     0.014 A 
HETATM   22  C   UNL     1      30.241  43.749  55.278  1.00  0.00     0.007 A 
HETATM   23  C   UNL     1      30.847  44.116  56.483  1.00  0.00    -0.062 A 
HETATM   24  C   UNL     1      31.985  43.320  57.047  1.00  0.00     0.048 C 
HETATM   25  C   UNL     1      30.383  45.252  57.156  1.00  0.00     0.007 A 
HETATM   26  C   UNL     1      29.327  46.004  56.633  1.00  0.00     0.014 A 
ENDBRANCH  15  20
ENDBRANCH  13  14
ENDBRANCH   1  12
BRANCH   7  27
HETATM   27  C   UNL     1      23.990  44.130  50.716  1.00  0.00     0.274 C 
BRANCH  27  28
HETATM   28  O   UNL     1      24.090  45.225  49.817  1.00  0.00    -0.293 OA
BRANCH  28  29
HETATM   29  N   UNL     1      24.231  46.401  50.562  1.00  0.00    -0.171 NA
HETATM   30  H   UNL     1      24.509  46.244  51.533  1.00  0.00     0.160 HD
BRANCH  29  31
HETATM   31  C   UNL     1      24.916  47.458  49.991  1.00  0.00     0.035 C 
HETATM   32  C   UNL     1      26.243  47.647  50.045  1.00  0.00     0.039 C 
BRANCH  31  33
HETATM   33  C   UNL     1      24.099  48.428  49.235  1.00  0.00    -0.014 A 
HETATM   34  C   UNL     1      24.712  49.535  48.633  1.00  0.00     0.013 A 
HETATM   35  C   UNL     1      23.951  50.463  47.918  1.00  0.00     0.001 A 
HETATM   36  C   UNL     1      22.573  50.288  47.794  1.00  0.00     0.000 A 
HETATM   37  C   UNL     1      21.955  49.185  48.382  1.00  0.00     0.001 A 
HETATM   38  C   UNL     1      22.714  48.258  49.100  1.00  0.00     0.013 A 
ENDBRANCH  31  33
ENDBRANCH  29  31
ENDBRANCH  28  29
ENDBRANCH  27  28
ENDBRANCH   7  27
TORSDOF 8
ENDMDL
MODEL 4
REMARK VINA RESULT:     -10.8      1.462      6.019
REMARK  8 active torsions:
REMARK  status: ('A' for Active; 'I' for Inactive)
REMARK    1  A    between atoms: C_5  and  C_6 
REMARK    2  A    between atoms: C_11  and  C_12 
REMARK    3  A    between atoms: N_13  and  N_14 
REMARK    4  A    between atoms: C_20  and  C_21 
REMARK    5  A    between atoms: C_21  and  O_22 
REMARK    6  A    between atoms: O_22  and  N_23 
REMARK    7  A    between atoms: N_23  and  C_24 
REMARK    8  A    between atoms: C_24  and  C_25 
ROOT
HETATM    1  N   UNL     1      27.264  44.395  52.719  1.00  0.00    -0.180 N 
HETATM    2  C   UNL     1      28.391  43.620  53.030  1.00  0.00     0.282 C 
HETATM    3  O   UNL     1      28.817  42.672  52.371  1.00  0.00    -0.265 OA
HETATM    4  C   UNL     1      29.137  44.031  54.232  1.00  0.00     0.063 A 
HETATM    5  C   UNL     1      28.738  45.197  54.883  1.00  0.00     0.074 A 
HETATM    6  N   UNL     1      27.663  45.975  54.443  1.00  0.00    -0.230 NA
HETATM    7  C   UNL     1      26.984  45.564  53.412  1.00  0.00     0.157 C 
HETATM    8  C   UNL     1      30.232  43.286  54.692  1.00  0.00     0.019 A 
HETATM    9  C   UNL     1      30.935  43.714  55.817  1.00  0.00     0.001 A 
HETATM   10  C   UNL     1      30.546  44.880  56.475  1.00  0.00     0.002 A 
HETATM   11  C   UNL     1      29.453  45.616  56.009  1.00  0.00     0.032 A 
ENDROOT
BRANCH   1  12
HETATM   12  N   UNL     1      26.517  44.144  51.575  1.00  0.00    -0.174 NA
HETATM   13  C   UNL     1      25.737  43.112  51.581  1.00  0.00     0.154 C 
BRANCH  13  14
HETATM   14  C   UNL     1      24.994  42.791  50.386  1.00  0.00     0.031 A 
HETATM   15  C   UNL     1      25.265  41.794  49.396  1.00  0.00     0.100 A 
HETATM   16  N   UNL     1      24.285  41.767  48.474  1.00  0.00    -0.174 NA
HETATM   17  N   UNL     1      23.452  42.752  48.832  1.00  0.00    -0.288 N 
HETATM   18  H   UNL     1      22.637  42.923  48.254  1.00  0.00     0.188 HD
HETATM   19  C   UNL     1      23.827  43.398  49.966  1.00  0.00     0.124 A 
BRANCH  15  20
HETATM   20  C   UNL     1      26.411  40.887  49.289  1.00  0.00    -0.005 A 
HETATM   21  C   UNL     1      27.530  41.214  48.512  1.00  0.00     0.014 A 
HETATM   22  C   UNL     1      28.614  40.335  48.414  1.00  0.00     0.007 A 
HETATM   23  C   UNL     1      28.592  39.103  49.075  1.00  0.00    -0.062 A 
HETATM   24  C   UNL     1      29.748  38.154  48.976  1.00  0.00     0.048 C 
HETATM   25  C   UNL     1      27.472  38.768  49.845  1.00  0.00     0.007 A 
HETATM   26  C   UNL     1      26.393  39.650  49.947  1.00  0.00     0.014 A 
ENDBRANCH  15  20
ENDBRANCH  13  14
ENDBRANCH   1  12
BRANCH   7  27
HETATM   27  C   UNL     1      25.815  46.432  52.924  1.00  0.00     0.274 C 
BRANCH  27  28
HETATM   28  O   UNL     1      26.104  47.536  52.079  1.00  0.00    -0.293 OA
BRANCH  28  29
HETATM   29  N   UNL     1      26.055  47.102  50.749  1.00  0.00    -0.171 NA
HETATM   30  H   UNL     1      25.272  46.476  50.547  1.00  0.00     0.160 HD
BRANCH  29  31
HETATM   31  C   UNL     1      26.239  48.039  49.749  1.00  0.00     0.035 C 
HETATM   32  C   UNL     1      27.421  48.395  49.222  1.00  0.00     0.039 C 
BRANCH  31  33
HETATM   33  C   UNL     1      25.014  48.662  49.209  1.00  0.00    -0.014 A 
HETATM   34  C   UNL     1      25.109  49.820  48.425  1.00  0.00     0.013 A 
HETATM   35  C   UNL     1      23.959  50.422  47.910  1.00  0.00     0.001 A 
HETATM   36  C   UNL     1      22.706  49.867  48.171  1.00  0.00     0.000 A 
HETATM   37  C   UNL     1      22.601  48.711  48.942  1.00  0.00     0.001 A 
HETATM   38  C   UNL     1      23.751  48.110  49.460  1.00  0.00     0.013 A 
ENDBRANCH  31  33
ENDBRANCH  29  31
ENDBRANCH  28  29
ENDBRANCH  27  28
ENDBRANCH   7  27
TORSDOF 8
ENDMDL
MODEL 5
REMARK VINA RESULT:     -10.5      3.306      8.204
REMARK  8 active torsions:
REMARK  status: ('A' for Active; 'I' for Inactive)
REMARK    1  A    between atoms: C_5  and  C_6 
REMARK    2  A    between atoms: C_11  and  C_12 
REMARK    3  A    between atoms: N_13  and  N_14 
REMARK    4  A    between atoms: C_20  and  C_21 
REMARK    5  A    between atoms: C_21  and  O_22 
REMARK    6  A    between atoms: O_22  and  N_23 
REMARK    7  A    between atoms: N_23  and  C_24 
REMARK    8  A    between atoms: C_24  and  C_25 
ROOT
HETATM    1  N   UNL     1      25.067  45.306  51.154  1.00  0.00    -0.180 N 
HETATM    2  C   UNL     1      25.880  44.696  52.122  1.00  0.00     0.282 C 
HETATM    3  O   UNL     1      26.234  43.517  52.125  1.00  0.00    -0.265 OA
HETATM    4  C   UNL     1      26.377  45.582  53.189  1.00  0.00     0.063 A 
HETATM    5  C   UNL     1      26.101  46.944  53.091  1.00  0.00     0.074 A 
HETATM    6  N   UNL     1      25.370  47.489  52.031  1.00  0.00    -0.230 NA
HETATM    7  C   UNL     1      24.893  46.682  51.129  1.00  0.00     0.157 C 
HETATM    8  C   UNL     1      27.130  45.073  54.257  1.00  0.00     0.019 A 
HETATM    9  C   UNL     1      27.609  45.939  55.238  1.00  0.00     0.001 A 
HETATM   10  C   UNL     1      27.340  47.303  55.150  1.00  0.00     0.002 A 
HETATM   11  C   UNL     1      26.589  47.801  54.081  1.00  0.00     0.032 A 
ENDROOT
BRANCH   1  12
HETATM   12  N   UNL     1      24.590  44.588  50.065  1.00  0.00    -0.174 NA
HETATM   13  C   UNL     1      23.426  44.035  50.174  1.00  0.00     0.154 C 
BRANCH  13  14
HETATM   14  C   UNL     1      22.930  43.232  49.081  1.00  0.00     0.031 A 
HETATM   15  C   UNL     1      22.038  43.601  48.025  1.00  0.00     0.100 A 
HETATM   16  N   UNL     1      21.883  42.581  47.161  1.00  0.00    -0.174 NA
HETATM   17  N   UNL     1      22.604  41.580  47.682  1.00  0.00    -0.288 N 
HETATM   18  H   UNL     1      22.615  40.692  47.192  1.00  0.00     0.188 HD
HETATM   19  C   UNL     1      23.250  41.913  48.829  1.00  0.00     0.124 A 
BRANCH  15  20
HETATM   20  C   UNL     1      21.327  44.866  47.816  1.00  0.00    -0.005 A 
HETATM   21  C   UNL     1      19.966  44.996  48.119  1.00  0.00     0.014 A 
HETATM   22  C   UNL     1      19.299  46.207  47.908  1.00  0.00     0.007 A 
HETATM   23  C   UNL     1      19.975  47.306  47.370  1.00  0.00    -0.062 A 
HETATM   24  C   UNL     1      19.269  48.609  47.140  1.00  0.00     0.048 C 
HETATM   25  C   UNL     1      21.333  47.179  47.057  1.00  0.00     0.007 A 
HETATM   26  C   UNL     1      22.000  45.969  47.274  1.00  0.00     0.014 A 
ENDBRANCH  15  20
ENDBRANCH  13  14
ENDBRANCH   1  12
BRANCH   7  27
HETATM   27  C   UNL     1      24.104  47.290  49.960  1.00  0.00     0.274 C 
BRANCH  27  28
HETATM   28  O   UNL     1      24.292  48.667  49.667  1.00  0.00    -0.293 OA
BRANCH  28  29
HETATM   29  N   UNL     1      23.109  49.350  49.969  1.00  0.00    -0.171 NA
HETATM   30  H   UNL     1      23.103  49.776  50.898  1.00  0.00     0.160 HD
BRANCH  29  31
HETATM   31  C   UNL     1      22.579  50.194  49.009  1.00  0.00     0.035 C 
HETATM   32  C   UNL     1      23.206  50.599  47.895  1.00  0.00     0.039 C 
BRANCH  31  33
HETATM   33  C   UNL     1      21.191  50.647  49.238  1.00  0.00    -0.014 A 
HETATM   34  C   UNL     1      20.673  51.709  48.486  1.00  0.00     0.013 A 
HETATM   35  C   UNL     1      19.364  52.151  48.694  1.00  0.00     0.001 A 
HETATM   36  C   UNL     1      18.562  51.528  49.650  1.00  0.00     0.000 A 
HETATM   37  C   UNL     1      19.066  50.464  50.397  1.00  0.00     0.001 A 
HETATM   38  C   UNL     1      20.376  50.024  50.192  1.00  0.00     0.013 A 
ENDBRANCH  31  33
ENDBRANCH  29  31
ENDBRANCH  28  29
ENDBRANCH  27  28
ENDBRANCH   7  27
TORSDOF 8
ENDMDL
MODEL 6
REMARK VINA RESULT:     -10.5      2.425      5.559
REMARK  8 active torsions:
REMARK  status: ('A' for Active; 'I' for Inactive)
REMARK    1  A    between atoms: C_5  and  C_6 
REMARK    2  A    between atoms: C_11  and  C_12 
REMARK    3  A    between atoms: N_13  and  N_14 
REMARK    4  A    between atoms: C_20  and  C_21 
REMARK    5  A    between atoms: C_21  and  O_22 
REMARK    6  A    between atoms: O_22  and  N_23 
REMARK    7  A    between atoms: N_23  and  C_24 
REMARK    8  A    between atoms: C_24  and  C_25 
ROOT
HETATM    1  N   UNL     1      26.321  45.579  50.437  1.00  0.00    -0.180 N 
HETATM    2  C   UNL     1      26.970  46.534  49.641  1.00  0.00     0.282 C 
HETATM    3  O   UNL     1      28.097  46.424  49.159  1.00  0.00    -0.265 OA
HETATM    4  C   UNL     1      26.189  47.744  49.331  1.00  0.00     0.063 A 
HETATM    5  C   UNL     1      24.860  47.792  49.749  1.00  0.00     0.074 A 
HETATM    6  N   UNL     1      24.254  46.744  50.450  1.00  0.00    -0.230 NA
HETATM    7  C   UNL     1      24.978  45.708  50.761  1.00  0.00     0.157 C 
HETATM    8  C   UNL     1      26.758  48.806  48.613  1.00  0.00     0.019 A 
HETATM    9  C   UNL     1      25.987  49.927  48.312  1.00  0.00     0.001 A 
HETATM   10  C   UNL     1      24.656  49.984  48.723  1.00  0.00     0.002 A 
HETATM   11  C   UNL     1      24.098  48.921  49.439  1.00  0.00     0.032 A 
ENDROOT
BRANCH   1  12
HETATM   12  N   UNL     1      26.931  44.370  50.744  1.00  0.00    -0.174 NA
HETATM   13  C   UNL     1      27.579  44.290  51.860  1.00  0.00     0.154 C 
BRANCH  13  14
HETATM   14  C   UNL     1      28.274  43.065  52.178  1.00  0.00     0.031 A 
HETATM   15  C   UNL     1      29.043  42.740  53.340  1.00  0.00     0.100 A 
HETATM   16  N   UNL     1      29.465  41.464  53.285  1.00  0.00    -0.174 NA
HETATM   17  N   UNL     1      29.030  41.011  52.102  1.00  0.00    -0.288 N 
HETATM   18  H   UNL     1      29.255  40.057  51.843  1.00  0.00     0.188 HD
HETATM   19  C   UNL     1      28.314  41.926  51.399  1.00  0.00     0.124 A 
BRANCH  15  20
HETATM   20  C   UNL     1      29.398  43.592  54.480  1.00  0.00    -0.005 A 
HETATM   21  C   UNL     1      28.618  44.701  54.832  1.00  0.00     0.014 A 
HETATM   22  C   UNL     1      28.973  45.508  55.919  1.00  0.00     0.007 A 
HETATM   23  C   UNL     1      30.126  45.234  56.660  1.00  0.00    -0.062 A 
HETATM   24  C   UNL     1      30.516  46.093  57.826  1.00  0.00     0.048 C 
HETATM   25  C   UNL     1      30.914  44.132  56.306  1.00  0.00     0.007 A 
HETATM   26  C   UNL     1      30.555  43.323  55.224  1.00  0.00     0.014 A 
ENDBRANCH  15  20
ENDBRANCH  13  14
ENDBRANCH   1  12
BRANCH   7  27
HETATM   27  C   UNL     1      24.302  44.556  51.517  1.00  0.00     0.274 C 
BRANCH  27  28
HETATM   28  O   UNL     1      23.569  43.599  50.766  1.00  0.00    -0.293 OA
BRANCH  28  29
HETATM   29  N   UNL     1      22.390  44.200  50.311  1.00  0.00    -0.171 NA
HETATM   30  H   UNL     1      22.203  45.113  50.731  1.00  0.00     0.160 HD
BRANCH  29  31
HETATM   31  C   UNL     1      22.135  44.192  48.952  1.00  0.00     0.035 C 
HETATM   32  C   UNL     1      22.505  43.229  48.094  1.00  0.00     0.039 C 
BRANCH  31  33
HETATM   33  C   UNL     1      21.359  45.336  48.430  1.00  0.00    -0.014 A 
HETATM   34  C   UNL     1      19.978  45.402  48.657  1.00  0.00     0.013 A 
HETATM   35  C   UNL     1      19.231  46.475  48.167  1.00  0.00     0.001 A 
HETATM   36  C   UNL     1      19.861  47.494  47.452  1.00  0.00     0.000 A 
HETATM   37  C   UNL     1      21.236  47.442  47.229  1.00  0.00     0.001 A 
HETATM   38  C   UNL     1      21.984  46.368  47.716  1.00  0.00     0.013 A 
ENDBRANCH  31  33
ENDBRANCH  29  31
ENDBRANCH  28  29
ENDBRANCH  27  28
ENDBRANCH   7  27
TORSDOF 8
ENDMDL
MODEL 7
REMARK VINA RESULT:     -10.1      2.464      5.623
REMARK  8 active torsions:
REMARK  status: ('A' for Active; 'I' for Inactive)
REMARK    1  A    between atoms: C_5  and  C_6 
REMARK    2  A    between atoms: C_11  and  C_12 
REMARK    3  A    between atoms: N_13  and  N_14 
REMARK    4  A    between atoms: C_20  and  C_21 
REMARK    5  A    between atoms: C_21  and  O_22 
REMARK    6  A    between atoms: O_22  and  N_23 
REMARK    7  A    between atoms: N_23  and  C_24 
REMARK    8  A    between atoms: C_24  and  C_25 
ROOT
HETATM    1  N   UNL     1      25.989  45.533  50.072  1.00  0.00    -0.180 N 
HETATM    2  C   UNL     1      26.805  46.541  49.537  1.00  0.00     0.282 C 
HETATM    3  O   UNL     1      28.008  46.441  49.294  1.00  0.00    -0.265 OA
HETATM    4  C   UNL     1      26.123  47.804  49.201  1.00  0.00     0.063 A 
HETATM    5  C   UNL     1      24.737  47.855  49.334  1.00  0.00     0.074 A 
HETATM    6  N   UNL     1      23.983  46.764  49.775  1.00  0.00    -0.230 NA
HETATM    7  C   UNL     1      24.610  45.677  50.119  1.00  0.00     0.157 C 
HETATM    8  C   UNL     1      26.845  48.912  48.737  1.00  0.00     0.019 A 
HETATM    9  C   UNL     1      26.170  50.085  48.402  1.00  0.00     0.001 A 
HETATM   10  C   UNL     1      24.784  50.147  48.529  1.00  0.00     0.002 A 
HETATM   11  C   UNL     1      24.073  49.036  48.993  1.00  0.00     0.032 A 
ENDROOT
BRANCH   1  12
HETATM   12  N   UNL     1      26.505  44.279  50.369  1.00  0.00    -0.174 NA
HETATM   13  C   UNL     1      27.118  44.133  51.498  1.00  0.00     0.154 C 
BRANCH  13  14
HETATM   14  C   UNL     1      27.717  42.856  51.808  1.00  0.00     0.031 A 
HETATM   15  C   UNL     1      28.531  42.489  52.926  1.00  0.00     0.100 A 
HETATM   16  N   UNL     1      28.828  41.178  52.883  1.00  0.00    -0.174 NA
HETATM   17  N   UNL     1      28.272  40.739  51.747  1.00  0.00    -0.288 N 
HETATM   18  H   UNL     1      28.389  39.762  51.503  1.00  0.00     0.188 HD
HETATM   19  C   UNL     1      27.597  41.699  51.064  1.00  0.00     0.124 A 
BRANCH  15  20
HETATM   20  C   UNL     1      29.041  43.332  54.012  1.00  0.00    -0.005 A 
HETATM   21  C   UNL     1      30.305  43.109  54.575  1.00  0.00     0.014 A 
HETATM   22  C   UNL     1      30.776  43.917  55.616  1.00  0.00     0.007 A 
HETATM   23  C   UNL     1      29.984  44.949  56.127  1.00  0.00    -0.062 A 
HETATM   24  C   UNL     1      30.480  45.821  57.243  1.00  0.00     0.048 C 
HETATM   25  C   UNL     1      28.718  45.170  55.574  1.00  0.00     0.007 A 
HETATM   26  C   UNL     1      28.251  44.366  54.530  1.00  0.00     0.014 A 
ENDBRANCH  15  20
ENDBRANCH  13  14
ENDBRANCH   1  12
BRANCH   7  27
HETATM   27  C   UNL     1      23.774  44.477  50.588  1.00  0.00     0.274 C 
BRANCH  27  28
HETATM   28  O   UNL     1      22.924  43.841  49.645  1.00  0.00    -0.293 OA
BRANCH  28  29
HETATM   29  N   UNL     1      21.718  44.547  49.586  1.00  0.00    -0.171 NA
HETATM   30  H   UNL     1      21.670  45.338  50.232  1.00  0.00     0.160 HD
BRANCH  29  31
HETATM   31  C   UNL     1      21.206  44.865  48.341  1.00  0.00     0.035 C 
HETATM   32  C   UNL     1      21.169  44.043  47.281  1.00  0.00     0.039 C 
BRANCH  31  33
HETATM   33  C   UNL     1      20.628  46.217  48.202  1.00  0.00    -0.014 A 
HETATM   34  C   UNL     1      21.344  47.214  47.526  1.00  0.00     0.013 A 
HETATM   35  C   UNL     1      20.811  48.498  47.391  1.00  0.00     0.001 A 
HETATM   36  C   UNL     1      19.556  48.792  47.924  1.00  0.00     0.000 A 
HETATM   37  C   UNL     1      18.832  47.804  48.590  1.00  0.00     0.001 A 
HETATM   38  C   UNL     1      19.365  46.521  48.729  1.00  0.00     0.013 A 
ENDBRANCH  31  33
ENDBRANCH  29  31
ENDBRANCH  28  29
ENDBRANCH  27  28
ENDBRANCH   7  27
TORSDOF 8
ENDMDL
MODEL 8
REMARK VINA RESULT:     -10.1      2.503      6.783
REMARK  8 active torsions:
REMARK  status: ('A' for Active; 'I' for Inactive)
REMARK    1  A    between atoms: C_5  and  C_6 
REMARK    2  A    between atoms: C_11  and  C_12 
REMARK    3  A    between atoms: N_13  and  N_14 
REMARK    4  A    between atoms: C_20  and  C_21 
REMARK    5  A    between atoms: C_21  and  O_22 
REMARK    6  A    between atoms: O_22  and  N_23 
REMARK    7  A    between atoms: N_23  and  C_24 
REMARK    8  A    between atoms: C_24  and  C_25 
ROOT
HETATM    1  N   UNL     1      26.230  41.345  50.210  1.00  0.00    -0.180 N 
HETATM    2  C   UNL     1      26.436  40.292  49.307  1.00  0.00     0.282 C 
HETATM    3  O   UNL     1      25.773  40.073  48.293  1.00  0.00    -0.265 OA
HETATM    4  C   UNL     1      27.583  39.415  49.599  1.00  0.00     0.063 A 
HETATM    5  C   UNL     1      28.419  39.761  50.659  1.00  0.00     0.074 A 
HETATM    6  N   UNL     1      28.203  40.894  51.449  1.00  0.00    -0.230 NA
HETATM    7  C   UNL     1      27.153  41.624  51.209  1.00  0.00     0.157 C 
HETATM    8  C   UNL     1      27.842  38.281  48.817  1.00  0.00     0.019 A 
HETATM    9  C   UNL     1      28.950  37.484  49.100  1.00  0.00     0.001 A 
HETATM   10  C   UNL     1      29.794  37.822  50.157  1.00  0.00     0.002 A 
HETATM   11  C   UNL     1      29.527  38.955  50.931  1.00  0.00     0.032 A 
ENDROOT
BRANCH   1  12
HETATM   12  N   UNL     1      25.220  42.275  50.006  1.00  0.00    -0.174 NA
HETATM   13  C   UNL     1      25.417  43.191  49.113  1.00  0.00     0.154 C 
BRANCH  13  14
HETATM   14  C   UNL     1      24.409  44.207  48.922  1.00  0.00     0.031 A 
HETATM   15  C   UNL     1      24.201  45.419  49.652  1.00  0.00     0.100 A 
HETATM   16  N   UNL     1      23.197  46.131  49.108  1.00  0.00    -0.174 NA
HETATM   17  N   UNL     1      22.744  45.370  48.104  1.00  0.00    -0.288 N 
HETATM   18  H   UNL     1      21.961  45.713  47.559  1.00  0.00     0.188 HD
HETATM   19  C   UNL     1      23.430  44.209  47.948  1.00  0.00     0.124 A 
BRANCH  15  20
HETATM   20  C   UNL     1      24.904  45.914  50.839  1.00  0.00    -0.005 A 
HETATM   21  C   UNL     1      25.829  46.963  50.755  1.00  0.00     0.014 A 
HETATM   22  C   UNL     1      26.498  47.420  51.896  1.00  0.00     0.007 A 
HETATM   23  C   UNL     1      26.270  46.823  53.140  1.00  0.00    -0.062 A 
HETATM   24  C   UNL     1      26.981  47.306  54.368  1.00  0.00     0.048 C 
HETATM   25  C   UNL     1      25.354  45.769  53.227  1.00  0.00     0.007 A 
HETATM   26  C   UNL     1      24.682  45.317  52.088  1.00  0.00     0.014 A 
ENDBRANCH  15  20
ENDBRANCH  13  14
ENDBRANCH   1  12
BRANCH   7  27
HETATM   27  C   UNL     1      26.931  42.876  52.069  1.00  0.00     0.274 C 
BRANCH  27  28
HETATM   28  O   UNL     1      27.366  42.847  53.421  1.00  0.00    -0.293 OA
BRANCH  28  29
HETATM   29  N   UNL     1      28.327  43.848  53.600  1.00  0.00    -0.171 NA
HETATM   30  H   UNL     1      27.991  44.653  54.135  1.00  0.00     0.160 HD
BRANCH  29  31
HETATM   31  C   UNL     1      29.602  43.470  53.980  1.00  0.00     0.035 C 
HETATM   32  C   UNL     1      30.449  42.734  53.244  1.00  0.00     0.039 C 
BRANCH  31  33
HETATM   33  C   UNL     1      30.058  43.957  55.298  1.00  0.00    -0.014 A 
HETATM   34  C   UNL     1      29.525  45.141  55.825  1.00  0.00     0.013 A 
HETATM   35  C   UNL     1      29.949  45.616  57.068  1.00  0.00     0.001 A 
HETATM   36  C   UNL     1      30.906  44.908  57.795  1.00  0.00     0.000 A 
HETATM   37  C   UNL     1      31.436  43.724  57.283  1.00  0.00     0.001 A 
HETATM   38  C   UNL     1      31.015  43.250  56.039  1.00  0.00     0.013 A 
ENDBRANCH  31  33
ENDBRANCH  29  31
ENDBRANCH  28  29
ENDBRANCH  27  28
ENDBRANCH   7  27
TORSDOF 8
ENDMDL
MODEL 9
REMARK VINA RESULT:      -9.8      2.867      9.354
REMARK  8 active torsions:
REMARK  status: ('A' for Active; 'I' for Inactive)
REMARK    1  A    between atoms: C_5  and  C_6 
REMARK    2  A    between atoms: C_11  and  C_12 
REMARK    3  A    between atoms: N_13  and  N_14 
REMARK    4  A    between atoms: C_20  and  C_21 
REMARK    5  A    between atoms: C_21  and  O_22 
REMARK    6  A    between atoms: O_22  and  N_23 
REMARK    7  A    between atoms: N_23  and  C_24 
REMARK    8  A    between atoms: C_24  and  C_25 
ROOT
HETATM    1  N   UNL     1      24.558  45.284  50.321  1.00  0.00    -0.180 N 
HETATM    2  C   UNL     1      24.989  46.461  50.952  1.00  0.00     0.282 C 
HETATM    3  O   UNL     1      24.971  47.590  50.460  1.00  0.00    -0.265 OA
HETATM    4  C   UNL     1      25.453  46.308  52.342  1.00  0.00     0.063 A 
HETATM    5  C   UNL     1      25.324  45.056  52.941  1.00  0.00     0.074 A 
HETATM    6  N   UNL     1      24.782  43.954  52.273  1.00  0.00    -0.230 NA
HETATM    7  C   UNL     1      24.429  44.098  51.028  1.00  0.00     0.157 C 
HETATM    8  C   UNL     1      25.984  47.395  53.049  1.00  0.00     0.019 A 
HETATM    9  C   UNL     1      26.390  47.226  54.372  1.00  0.00     0.001 A 
HETATM   10  C   UNL     1      26.264  45.980  54.982  1.00  0.00     0.002 A 
HETATM   11  C   UNL     1      25.733  44.901  54.268  1.00  0.00     0.032 A 
ENDROOT
BRANCH   1  12
HETATM   12  N   UNL     1      24.040  45.312  49.033  1.00  0.00    -0.174 NA
HETATM   13  C   UNL     1      22.865  45.828  48.869  1.00  0.00     0.154 C 
BRANCH  13  14
HETATM   14  C   UNL     1      22.275  45.816  47.551  1.00  0.00     0.031 A 
HETATM   15  C   UNL     1      21.498  46.827  46.902  1.00  0.00     0.100 A 
HETATM   16  N   UNL     1      21.198  46.457  45.644  1.00  0.00    -0.174 NA
HETATM   17  N   UNL     1      21.715  45.228  45.518  1.00  0.00    -0.288 N 
HETATM   18  H   UNL     1      21.588  44.743  44.636  1.00  0.00     0.188 HD
HETATM   19  C   UNL     1      22.368  44.795  46.627  1.00  0.00     0.124 A 
BRANCH  15  20
HETATM   20  C   UNL     1      21.026  48.111  47.431  1.00  0.00    -0.005 A 
HETATM   21  C   UNL     1      19.661  48.365  47.616  1.00  0.00     0.014 A 
HETATM   22  C   UNL     1      19.225  49.597  48.115  1.00  0.00     0.007 A 
HETATM   23  C   UNL     1      20.144  50.606  48.420  1.00  0.00    -0.062 A 
HETATM   24  C   UNL     1      19.686  51.929  48.956  1.00  0.00     0.048 C 
HETATM   25  C   UNL     1      21.508  50.360  48.228  1.00  0.00     0.007 A 
HETATM   26  C   UNL     1      21.943  49.126  47.735  1.00  0.00     0.014 A 
ENDBRANCH  15  20
ENDBRANCH  13  14
ENDBRANCH   1  12
BRANCH   7  27
HETATM   27  C   UNL     1      23.820  42.888  50.305  1.00  0.00     0.274 C 
BRANCH  27  28
HETATM   28  O   UNL     1      24.701  41.897  49.796  1.00  0.00    -0.293 OA
BRANCH  28  29
HETATM   29  N   UNL     1      25.518  41.449  50.840  1.00  0.00    -0.171 NA
HETATM   30  H   UNL     1      25.203  40.573  51.264  1.00  0.00     0.160 HD
BRANCH  29  31
HETATM   31  C   UNL     1      26.888  41.471  50.654  1.00  0.00     0.035 C 
HETATM   32  C   UNL     1      27.531  41.071  49.546  1.00  0.00     0.039 C 
BRANCH  31  33
HETATM   33  C   UNL     1      27.687  42.016  51.770  1.00  0.00    -0.014 A 
HETATM   34  C   UNL     1      27.955  41.218  52.890  1.00  0.00     0.013 A 
HETATM   35  C   UNL     1      28.705  41.722  53.955  1.00  0.00     0.001 A 
HETATM   36  C   UNL     1      29.198  43.026  53.905  1.00  0.00     0.000 A 
HETATM   37  C   UNL     1      28.944  43.825  52.791  1.00  0.00     0.001 A 
HETATM   38  C   UNL     1      28.191  43.323  51.727  1.00  0.00     0.013 A 
ENDBRANCH  31  33
ENDBRANCH  29  31
ENDBRANCH  28  29
ENDBRANCH  27  28
ENDBRANCH   7  27
TORSDOF 8
ENDMDL
MODEL 10
REMARK VINA RESULT:      -9.7      2.399      4.892
REMARK  8 active torsions:
REMARK  status: ('A' for Active; 'I' for Inactive)
REMARK    1  A    between atoms: C_5  and  C_6 
REMARK    2  A    between atoms: C_11  and  C_12 
REMARK    3  A    between atoms: N_13  and  N_14 
REMARK    4  A    between atoms: C_20  and  C_21 
REMARK    5  A    between atoms: C_21  and  O_22 
REMARK    6  A    between atoms: O_22  and  N_23 
REMARK    7  A    between atoms: N_23  and  C_24 
REMARK    8  A    between atoms: C_24  and  C_25 
ROOT
HETATM    1  N   UNL     1      25.500  43.190  49.017  1.00  0.00    -0.180 N 
HETATM    2  C   UNL     1      24.454  42.592  48.298  1.00  0.00     0.282 C 
HETATM    3  O   UNL     1      24.383  41.404  47.984  1.00  0.00    -0.265 OA
HETATM    4  C   UNL     1      23.333  43.481  47.944  1.00  0.00     0.063 A 
HETATM    5  C   UNL     1      23.349  44.784  48.437  1.00  0.00     0.074 A 
HETATM    6  N   UNL     1      24.384  45.271  49.241  1.00  0.00    -0.230 NA
HETATM    7  C   UNL     1      25.391  44.488  49.496  1.00  0.00     0.157 C 
HETATM    8  C   UNL     1      22.269  43.020  47.156  1.00  0.00     0.019 A 
HETATM    9  C   UNL     1      21.209  43.876  46.859  1.00  0.00     0.001 A 
HETATM   10  C   UNL     1      21.214  45.181  47.348  1.00  0.00     0.002 A 
HETATM   11  C   UNL     1      22.280  45.630  48.133  1.00  0.00     0.032 A 
ENDROOT
BRANCH   1  12
HETATM   12  N   UNL     1      26.581  42.441  49.462  1.00  0.00    -0.174 NA
HETATM   13  C   UNL     1      26.436  41.767  50.557  1.00  0.00     0.154 C 
BRANCH  13  14
HETATM   14  C   UNL     1      27.562  41.027  51.076  1.00  0.00     0.031 A 
HETATM   15  C   UNL     1      28.370  41.304  52.224  1.00  0.00     0.100 A 
HETATM   16  N   UNL     1      29.276  40.326  52.409  1.00  0.00    -0.174 NA
HETATM   17  N   UNL     1      29.089  39.489  51.382  1.00  0.00    -0.288 N 
HETATM   18  H   UNL     1      29.689  38.674  51.313  1.00  0.00     0.188 HD
HETATM   19  C   UNL     1      28.079  39.859  50.553  1.00  0.00     0.124 A 
BRANCH  15  20
HETATM   20  C   UNL     1      28.322  42.454  53.132  1.00  0.00    -0.005 A 
HETATM   21  C   UNL     1      27.105  43.043  53.499  1.00  0.00     0.014 A 
HETATM   22  C   UNL     1      27.075  44.145  54.361  1.00  0.00     0.007 A 
HETATM   23  C   UNL     1      28.263  44.691  54.856  1.00  0.00    -0.062 A 
HETATM   24  C   UNL     1      28.241  45.872  55.780  1.00  0.00     0.048 C 
HETATM   25  C   UNL     1      29.482  44.112  54.485  1.00  0.00     0.007 A 
HETATM   26  C   UNL     1      29.510  43.008  53.628  1.00  0.00     0.014 A 
ENDBRANCH  15  20
ENDBRANCH  13  14
ENDBRANCH   1  12
BRANCH   7  27
HETATM   27  C   UNL     1      26.516  45.024  50.392  1.00  0.00     0.274 C 
BRANCH  27  28
HETATM   28  O   UNL     1      26.642  46.431  50.542  1.00  0.00    -0.293 OA
BRANCH  28  29
HETATM   29  N   UNL     1      26.745  47.006  49.270  1.00  0.00    -0.171 NA
HETATM   30  H   UNL     1      26.152  46.560  48.566  1.00  0.00     0.160 HD
BRANCH  29  31
HETATM   31  C   UNL     1      26.716  48.385  49.172  1.00  0.00     0.035 C 
HETATM   32  C   UNL     1      27.780  49.197  49.272  1.00  0.00     0.039 C 
BRANCH  31  33
HETATM   33  C   UNL     1      25.396  48.990  48.900  1.00  0.00    -0.014 A 
HETATM   34  C   UNL     1      24.261  48.512  49.568  1.00  0.00     0.013 A 
HETATM   35  C   UNL     1      23.005  49.071  49.319  1.00  0.00     0.001 A 
HETATM   36  C   UNL     1      22.877  50.116  48.404  1.00  0.00     0.000 A 
HETATM   37  C   UNL     1      24.002  50.605  47.742  1.00  0.00     0.001 A 
HETATM   38  C   UNL     1      25.257  50.044  47.988  1.00  0.00     0.013 A 
ENDBRANCH  31  33
ENDBRANCH  29  31
ENDBRANCH  28  29
ENDBRANCH  27  28
ENDBRANCH   7  27
TORSDOF 8
ENDMDL
