MODEL 1
REMARK VINA RESULT:      -9.6      0.000      0.000
REMARK  5 active torsions:
REMARK  status: ('A' for Active; 'I' for Inactive)
REMARK    1  A    between atoms: C_7  and  C_8 
REMARK    2  A    between atoms: C_8  and  N_9 
REMARK    3  A    between atoms: C_13  and  C_14 
REMARK    4  A    between atoms: C_17  and  C_18 
REMARK    5  A    between atoms: C_18  and  N_19 
ROOT
HETATM    1  N   UNL     1      27.187  44.823  53.628  1.00  0.00    -0.067 N 
HETATM    2  H   UNL     1      27.363  43.863  53.950  1.00  0.00     0.280 HD
HETATM    3  C   UNL     1      25.720  45.113  53.846  1.00  0.00     0.236 C 
HETATM    4  C   UNL     1      24.855  44.242  52.939  1.00  0.00     0.040 C 
HETATM    5  C   UNL     1      25.222  44.360  51.457  1.00  0.00     0.060 C 
HETATM    6  C   UNL     1      26.721  44.085  51.279  1.00  0.00     0.040 C 
HETATM    7  C   UNL     1      27.612  44.929  52.183  1.00  0.00     0.236 C 
ENDROOT
BRANCH   5   8
HETATM    8  C   UNL     1      24.832  45.707  50.910  1.00  0.00     0.134 A 
HETATM    9  N   UNL     1      23.906  45.954  49.920  1.00  0.00    -0.323 N 
HETATM   10  C   UNL     1      23.122  44.976  49.206  1.00  0.00     0.159 C 
HETATM   11  C   UNL     1      23.884  47.321  49.763  1.00  0.00     0.155 A 
HETATM   12  N   UNL     1      24.718  47.862  50.628  1.00  0.00    -0.133 NA
HETATM   13  N   UNL     1      25.311  46.859  51.331  1.00  0.00    -0.134 NA
BRANCH  11  14
HETATM   14  C   UNL     1      23.062  48.100  48.791  1.00  0.00     0.315 C 
BRANCH  14  15
HETATM   15  N   UNL     1      21.903  48.795  49.487  1.00  0.00    -0.064 N 
HETATM   16  H   UNL     1      22.020  48.547  50.483  1.00  0.00     0.280 HD
HETATM   17  C   UNL     1      22.001  50.302  49.414  1.00  0.00     0.235 C 
HETATM   18  C   UNL     1      20.929  50.920  50.298  1.00  0.00     0.028 C 
HETATM   19  C   UNL     1      19.538  50.429  49.915  1.00  0.00     0.003 C 
HETATM   20  C   UNL     1      19.470  48.906  49.913  1.00  0.00     0.028 C 
HETATM   21  C   UNL     1      20.556  48.289  49.042  1.00  0.00     0.235 C 
ENDBRANCH  14  15
ENDBRANCH  11  14
ENDBRANCH   5   8
BRANCH   1  22
HETATM   22  C   UNL     1      28.081  45.717  54.482  1.00  0.00     0.273 C 
BRANCH  22  23
HETATM   23  C   UNL     1      29.177  44.982  55.205  1.00  0.00    -0.032 A 
HETATM   24  C   UNL     1      29.699  43.786  54.692  1.00  0.00     0.012 A 
HETATM   25  C   UNL     1      30.686  43.094  55.396  1.00  0.00     0.043 A 
HETATM   26  C   UNL     1      31.152  43.592  56.608  1.00  0.00     0.122 A 
HETATM   27  C   UNL     1      30.665  44.789  57.135  1.00  0.00    -0.023 A 
HETATM   28  F   UNL     1      32.083  42.899  57.276  1.00  0.00    -0.206 F 
HETATM   29  C   UNL     1      31.159  45.292  58.457  1.00  0.00     0.051 C 
HETATM   30  C   UNL     1      29.668  45.476  56.429  1.00  0.00     0.018 A 
ENDBRANCH  22  23
ENDBRANCH   1  22
TORSDOF 5
ENDMDL
MODEL 2
REMARK VINA RESULT:      -9.2      1.526      2.320
REMARK  5 active torsions:
REMARK  status: ('A' for Active; 'I' for Inactive)
REMARK    1  A    between atoms: C_7  and  C_8 
REMARK    2  A    between atoms: C_8  and  N_9 
REMARK    3  A    between atoms: C_13  and  C_14 
REMARK    4  A    between atoms: C_17  and  C_18 
REMARK    5  A    between atoms: C_18  and  N_19 
ROOT
HETATM    1  N   UNL     1      26.059  45.142  52.186  1.00  0.00    -0.067 N 
HETATM    2  H   UNL     1      26.610  44.275  52.240  1.00  0.00     0.280 HD
HETATM    3  C   UNL     1      24.611  44.748  52.009  1.00  0.00     0.236 C 
HETATM    4  C   UNL     1      24.394  44.075  50.657  1.00  0.00     0.040 C 
HETATM    5  C   UNL     1      24.880  44.919  49.476  1.00  0.00     0.060 C 
HETATM    6  C   UNL     1      26.343  45.320  49.703  1.00  0.00     0.040 C 
HETATM    7  C   UNL     1      26.596  45.982  51.053  1.00  0.00     0.236 C 
ENDROOT
BRANCH   5   8
HETATM    8  C   UNL     1      23.996  46.120  49.271  1.00  0.00     0.134 A 
HETATM    9  N   UNL     1      22.817  46.159  48.560  1.00  0.00    -0.323 N 
HETATM   10  C   UNL     1      22.187  45.061  47.869  1.00  0.00     0.159 C 
HETATM   11  C   UNL     1      22.367  47.456  48.654  1.00  0.00     0.155 A 
HETATM   12  N   UNL     1      23.206  48.143  49.403  1.00  0.00    -0.133 NA
HETATM   13  N   UNL     1      24.220  47.315  49.776  1.00  0.00    -0.134 NA
BRANCH  11  14
HETATM   14  C   UNL     1      21.137  48.028  48.033  1.00  0.00     0.315 C 
BRANCH  14  15
HETATM   15  N   UNL     1      20.713  49.308  48.735  1.00  0.00    -0.064 N 
HETATM   16  H   UNL     1      21.530  49.563  49.313  1.00  0.00     0.280 HD
HETATM   17  C   UNL     1      20.505  50.456  47.772  1.00  0.00     0.235 C 
HETATM   18  C   UNL     1      20.285  51.739  48.558  1.00  0.00     0.028 C 
HETATM   19  C   UNL     1      19.120  51.604  49.532  1.00  0.00     0.003 C 
HETATM   20  C   UNL     1      19.300  50.397  50.446  1.00  0.00     0.028 C 
HETATM   21  C   UNL     1      19.538  49.117  49.657  1.00  0.00     0.235 C 
ENDBRANCH  14  15
ENDBRANCH  11  14
ENDBRANCH   5   8
BRANCH   1  22
HETATM   22  C   UNL     1      26.299  45.867  53.507  1.00  0.00     0.273 C 
BRANCH  22  23
HETATM   23  C   UNL     1      27.539  45.425  54.237  1.00  0.00    -0.032 A 
HETATM   24  C   UNL     1      27.989  46.115  55.372  1.00  0.00     0.012 A 
HETATM   25  C   UNL     1      29.163  45.718  56.012  1.00  0.00     0.043 A 
HETATM   26  C   UNL     1      29.889  44.636  55.524  1.00  0.00     0.122 A 
HETATM   27  C   UNL     1      29.456  43.919  54.408  1.00  0.00    -0.023 A 
HETATM   28  F   UNL     1      31.024  44.288  56.142  1.00  0.00    -0.206 F 
HETATM   29  C   UNL     1      30.268  42.775  53.880  1.00  0.00     0.051 C 
HETATM   30  C   UNL     1      28.281  44.325  53.763  1.00  0.00     0.018 A 
ENDBRANCH  22  23
ENDBRANCH   1  22
TORSDOF 5
ENDMDL
MODEL 3
REMARK VINA RESULT:      -8.8      1.466      2.340
REMARK  5 active torsions:
REMARK  status: ('A' for Active; 'I' for Inactive)
REMARK    1  A    between atoms: C_7  and  C_8 
REMARK    2  A    between atoms: C_8  and  N_9 
REMARK    3  A    between atoms: C_13  and  C_14 
REMARK    4  A    between atoms: C_17  and  C_18 
REMARK    5  A    between atoms: C_18  and  N_19 
ROOT
HETATM    1  N   UNL     1      27.045  45.352  51.978  1.00  0.00    -0.067 N 
HETATM    2  H   UNL     1      28.019  45.659  52.087  1.00  0.00     0.280 HD
HETATM    3  C   UNL     1      26.891  44.829  50.568  1.00  0.00     0.236 C 
HETATM    4  C   UNL     1      27.051  45.956  49.552  1.00  0.00     0.040 C 
HETATM    5  C   UNL     1      26.110  47.137  49.803  1.00  0.00     0.060 C 
HETATM    6  C   UNL     1      26.276  47.622  51.249  1.00  0.00     0.040 C 
HETATM    7  C   UNL     1      26.137  46.516  52.289  1.00  0.00     0.236 C 
ENDROOT
BRANCH   5   8
HETATM    8  C   UNL     1      24.684  46.764  49.499  1.00  0.00     0.134 A 
HETATM    9  N   UNL     1      23.713  47.591  48.977  1.00  0.00    -0.323 N 
HETATM   10  C   UNL     1      23.863  48.979  48.615  1.00  0.00     0.159 C 
HETATM   11  C   UNL     1      22.582  46.815  48.869  1.00  0.00     0.155 A 
HETATM   12  N   UNL     1      22.865  45.592  49.269  1.00  0.00    -0.133 NA
HETATM   13  N   UNL     1      24.166  45.566  49.667  1.00  0.00    -0.134 NA
BRANCH  11  14
HETATM   14  C   UNL     1      21.239  47.247  48.380  1.00  0.00     0.315 C 
BRANCH  14  15
HETATM   15  N   UNL     1      20.564  48.173  49.379  1.00  0.00    -0.064 N 
HETATM   16  H   UNL     1      21.150  48.101  50.227  1.00  0.00     0.280 HD
HETATM   17  C   UNL     1      20.618  49.623  48.954  1.00  0.00     0.235 C 
HETATM   18  C   UNL     1      20.110  50.500  50.088  1.00  0.00     0.028 C 
HETATM   19  C   UNL     1      18.707  50.093  50.523  1.00  0.00     0.003 C 
HETATM   20  C   UNL     1      18.644  48.611  50.873  1.00  0.00     0.028 C 
HETATM   21  C   UNL     1      19.170  47.736  49.743  1.00  0.00     0.235 C 
ENDBRANCH  14  15
ENDBRANCH  11  14
ENDBRANCH   5   8
BRANCH   1  22
HETATM   22  C   UNL     1      26.835  44.258  53.021  1.00  0.00     0.273 C 
BRANCH  22  23
HETATM   23  C   UNL     1      28.063  43.934  53.829  1.00  0.00    -0.032 A 
HETATM   24  C   UNL     1      28.676  42.677  53.732  1.00  0.00     0.012 A 
HETATM   25  C   UNL     1      29.788  42.379  54.520  1.00  0.00     0.043 A 
HETATM   26  C   UNL     1      30.290  43.330  55.402  1.00  0.00     0.122 A 
HETATM   27  C   UNL     1      29.712  44.595  55.507  1.00  0.00    -0.023 A 
HETATM   28  F   UNL     1      31.345  43.012  56.163  1.00  0.00    -0.206 F 
HETATM   29  C   UNL     1      30.250  45.595  56.486  1.00  0.00     0.051 C 
HETATM   30  C   UNL     1      28.590  44.889  54.721  1.00  0.00     0.018 A 
ENDBRANCH  22  23
ENDBRANCH   1  22
TORSDOF 5
ENDMDL
MODEL 4
REMARK VINA RESULT:      -8.6      4.458     11.034
REMARK  5 active torsions:
REMARK  status: ('A' for Active; 'I' for Inactive)
REMARK    1  A    between atoms: C_7  and  C_8 
REMARK    2  A    between atoms: C_8  and  N_9 
REMARK    3  A    between atoms: C_13  and  C_14 
REMARK    4  A    between atoms: C_17  and  C_18 
REMARK    5  A    between atoms: C_18  and  N_19 
ROOT
HETATM    1  N   UNL     1      20.925  49.728  49.225  1.00  0.00    -0.067 N 
HETATM    2  H   UNL     1      20.627  50.206  48.365  1.00  0.00     0.280 HD
HETATM    3  C   UNL     1      22.306  50.239  49.570  1.00  0.00     0.236 C 
HETATM    4  C   UNL     1      23.323  49.803  48.520  1.00  0.00     0.040 C 
HETATM    5  C   UNL     1      23.341  48.290  48.286  1.00  0.00     0.060 C 
HETATM    6  C   UNL     1      21.922  47.806  47.964  1.00  0.00     0.040 C 
HETATM    7  C   UNL     1      20.878  48.239  48.987  1.00  0.00     0.236 C 
ENDROOT
BRANCH   5   8
HETATM    8  C   UNL     1      23.923  47.568  49.472  1.00  0.00     0.134 A 
HETATM    9  N   UNL     1      23.911  46.208  49.692  1.00  0.00    -0.323 N 
HETATM   10  C   UNL     1      23.342  45.198  48.833  1.00  0.00     0.159 C 
HETATM   11  C   UNL     1      24.558  46.019  50.891  1.00  0.00     0.155 A 
HETATM   12  N   UNL     1      24.963  47.188  51.345  1.00  0.00    -0.133 NA
HETATM   13  N   UNL     1      24.560  48.147  50.468  1.00  0.00    -0.134 NA
BRANCH  11  14
HETATM   14  C   UNL     1      24.790  44.722  51.592  1.00  0.00     0.315 C 
BRANCH  14  15
HETATM   15  N   UNL     1      26.089  44.750  52.382  1.00  0.00    -0.064 N 
HETATM   16  H   UNL     1      26.490  45.680  52.177  1.00  0.00     0.280 HD
HETATM   17  C   UNL     1      25.860  44.710  53.876  1.00  0.00     0.235 C 
HETATM   18  C   UNL     1      27.180  44.946  54.593  1.00  0.00     0.028 C 
HETATM   19  C   UNL     1      28.239  43.938  54.160  1.00  0.00     0.003 C 
HETATM   20  C   UNL     1      28.405  43.929  52.644  1.00  0.00     0.028 C 
HETATM   21  C   UNL     1      27.080  43.711  51.928  1.00  0.00     0.235 C 
ENDBRANCH  14  15
ENDBRANCH  11  14
ENDBRANCH   5   8
BRANCH   1  22
HETATM   22  C   UNL     1      19.894  50.102  50.285  1.00  0.00     0.273 C 
BRANCH  22  23
HETATM   23  C   UNL     1      18.645  50.734  49.734  1.00  0.00    -0.032 A 
HETATM   24  C   UNL     1      18.380  52.096  49.937  1.00  0.00     0.012 A 
HETATM   25  C   UNL     1      17.196  52.658  49.455  1.00  0.00     0.043 A 
HETATM   26  C   UNL     1      16.278  51.866  48.773  1.00  0.00     0.122 A 
HETATM   27  C   UNL     1      16.524  50.512  48.540  1.00  0.00    -0.023 A 
HETATM   28  F   UNL     1      15.141  52.422  48.339  1.00  0.00    -0.206 F 
HETATM   29  C   UNL     1      15.508  49.669  47.829  1.00  0.00     0.051 C 
HETATM   30  C   UNL     1      17.709  49.949  49.032  1.00  0.00     0.018 A 
ENDBRANCH  22  23
ENDBRANCH   1  22
TORSDOF 5
ENDMDL
MODEL 5
REMARK VINA RESULT:      -8.6      1.884      2.536
REMARK  5 active torsions:
REMARK  status: ('A' for Active; 'I' for Inactive)
REMARK    1  A    between atoms: C_7  and  C_8 
REMARK    2  A    between atoms: C_8  and  N_9 
REMARK    3  A    between atoms: C_13  and  C_14 
REMARK    4  A    between atoms: C_17  and  C_18 
REMARK    5  A    between atoms: C_18  and  N_19 
ROOT
HETATM    1  N   UNL     1      26.977  43.884  51.815  1.00  0.00    -0.067 N 
HETATM    2  H   UNL     1      27.892  43.438  51.671  1.00  0.00     0.280 HD
HETATM    3  C   UNL     1      25.970  42.783  52.060  1.00  0.00     0.236 C 
HETATM    4  C   UNL     1      25.786  41.930  50.808  1.00  0.00     0.040 C 
HETATM    5  C   UNL     1      25.414  42.747  49.568  1.00  0.00     0.060 C 
HETATM    6  C   UNL     1      26.442  43.868  49.367  1.00  0.00     0.040 C 
HETATM    7  C   UNL     1      26.661  44.730  50.606  1.00  0.00     0.236 C 
ENDROOT
BRANCH   5   8
HETATM    8  C   UNL     1      24.013  43.286  49.678  1.00  0.00     0.134 A 
HETATM    9  N   UNL     1      23.284  43.889  48.676  1.00  0.00    -0.323 N 
HETATM   10  C   UNL     1      23.711  44.125  47.318  1.00  0.00     0.159 C 
HETATM   11  C   UNL     1      22.069  44.207  49.238  1.00  0.00     0.155 A 
HETATM   12  N   UNL     1      22.058  43.792  50.489  1.00  0.00    -0.133 NA
HETATM   13  N   UNL     1      23.267  43.230  50.761  1.00  0.00    -0.134 NA
BRANCH  11  14
HETATM   14  C   UNL     1      20.927  44.902  48.575  1.00  0.00     0.315 C 
BRANCH  14  15
HETATM   15  N   UNL     1      20.836  46.353  49.020  1.00  0.00    -0.064 N 
HETATM   16  H   UNL     1      21.092  46.329  50.020  1.00  0.00     0.280 HD
HETATM   17  C   UNL     1      21.865  47.232  48.344  1.00  0.00     0.235 C 
HETATM   18  C   UNL     1      21.846  48.611  48.984  1.00  0.00     0.028 C 
HETATM   19  C   UNL     1      20.455  49.233  48.932  1.00  0.00     0.003 C 
HETATM   20  C   UNL     1      19.412  48.304  49.544  1.00  0.00     0.028 C 
HETATM   21  C   UNL     1      19.445  46.919  48.914  1.00  0.00     0.235 C 
ENDBRANCH  14  15
ENDBRANCH  11  14
ENDBRANCH   5   8
BRANCH   1  22
HETATM   22  C   UNL     1      27.144  44.789  53.032  1.00  0.00     0.273 C 
BRANCH  22  23
HETATM   23  C   UNL     1      28.348  44.469  53.877  1.00  0.00    -0.032 A 
HETATM   24  C   UNL     1      29.153  43.358  53.589  1.00  0.00     0.012 A 
HETATM   25  C   UNL     1      30.241  43.052  54.407  1.00  0.00     0.043 A 
HETATM   26  C   UNL     1      30.528  43.849  55.510  1.00  0.00     0.122 A 
HETATM   27  C   UNL     1      29.755  44.972  55.811  1.00  0.00    -0.023 A 
HETATM   28  F   UNL     1      31.564  43.522  56.292  1.00  0.00    -0.206 F 
HETATM   29  C   UNL     1      30.063  45.801  57.021  1.00  0.00     0.051 C 
HETATM   30  C   UNL     1      28.659  45.272  54.992  1.00  0.00     0.018 A 
ENDBRANCH  22  23
ENDBRANCH   1  22
TORSDOF 5
ENDMDL
MODEL 6
REMARK VINA RESULT:      -8.4      2.599      3.891
REMARK  5 active torsions:
REMARK  status: ('A' for Active; 'I' for Inactive)
REMARK    1  A    between atoms: C_7  and  C_8 
REMARK    2  A    between atoms: C_8  and  N_9 
REMARK    3  A    between atoms: C_13  and  C_14 
REMARK    4  A    between atoms: C_17  and  C_18 
REMARK    5  A    between atoms: C_18  and  N_19 
ROOT
HETATM    1  N   UNL     1      26.947  45.101  52.180  1.00  0.00    -0.067 N 
HETATM    2  H   UNL     1      27.758  45.708  52.352  1.00  0.00     0.280 HD
HETATM    3  C   UNL     1      27.072  44.565  50.772  1.00  0.00     0.236 C 
HETATM    4  C   UNL     1      26.930  45.689  49.750  1.00  0.00     0.040 C 
HETATM    5  C   UNL     1      25.641  46.498  49.915  1.00  0.00     0.060 C 
HETATM    6  C   UNL     1      25.535  47.002  51.360  1.00  0.00     0.040 C 
HETATM    7  C   UNL     1      25.689  45.905  52.407  1.00  0.00     0.236 C 
ENDROOT
BRANCH   5   8
HETATM    8  C   UNL     1      24.439  45.683  49.518  1.00  0.00     0.134 A 
HETATM    9  N   UNL     1      23.226  46.168  49.081  1.00  0.00    -0.323 N 
HETATM   10  C   UNL     1      22.859  47.554  48.912  1.00  0.00     0.159 C 
HETATM   11  C   UNL     1      22.448  45.061  48.834  1.00  0.00     0.155 A 
HETATM   12  N   UNL     1      23.160  43.979  49.076  1.00  0.00    -0.133 NA
HETATM   13  N   UNL     1      24.390  44.368  49.508  1.00  0.00    -0.134 NA
BRANCH  11  14
HETATM   14  C   UNL     1      21.031  45.045  48.365  1.00  0.00     0.315 C 
BRANCH  14  15
HETATM   15  N   UNL     1      20.949  44.728  46.880  1.00  0.00    -0.064 N 
HETATM   16  H   UNL     1      21.648  43.980  46.742  1.00  0.00     0.280 HD
HETATM   17  C   UNL     1      19.615  44.135  46.487  1.00  0.00     0.235 C 
HETATM   18  C   UNL     1      19.681  43.660  45.044  1.00  0.00     0.028 C 
HETATM   19  C   UNL     1      20.095  44.787  44.103  1.00  0.00     0.003 C 
HETATM   20  C   UNL     1      21.400  45.431  44.554  1.00  0.00     0.028 C 
HETATM   21  C   UNL     1      21.338  45.889  46.005  1.00  0.00     0.235 C 
ENDBRANCH  14  15
ENDBRANCH  11  14
ENDBRANCH   5   8
BRANCH   1  22
HETATM   22  C   UNL     1      27.030  43.992  53.225  1.00  0.00     0.273 C 
BRANCH  22  23
HETATM   23  C   UNL     1      28.301  43.999  54.030  1.00  0.00    -0.032 A 
HETATM   24  C   UNL     1      29.304  43.048  53.798  1.00  0.00     0.012 A 
HETATM   25  C   UNL     1      30.459  43.042  54.582  1.00  0.00     0.043 A 
HETATM   26  C   UNL     1      30.615  43.982  55.596  1.00  0.00     0.122 A 
HETATM   27  C   UNL     1      29.642  44.952  55.838  1.00  0.00    -0.023 A 
HETATM   28  F   UNL     1      31.721  43.942  56.348  1.00  0.00    -0.206 F 
HETATM   29  C   UNL     1      29.815  45.937  56.955  1.00  0.00     0.051 C 
HETATM   30  C   UNL     1      28.480  44.950  55.055  1.00  0.00     0.018 A 
ENDBRANCH  22  23
ENDBRANCH   1  22
TORSDOF 5
ENDMDL
MODEL 7
REMARK VINA RESULT:      -8.3      3.790      6.090
REMARK  5 active torsions:
REMARK  status: ('A' for Active; 'I' for Inactive)
REMARK    1  A    between atoms: C_7  and  C_8 
REMARK    2  A    between atoms: C_8  and  N_9 
REMARK    3  A    between atoms: C_13  and  C_14 
REMARK    4  A    between atoms: C_17  and  C_18 
REMARK    5  A    between atoms: C_18  and  N_19 
ROOT
HETATM    1  N   UNL     1      27.574  44.269  52.607  1.00  0.00    -0.067 N 
HETATM    2  H   UNL     1      27.529  45.177  53.085  1.00  0.00     0.280 HD
HETATM    3  C   UNL     1      27.678  44.541  51.124  1.00  0.00     0.236 C 
HETATM    4  C   UNL     1      26.397  45.184  50.601  1.00  0.00     0.040 C 
HETATM    5  C   UNL     1      25.138  44.374  50.921  1.00  0.00     0.060 C 
HETATM    6  C   UNL     1      25.081  44.095  52.428  1.00  0.00     0.040 C 
HETATM    7  C   UNL     1      26.353  43.467  52.986  1.00  0.00     0.236 C 
ENDROOT
BRANCH   5   8
HETATM    8  C   UNL     1      25.095  43.104  50.115  1.00  0.00     0.134 A 
HETATM    9  N   UNL     1      24.590  42.956  48.841  1.00  0.00    -0.323 N 
HETATM   10  C   UNL     1      24.003  43.986  48.019  1.00  0.00     0.159 C 
HETATM   11  C   UNL     1      24.771  41.631  48.519  1.00  0.00     0.155 A 
HETATM   12  N   UNL     1      25.376  41.028  49.523  1.00  0.00    -0.133 NA
HETATM   13  N   UNL     1      25.567  41.941  50.514  1.00  0.00    -0.134 NA
BRANCH  11  14
HETATM   14  C   UNL     1      24.369  40.950  47.254  1.00  0.00     0.315 C 
BRANCH  14  15
HETATM   15  N   UNL     1      25.337  41.272  46.127  1.00  0.00    -0.064 N 
HETATM   16  H   UNL     1      25.659  42.231  46.335  1.00  0.00     0.280 HD
HETATM   17  C   UNL     1      26.571  40.399  46.155  1.00  0.00     0.235 C 
HETATM   18  C   UNL     1      27.574  40.912  45.133  1.00  0.00     0.028 C 
HETATM   19  C   UNL     1      26.965  40.978  43.738  1.00  0.00     0.003 C 
HETATM   20  C   UNL     1      25.677  41.794  43.735  1.00  0.00     0.028 C 
HETATM   21  C   UNL     1      24.682  41.291  44.771  1.00  0.00     0.235 C 
ENDBRANCH  14  15
ENDBRANCH  11  14
ENDBRANCH   5   8
BRANCH   1  22
HETATM   22  C   UNL     1      28.820  43.575  53.151  1.00  0.00     0.273 C 
BRANCH  22  23
HETATM   23  C   UNL     1      29.333  44.155  54.441  1.00  0.00    -0.032 A 
HETATM   24  C   UNL     1      28.838  45.373  54.929  1.00  0.00     0.012 A 
HETATM   25  C   UNL     1      29.355  45.918  56.105  1.00  0.00     0.043 A 
HETATM   26  C   UNL     1      30.362  45.252  56.795  1.00  0.00     0.122 A 
HETATM   27  C   UNL     1      30.862  44.030  56.344  1.00  0.00    -0.023 A 
HETATM   28  F   UNL     1      30.857  45.806  57.909  1.00  0.00    -0.206 F 
HETATM   29  C   UNL     1      31.970  43.344  57.085  1.00  0.00     0.051 C 
HETATM   30  C   UNL     1      30.347  43.490  55.158  1.00  0.00     0.018 A 
ENDBRANCH  22  23
ENDBRANCH   1  22
TORSDOF 5
ENDMDL
MODEL 8
REMARK VINA RESULT:      -8.3      5.468      8.153
REMARK  5 active torsions:
REMARK  status: ('A' for Active; 'I' for Inactive)
REMARK    1  A    between atoms: C_7  and  C_8 
REMARK    2  A    between atoms: C_8  and  N_9 
REMARK    3  A    between atoms: C_13  and  C_14 
REMARK    4  A    between atoms: C_17  and  C_18 
REMARK    5  A    between atoms: C_18  and  N_19 
ROOT
HETATM    1  N   UNL     1      27.913  42.571  52.066  1.00  0.00    -0.067 N 
HETATM    2  H   UNL     1      27.335  42.758  52.895  1.00  0.00     0.280 HD
HETATM    3  C   UNL     1      27.443  43.498  50.968  1.00  0.00     0.236 C 
HETATM    4  C   UNL     1      26.024  43.145  50.531  1.00  0.00     0.040 C 
HETATM    5  C   UNL     1      25.866  41.680  50.115  1.00  0.00     0.060 C 
HETATM    6  C   UNL     1      26.377  40.771  51.241  1.00  0.00     0.040 C 
HETATM    7  C   UNL     1      27.787  41.109  51.712  1.00  0.00     0.236 C 
ENDROOT
BRANCH   5   8
HETATM    8  C   UNL     1      26.573  41.409  48.815  1.00  0.00     0.134 A 
HETATM    9  N   UNL     1      26.053  40.761  47.716  1.00  0.00    -0.323 N 
HETATM   10  C   UNL     1      24.725  40.211  47.586  1.00  0.00     0.159 C 
HETATM   11  C   UNL     1      27.056  40.756  46.775  1.00  0.00     0.155 A 
HETATM   12  N   UNL     1      28.102  41.391  47.265  1.00  0.00    -0.133 NA
HETATM   13  N   UNL     1      27.803  41.786  48.533  1.00  0.00    -0.134 NA
BRANCH  11  14
HETATM   14  C   UNL     1      27.007  40.149  45.412  1.00  0.00     0.315 C 
BRANCH  14  15
HETATM   15  N   UNL     1      28.063  39.066  45.257  1.00  0.00    -0.064 N 
HETATM   16  H   UNL     1      28.937  39.516  45.577  1.00  0.00     0.280 HD
HETATM   17  C   UNL     1      27.831  37.893  46.182  1.00  0.00     0.235 C 
HETATM   18  C   UNL     1      29.027  36.956  46.116  1.00  0.00     0.028 C 
HETATM   19  C   UNL     1      29.300  36.500  44.687  1.00  0.00     0.003 C 
HETATM   20  C   UNL     1      29.453  37.689  43.747  1.00  0.00     0.028 C 
HETATM   21  C   UNL     1      28.263  38.636  43.828  1.00  0.00     0.235 C 
ENDBRANCH  14  15
ENDBRANCH  11  14
ENDBRANCH   5   8
BRANCH   1  22
HETATM   22  C   UNL     1      29.350  42.865  52.487  1.00  0.00     0.273 C 
BRANCH  22  23
HETATM   23  C   UNL     1      29.470  43.593  53.799  1.00  0.00    -0.032 A 
HETATM   24  C   UNL     1      28.629  44.674  54.099  1.00  0.00     0.012 A 
HETATM   25  C   UNL     1      28.782  45.365  55.302  1.00  0.00     0.043 A 
HETATM   26  C   UNL     1      29.769  44.982  56.204  1.00  0.00     0.122 A 
HETATM   27  C   UNL     1      30.608  43.899  55.940  1.00  0.00    -0.023 A 
HETATM   28  F   UNL     1      29.910  45.675  57.341  1.00  0.00    -0.206 F 
HETATM   29  C   UNL     1      31.686  43.521  56.911  1.00  0.00     0.051 C 
HETATM   30  C   UNL     1      30.458  43.212  54.728  1.00  0.00     0.018 A 
ENDBRANCH  22  23
ENDBRANCH   1  22
TORSDOF 5
ENDMDL
MODEL 9
REMARK VINA RESULT:      -8.2      3.240      4.415
REMARK  5 active torsions:
REMARK  status: ('A' for Active; 'I' for Inactive)
REMARK    1  A    between atoms: C_7  and  C_8 
REMARK    2  A    between atoms: C_8  and  N_9 
REMARK    3  A    between atoms: C_13  and  C_14 
REMARK    4  A    between atoms: C_17  and  C_18 
REMARK    5  A    between atoms: C_18  and  N_19 
ROOT
HETATM    1  N   UNL     1      26.331  44.838  51.482  1.00  0.00    -0.067 N 
HETATM    2  H   UNL     1      27.298  44.879  51.829  1.00  0.00     0.280 HD
HETATM    3  C   UNL     1      26.384  44.973  49.977  1.00  0.00     0.236 C 
HETATM    4  C   UNL     1      26.874  46.361  49.575  1.00  0.00     0.040 C 
HETATM    5  C   UNL     1      26.056  47.495  50.198  1.00  0.00     0.060 C 
HETATM    6  C   UNL     1      26.004  47.311  51.720  1.00  0.00     0.040 C 
HETATM    7  C   UNL     1      25.533  45.927  52.155  1.00  0.00     0.236 C 
ENDROOT
BRANCH   5   8
HETATM    8  C   UNL     1      24.679  47.562  49.595  1.00  0.00     0.134 A 
HETATM    9  N   UNL     1      24.129  48.629  48.918  1.00  0.00    -0.323 N 
HETATM   10  C   UNL     1      24.760  49.898  48.647  1.00  0.00     0.159 C 
HETATM   11  C   UNL     1      22.866  48.228  48.551  1.00  0.00     0.155 A 
HETATM   12  N   UNL     1      22.680  46.987  48.953  1.00  0.00    -0.133 NA
HETATM   13  N   UNL     1      23.802  46.580  49.608  1.00  0.00    -0.134 NA
BRANCH  11  14
HETATM   14  C   UNL     1      21.846  49.032  47.816  1.00  0.00     0.315 C 
BRANCH  14  15
HETATM   15  N   UNL     1      20.935  49.776  48.780  1.00  0.00    -0.064 N 
HETATM   16  H   UNL     1      21.563  50.069  49.546  1.00  0.00     0.280 HD
HETATM   17  C   UNL     1      20.376  51.048  48.184  1.00  0.00     0.235 C 
HETATM   18  C   UNL     1      19.649  51.833  49.265  1.00  0.00     0.028 C 
HETATM   19  C   UNL     1      18.559  50.995  49.925  1.00  0.00     0.003 C 
HETATM   20  C   UNL     1      19.117  49.678  50.451  1.00  0.00     0.028 C 
HETATM   21  C   UNL     1      19.861  48.903  49.372  1.00  0.00     0.235 C 
ENDBRANCH  14  15
ENDBRANCH  11  14
ENDBRANCH   5   8
BRANCH   1  22
HETATM   22  C   UNL     1      25.793  43.478  51.916  1.00  0.00     0.273 C 
BRANCH  22  23
HETATM   23  C   UNL     1      26.808  42.368  51.862  1.00  0.00    -0.032 A 
HETATM   24  C   UNL     1      27.705  42.163  52.921  1.00  0.00     0.012 A 
HETATM   25  C   UNL     1      28.667  41.156  52.837  1.00  0.00     0.043 A 
HETATM   26  C   UNL     1      28.738  40.354  51.703  1.00  0.00     0.122 A 
HETATM   27  C   UNL     1      27.847  40.523  50.642  1.00  0.00    -0.023 A 
HETATM   28  F   UNL     1      29.684  39.409  51.636  1.00  0.00    -0.206 F 
HETATM   29  C   UNL     1      27.959  39.668  49.415  1.00  0.00     0.051 C 
HETATM   30  C   UNL     1      26.887  41.540  50.725  1.00  0.00     0.018 A 
ENDBRANCH  22  23
ENDBRANCH   1  22
TORSDOF 5
ENDMDL
MODEL 10
REMARK VINA RESULT:      -8.2     14.219     14.999
REMARK  5 active torsions:
REMARK  status: ('A' for Active; 'I' for Inactive)
REMARK    1  A    between atoms: C_7  and  C_8 
REMARK    2  A    between atoms: C_8  and  N_9 
REMARK    3  A    between atoms: C_13  and  C_14 
REMARK    4  A    between atoms: C_17  and  C_18 
REMARK    5  A    between atoms: C_18  and  N_19 
ROOT
HETATM    1  N   UNL     1      38.258  53.703  44.066  1.00  0.00    -0.067 N 
HETATM    2  H   UNL     1      39.232  53.609  43.751  1.00  0.00     0.280 HD
HETATM    3  C   UNL     1      37.857  52.390  44.698  1.00  0.00     0.236 C 
HETATM    4  C   UNL     1      37.813  51.278  43.654  1.00  0.00     0.040 C 
HETATM    5  C   UNL     1      36.916  51.606  42.457  1.00  0.00     0.060 C 
HETATM    6  C   UNL     1      37.336  52.955  41.859  1.00  0.00     0.040 C 
HETATM    7  C   UNL     1      37.405  54.085  42.881  1.00  0.00     0.236 C 
ENDROOT
BRANCH   5   8
HETATM    8  C   UNL     1      35.464  51.597  42.853  1.00  0.00     0.134 A 
HETATM    9  N   UNL     1      34.459  50.857  42.270  1.00  0.00    -0.323 N 
HETATM   10  C   UNL     1      34.591  49.939  41.165  1.00  0.00     0.159 C 
HETATM   11  C   UNL     1      33.314  51.170  42.965  1.00  0.00     0.155 A 
HETATM   12  N   UNL     1      33.618  52.020  43.926  1.00  0.00    -0.133 NA
HETATM   13  N   UNL     1      34.950  52.289  43.848  1.00  0.00    -0.134 NA
BRANCH  11  14
HETATM   14  C   UNL     1      31.937  50.653  42.709  1.00  0.00     0.315 C 
BRANCH  14  15
HETATM   15  N   UNL     1      31.031  51.749  42.174  1.00  0.00    -0.064 N 
HETATM   16  H   UNL     1      30.933  52.407  42.965  1.00  0.00     0.280 HD
HETATM   17  C   UNL     1      31.671  52.535  41.052  1.00  0.00     0.235 C 
HETATM   18  C   UNL     1      30.795  53.731  40.711  1.00  0.00     0.028 C 
HETATM   19  C   UNL     1      29.376  53.301  40.358  1.00  0.00     0.003 C 
HETATM   20  C   UNL     1      28.768  52.443  41.461  1.00  0.00     0.028 C 
HETATM   21  C   UNL     1      29.655  51.257  41.813  1.00  0.00     0.235 C 
ENDBRANCH  14  15
ENDBRANCH  11  14
ENDBRANCH   5   8
BRANCH   1  22
HETATM   22  C   UNL     1      38.259  54.848  45.075  1.00  0.00     0.273 C 
BRANCH  22  23
HETATM   23  C   UNL     1      38.866  54.495  46.406  1.00  0.00    -0.032 A 
HETATM   24  C   UNL     1      38.054  54.188  47.507  1.00  0.00     0.012 A 
HETATM   25  C   UNL     1      38.633  53.904  48.745  1.00  0.00     0.043 A 
HETATM   26  C   UNL     1      40.016  53.925  48.888  1.00  0.00     0.122 A 
HETATM   27  C   UNL     1      40.850  54.210  47.805  1.00  0.00    -0.023 A 
HETATM   28  F   UNL     1      40.546  53.671  50.090  1.00  0.00    -0.206 F 
HETATM   29  C   UNL     1      42.337  54.258  47.987  1.00  0.00     0.051 C 
HETATM   30  C   UNL     1      40.266  54.502  46.566  1.00  0.00     0.018 A 
ENDBRANCH  22  23
ENDBRANCH   1  22
TORSDOF 5
ENDMDL
