MODEL 1
REMARK VINA RESULT:     -10.5      0.000      0.000
REMARK  6 active torsions:
REMARK  status: ('A' for Active; 'I' for Inactive)
REMARK    1  A    between atoms: C_7  and  C_8 
REMARK    2  A    between atoms: C_8  and  O_9 
REMARK    3  A    between atoms: O_9  and  C_10 
REMARK    4  A    between atoms: C_10  and  C_11 
REMARK       I    between atoms: C_11  and  N_12 
REMARK    5  A    between atoms: N_12  and  N_13 
REMARK    6  A    between atoms: C_17  and  C_18 
ROOT
HETATM    1  C   UNL     1      25.896  47.299  49.817  1.00  0.00     0.261 C 
HETATM    2  N   UNL     1      24.943  46.930  50.745  1.00  0.00    -0.255 N 
HETATM    3  O   UNL     1      26.857  46.596  49.505  1.00  0.00    -0.269 OA
HETATM    4  H   UNL     1      24.346  47.650  51.158  1.00  0.00     0.191 HD
ENDROOT
BRANCH   1   5
HETATM    5  C   UNL     1      25.626  48.657  49.164  1.00  0.00     0.283 C 
BRANCH   5   6
HETATM    6  O   UNL     1      24.311  49.177  49.370  1.00  0.00    -0.308 OA
BRANCH   6   7
HETATM    7  C   UNL     1      23.802  49.901  48.344  1.00  0.00     0.293 C 
HETATM    8  O   UNL     1      24.405  50.168  47.313  1.00  0.00    -0.259 OA
BRANCH   7   9
HETATM    9  C   UNL     1      22.404  50.326  48.616  1.00  0.00     0.040 A 
HETATM   10  C   UNL     1      22.077  50.702  49.924  1.00  0.00     0.020 A 
HETATM   11  C   UNL     1      20.783  51.114  50.259  1.00  0.00     0.031 A 
HETATM   12  C   UNL     1      19.828  51.135  49.237  1.00  0.00     0.043 A 
HETATM   13  C   UNL     1      20.111  50.761  47.924  1.00  0.00    -0.001 A 
HETATM   14  N   UNL     1      18.503  51.498  49.277  1.00  0.00    -0.359 N 
HETATM   15  C   UNL     1      18.903  50.903  47.168  1.00  0.00    -0.027 A 
HETATM   16  C   UNL     1      21.424  50.351  47.608  1.00  0.00     0.032 A 
HETATM   17  C   UNL     1      18.722  50.619  45.718  1.00  0.00     0.051 C 
HETATM   18  C   UNL     1      17.930  51.374  48.037  1.00  0.00     0.012 A 
HETATM   19  C   UNL     1      16.505  51.719  47.800  1.00  0.00     0.068 C 
HETATM   20  H   UNL     1      18.027  51.821  50.108  1.00  0.00     0.166 HD
ENDBRANCH   7   9
ENDBRANCH   6   7
ENDBRANCH   5   6
ENDBRANCH   1   5
BRANCH   2  21
HETATM   21  N   UNL     1      25.205  45.826  51.532  1.00  0.00    -0.167 N 
HETATM   22  C   UNL     1      24.940  44.538  51.154  1.00  0.00     0.345 A 
HETATM   23  O   UNL     1      24.501  44.140  50.087  1.00  0.00    -0.245 OA
HETATM   24  N   UNL     1      25.310  43.712  52.196  1.00  0.00    -0.319 N 
HETATM   25  C   UNL     1      25.987  44.435  53.263  1.00  0.00     0.141 A 
HETATM   26  H   UNL     1      25.319  42.709  52.071  1.00  0.00     0.166 HD
HETATM   27  C   UNL     1      25.217  44.314  54.581  1.00  0.00     0.055 C 
HETATM   28  C   UNL     1      25.830  45.891  52.751  1.00  0.00     0.279 A 
HETATM   29  O   UNL     1      26.224  46.902  53.322  1.00  0.00    -0.268 OA
BRANCH  25  30
HETATM   30  C   UNL     1      27.428  43.938  53.369  1.00  0.00    -0.021 A 
HETATM   31  C   UNL     1      28.056  43.202  52.349  1.00  0.00     0.010 A 
HETATM   32  C   UNL     1      29.367  42.738  52.496  1.00  0.00     0.001 A 
HETATM   33  C   UNL     1      30.077  42.997  53.665  1.00  0.00     0.000 A 
HETATM   34  C   UNL     1      29.477  43.721  54.689  1.00  0.00     0.001 A 
HETATM   35  C   UNL     1      28.168  44.185  54.545  1.00  0.00     0.010 A 
ENDBRANCH  25  30
ENDBRANCH   2  21
TORSDOF 6
ENDMDL
MODEL 2
REMARK VINA RESULT:     -10.4      1.088      1.544
REMARK  6 active torsions:
REMARK  status: ('A' for Active; 'I' for Inactive)
REMARK    1  A    between atoms: C_7  and  C_8 
REMARK    2  A    between atoms: C_8  and  O_9 
REMARK    3  A    between atoms: O_9  and  C_10 
REMARK    4  A    between atoms: C_10  and  C_11 
REMARK       I    between atoms: C_11  and  N_12 
REMARK    5  A    between atoms: N_12  and  N_13 
REMARK    6  A    between atoms: C_17  and  C_18 
ROOT
HETATM    1  C   UNL     1      25.166  47.231  50.237  1.00  0.00     0.261 C 
HETATM    2  N   UNL     1      26.354  47.163  50.937  1.00  0.00    -0.255 N 
HETATM    3  O   UNL     1      24.206  46.488  50.442  1.00  0.00    -0.269 OA
HETATM    4  H   UNL     1      27.189  47.602  50.544  1.00  0.00     0.191 HD
ENDROOT
BRANCH   1   5
HETATM    5  C   UNL     1      25.126  48.356  49.200  1.00  0.00     0.283 C 
BRANCH   5   6
HETATM    6  O   UNL     1      24.208  49.413  49.488  1.00  0.00    -0.308 OA
BRANCH   6   7
HETATM    7  C   UNL     1      23.641  50.004  48.408  1.00  0.00     0.293 C 
HETATM    8  O   UNL     1      24.189  50.145  47.323  1.00  0.00    -0.259 OA
BRANCH   7   9
HETATM    9  C   UNL     1      22.254  50.454  48.698  1.00  0.00     0.040 A 
HETATM   10  C   UNL     1      21.947  50.825  50.012  1.00  0.00     0.020 A 
HETATM   11  C   UNL     1      20.665  51.259  50.363  1.00  0.00     0.031 A 
HETATM   12  C   UNL     1      19.701  51.309  49.351  1.00  0.00     0.043 A 
HETATM   13  C   UNL     1      19.965  50.942  48.032  1.00  0.00    -0.001 A 
HETATM   14  N   UNL     1      18.384  51.699  49.407  1.00  0.00    -0.359 N 
HETATM   15  C   UNL     1      18.752  51.115  47.288  1.00  0.00    -0.027 A 
HETATM   16  C   UNL     1      21.266  50.509  47.700  1.00  0.00     0.032 A 
HETATM   17  C   UNL     1      18.552  50.848  45.838  1.00  0.00     0.051 C 
HETATM   18  C   UNL     1      17.798  51.597  48.171  1.00  0.00     0.012 A 
HETATM   19  C   UNL     1      16.377  51.973  47.951  1.00  0.00     0.068 C 
HETATM   20  H   UNL     1      17.923  52.023  50.245  1.00  0.00     0.166 HD
ENDBRANCH   7   9
ENDBRANCH   6   7
ENDBRANCH   5   6
ENDBRANCH   1   5
BRANCH   2  21
HETATM   21  N   UNL     1      26.563  46.062  51.744  1.00  0.00    -0.167 N 
HETATM   22  C   UNL     1      26.934  44.832  51.275  1.00  0.00     0.345 A 
HETATM   23  O   UNL     1      27.194  44.508  50.127  1.00  0.00    -0.245 OA
HETATM   24  N   UNL     1      27.025  43.981  52.358  1.00  0.00    -0.319 N 
HETATM   25  C   UNL     1      26.859  44.679  53.626  1.00  0.00     0.141 A 
HETATM   26  H   UNL     1      27.414  43.055  52.247  1.00  0.00     0.166 HD
HETATM   27  C   UNL     1      25.653  44.134  54.396  1.00  0.00     0.055 C 
HETATM   28  C   UNL     1      26.495  46.097  53.113  1.00  0.00     0.279 A 
HETATM   29  O   UNL     1      26.230  47.070  53.811  1.00  0.00    -0.268 OA
BRANCH  25  30
HETATM   30  C   UNL     1      28.160  44.592  54.421  1.00  0.00    -0.021 A 
HETATM   31  C   UNL     1      28.574  45.596  55.313  1.00  0.00     0.010 A 
HETATM   32  C   UNL     1      29.788  45.495  56.001  1.00  0.00     0.001 A 
HETATM   33  C   UNL     1      30.613  44.390  55.810  1.00  0.00     0.000 A 
HETATM   34  C   UNL     1      30.226  43.384  54.932  1.00  0.00     0.001 A 
HETATM   35  C   UNL     1      29.015  43.484  54.243  1.00  0.00     0.010 A 
ENDBRANCH  25  30
ENDBRANCH   2  21
TORSDOF 6
ENDMDL
MODEL 3
REMARK VINA RESULT:     -10.3      1.976     10.632
REMARK  6 active torsions:
REMARK  status: ('A' for Active; 'I' for Inactive)
REMARK    1  A    between atoms: C_7  and  C_8 
REMARK    2  A    between atoms: C_8  and  O_9 
REMARK    3  A    between atoms: O_9  and  C_10 
REMARK    4  A    between atoms: C_10  and  C_11 
REMARK       I    between atoms: C_11  and  N_12 
REMARK    5  A    between atoms: N_12  and  N_13 
REMARK    6  A    between atoms: C_17  and  C_18 
ROOT
HETATM    1  C   UNL     1      23.886  47.185  49.520  1.00  0.00     0.261 C 
HETATM    2  N   UNL     1      22.867  47.437  48.624  1.00  0.00    -0.255 N 
HETATM    3  O   UNL     1      24.202  47.949  50.431  1.00  0.00    -0.269 OA
HETATM    4  H   UNL     1      22.838  46.918  47.744  1.00  0.00     0.191 HD
ENDROOT
BRANCH   1   5
HETATM    5  C   UNL     1      24.570  45.832  49.309  1.00  0.00     0.283 C 
BRANCH   5   6
HETATM    6  O   UNL     1      25.565  45.499  50.280  1.00  0.00    -0.308 OA
BRANCH   6   7
HETATM    7  C   UNL     1      25.104  44.916  51.413  1.00  0.00     0.293 C 
HETATM    8  O   UNL     1      24.012  44.375  51.523  1.00  0.00    -0.259 OA
BRANCH   7   9
HETATM    9  C   UNL     1      26.099  45.001  52.514  1.00  0.00     0.040 A 
HETATM   10  C   UNL     1      25.872  45.936  53.530  1.00  0.00     0.020 A 
HETATM   11  C   UNL     1      26.760  46.076  54.601  1.00  0.00     0.031 A 
HETATM   12  C   UNL     1      27.885  45.245  54.617  1.00  0.00     0.043 A 
HETATM   13  C   UNL     1      28.151  44.305  53.622  1.00  0.00    -0.001 A 
HETATM   14  N   UNL     1      28.905  45.159  55.536  1.00  0.00    -0.359 N 
HETATM   15  C   UNL     1      29.378  43.650  53.966  1.00  0.00    -0.027 A 
HETATM   16  C   UNL     1      27.239  44.180  52.552  1.00  0.00     0.032 A 
HETATM   17  C   UNL     1      30.058  42.573  53.197  1.00  0.00     0.051 C 
HETATM   18  C   UNL     1      29.809  44.197  55.165  1.00  0.00     0.012 A 
HETATM   19  C   UNL     1      31.003  43.891  55.996  1.00  0.00     0.068 C 
HETATM   20  H   UNL     1      28.965  45.724  56.371  1.00  0.00     0.166 HD
ENDBRANCH   7   9
ENDBRANCH   6   7
ENDBRANCH   5   6
ENDBRANCH   1   5
BRANCH   2  21
HETATM   21  N   UNL     1      22.330  48.709  48.602  1.00  0.00    -0.167 N 
HETATM   22  C   UNL     1      22.951  49.791  48.039  1.00  0.00     0.345 A 
HETATM   23  O   UNL     1      24.010  49.822  47.433  1.00  0.00    -0.245 OA
HETATM   24  N   UNL     1      22.133  50.887  48.226  1.00  0.00    -0.319 N 
HETATM   25  C   UNL     1      20.845  50.525  48.801  1.00  0.00     0.141 A 
HETATM   26  H   UNL     1      22.346  51.764  47.770  1.00  0.00     0.166 HD
HETATM   27  C   UNL     1      20.632  51.221  50.148  1.00  0.00     0.055 C 
HETATM   28  C   UNL     1      21.080  49.017  49.075  1.00  0.00     0.279 A 
HETATM   29  O   UNL     1      20.279  48.244  49.590  1.00  0.00    -0.268 OA
BRANCH  25  30
HETATM   30  C   UNL     1      19.741  50.836  47.792  1.00  0.00    -0.021 A 
HETATM   31  C   UNL     1      19.555  50.090  46.615  1.00  0.00     0.010 A 
HETATM   32  C   UNL     1      18.551  50.423  45.700  1.00  0.00     0.001 A 
HETATM   33  C   UNL     1      17.715  51.510  45.940  1.00  0.00     0.000 A 
HETATM   34  C   UNL     1      17.880  52.264  47.096  1.00  0.00     0.001 A 
HETATM   35  C   UNL     1      18.882  51.934  48.011  1.00  0.00     0.010 A 
ENDBRANCH  25  30
ENDBRANCH   2  21
TORSDOF 6
ENDMDL
MODEL 4
REMARK VINA RESULT:     -10.3      1.562      2.259
REMARK  6 active torsions:
REMARK  status: ('A' for Active; 'I' for Inactive)
REMARK    1  A    between atoms: C_7  and  C_8 
REMARK    2  A    between atoms: C_8  and  O_9 
REMARK    3  A    between atoms: O_9  and  C_10 
REMARK    4  A    between atoms: C_10  and  C_11 
REMARK       I    between atoms: C_11  and  N_12 
REMARK    5  A    between atoms: N_12  and  N_13 
REMARK    6  A    between atoms: C_17  and  C_18 
ROOT
HETATM    1  C   UNL     1      24.120  47.275  49.726  1.00  0.00     0.261 C 
HETATM    2  N   UNL     1      24.470  45.955  49.529  1.00  0.00    -0.255 N 
HETATM    3  O   UNL     1      24.781  48.067  50.397  1.00  0.00    -0.269 OA
HETATM    4  H   UNL     1      23.759  45.294  49.209  1.00  0.00     0.191 HD
ENDROOT
BRANCH   1   5
HETATM    5  C   UNL     1      22.844  47.691  48.989  1.00  0.00     0.283 C 
BRANCH   5   6
HETATM    6  O   UNL     1      23.054  48.341  47.734  1.00  0.00    -0.308 OA
BRANCH   6   7
HETATM    7  C   UNL     1      23.162  49.690  47.786  1.00  0.00     0.293 C 
HETATM    8  O   UNL     1      24.119  50.329  47.368  1.00  0.00    -0.259 OA
BRANCH   7   9
HETATM    9  C   UNL     1      21.961  50.311  48.404  1.00  0.00     0.040 A 
HETATM   10  C   UNL     1      21.997  50.579  49.777  1.00  0.00     0.020 A 
HETATM   11  C   UNL     1      20.908  51.162  50.432  1.00  0.00     0.031 A 
HETATM   12  C   UNL     1      19.780  51.467  49.662  1.00  0.00     0.043 A 
HETATM   13  C   UNL     1      19.702  51.210  48.294  1.00  0.00    -0.001 A 
HETATM   14  N   UNL     1      18.589  52.043  50.034  1.00  0.00    -0.359 N 
HETATM   15  C   UNL     1      18.411  51.644  47.849  1.00  0.00    -0.027 A 
HETATM   16  C   UNL     1      20.814  50.623  47.654  1.00  0.00     0.032 A 
HETATM   17  C   UNL     1      17.877  51.570  46.462  1.00  0.00     0.051 C 
HETATM   18  C   UNL     1      17.754  52.167  48.952  1.00  0.00     0.012 A 
HETATM   19  C   UNL     1      16.405  52.775  49.077  1.00  0.00     0.068 C 
HETATM   20  H   UNL     1      18.371  52.341  50.974  1.00  0.00     0.166 HD
ENDBRANCH   7   9
ENDBRANCH   6   7
ENDBRANCH   5   6
ENDBRANCH   1   5
BRANCH   2  21
HETATM   21  N   UNL     1      25.482  45.434  50.311  1.00  0.00    -0.167 N 
HETATM   22  C   UNL     1      26.810  45.504  49.988  1.00  0.00     0.345 A 
HETATM   23  O   UNL     1      27.325  46.061  49.032  1.00  0.00    -0.245 OA
HETATM   24  N   UNL     1      27.517  44.862  50.985  1.00  0.00    -0.319 N 
HETATM   25  C   UNL     1      26.668  44.469  52.101  1.00  0.00     0.141 A 
HETATM   26  H   UNL     1      28.526  44.914  51.006  1.00  0.00     0.166 HD
HETATM   27  C   UNL     1      26.692  42.951  52.298  1.00  0.00     0.055 C 
HETATM   28  C   UNL     1      25.276  44.854  51.536  1.00  0.00     0.279 A 
HETATM   29  O   UNL     1      24.199  44.695  52.102  1.00  0.00    -0.268 OA
BRANCH  25  30
HETATM   30  C   UNL     1      27.095  45.237  53.351  1.00  0.00    -0.021 A 
HETATM   31  C   UNL     1      26.600  46.514  53.664  1.00  0.00     0.010 A 
HETATM   32  C   UNL     1      27.038  47.199  54.802  1.00  0.00     0.001 A 
HETATM   33  C   UNL     1      27.981  46.623  55.649  1.00  0.00     0.000 A 
HETATM   34  C   UNL     1      28.488  45.361  55.359  1.00  0.00     0.001 A 
HETATM   35  C   UNL     1      28.052  44.676  54.222  1.00  0.00     0.010 A 
ENDBRANCH  25  30
ENDBRANCH   2  21
TORSDOF 6
ENDMDL
MODEL 5
REMARK VINA RESULT:     -10.0      1.616      2.418
REMARK  6 active torsions:
REMARK  status: ('A' for Active; 'I' for Inactive)
REMARK    1  A    between atoms: C_7  and  C_8 
REMARK    2  A    between atoms: C_8  and  O_9 
REMARK    3  A    between atoms: O_9  and  C_10 
REMARK    4  A    between atoms: C_10  and  C_11 
REMARK       I    between atoms: C_11  and  N_12 
REMARK    5  A    between atoms: N_12  and  N_13 
REMARK    6  A    between atoms: C_17  and  C_18 
ROOT
HETATM    1  C   UNL     1      24.472  44.789  50.446  1.00  0.00     0.261 C 
HETATM    2  N   UNL     1      25.791  44.935  50.828  1.00  0.00    -0.255 N 
HETATM    3  O   UNL     1      23.614  44.246  51.140  1.00  0.00    -0.269 OA
HETATM    4  H   UNL     1      26.496  45.132  50.115  1.00  0.00     0.191 HD
ENDROOT
BRANCH   1   5
HETATM    5  C   UNL     1      24.153  45.412  49.084  1.00  0.00     0.283 C 
BRANCH   5   6
HETATM    6  O   UNL     1      23.294  46.553  49.126  1.00  0.00    -0.308 OA
BRANCH   6   7
HETATM    7  C   UNL     1      23.915  47.747  49.283  1.00  0.00     0.293 C 
HETATM    8  O   UNL     1      25.102  47.885  49.546  1.00  0.00    -0.259 OA
BRANCH   7   9
HETATM    9  C   UNL     1      22.976  48.882  49.083  1.00  0.00     0.040 A 
HETATM   10  C   UNL     1      23.513  50.113  48.689  1.00  0.00     0.020 A 
HETATM   11  C   UNL     1      22.695  51.228  48.480  1.00  0.00     0.031 A 
HETATM   12  C   UNL     1      21.320  51.065  48.679  1.00  0.00     0.043 A 
HETATM   13  C   UNL     1      20.747  49.859  49.076  1.00  0.00    -0.001 A 
HETATM   14  N   UNL     1      20.297  51.973  48.539  1.00  0.00    -0.359 N 
HETATM   15  C   UNL     1      19.334  50.069  49.183  1.00  0.00    -0.027 A 
HETATM   16  C   UNL     1      21.591  48.746  49.280  1.00  0.00     0.032 A 
HETATM   17  C   UNL     1      18.312  49.062  49.579  1.00  0.00     0.051 C 
HETATM   18  C   UNL     1      19.091  51.388  48.830  1.00  0.00     0.012 A 
HETATM   19  C   UNL     1      17.817  52.147  48.742  1.00  0.00     0.068 C 
HETATM   20  H   UNL     1      20.424  52.933  48.251  1.00  0.00     0.166 HD
ENDBRANCH   7   9
ENDBRANCH   6   7
ENDBRANCH   5   6
ENDBRANCH   1   5
BRANCH   2  21
HETATM   21  N   UNL     1      26.220  44.232  51.936  1.00  0.00    -0.167 N 
HETATM   22  C   UNL     1      26.666  42.940  51.896  1.00  0.00     0.345 A 
HETATM   23  O   UNL     1      26.815  42.223  50.920  1.00  0.00    -0.245 OA
HETATM   24  N   UNL     1      26.985  42.567  53.186  1.00  0.00    -0.319 N 
HETATM   25  C   UNL     1      26.901  43.681  54.121  1.00  0.00     0.141 A 
HETATM   26  H   UNL     1      27.458  41.691  53.360  1.00  0.00     0.166 HD
HETATM   27  C   UNL     1      25.869  43.398  55.217  1.00  0.00     0.055 C 
HETATM   28  C   UNL     1      26.320  44.777  53.191  1.00  0.00     0.279 A 
HETATM   29  O   UNL     1      26.037  45.925  53.519  1.00  0.00    -0.268 OA
BRANCH  25  30
HETATM   30  C   UNL     1      28.293  43.974  54.679  1.00  0.00    -0.021 A 
HETATM   31  C   UNL     1      29.366  43.075  54.555  1.00  0.00     0.010 A 
HETATM   32  C   UNL     1      30.619  43.367  55.105  1.00  0.00     0.001 A 
HETATM   33  C   UNL     1      30.823  44.560  55.792  1.00  0.00     0.000 A 
HETATM   34  C   UNL     1      29.776  45.464  55.930  1.00  0.00     0.001 A 
HETATM   35  C   UNL     1      28.524  45.175  55.382  1.00  0.00     0.010 A 
ENDBRANCH  25  30
ENDBRANCH   2  21
TORSDOF 6
ENDMDL
MODEL 6
REMARK VINA RESULT:      -9.5      2.190      3.266
REMARK  6 active torsions:
REMARK  status: ('A' for Active; 'I' for Inactive)
REMARK    1  A    between atoms: C_7  and  C_8 
REMARK    2  A    between atoms: C_8  and  O_9 
REMARK    3  A    between atoms: O_9  and  C_10 
REMARK    4  A    between atoms: C_10  and  C_11 
REMARK       I    between atoms: C_11  and  N_12 
REMARK    5  A    between atoms: N_12  and  N_13 
REMARK    6  A    between atoms: C_17  and  C_18 
ROOT
HETATM    1  C   UNL     1      24.598  44.197  50.301  1.00  0.00     0.261 C 
HETATM    2  N   UNL     1      25.928  44.323  50.647  1.00  0.00    -0.255 N 
HETATM    3  O   UNL     1      23.717  43.839  51.082  1.00  0.00    -0.269 OA
HETATM    4  H   UNL     1      26.635  44.348  49.909  1.00  0.00     0.191 HD
ENDROOT
BRANCH   1   5
HETATM    5  C   UNL     1      24.299  44.591  48.852  1.00  0.00     0.283 C 
BRANCH   5   6
HETATM    6  O   UNL     1      23.396  45.687  48.697  1.00  0.00    -0.308 OA
BRANCH   6   7
HETATM    7  C   UNL     1      22.096  45.351  48.513  1.00  0.00     0.293 C 
HETATM    8  O   UNL     1      21.681  44.205  48.410  1.00  0.00    -0.259 OA
BRANCH   7   9
HETATM    9  C   UNL     1      21.222  46.553  48.465  1.00  0.00     0.040 A 
HETATM   10  C   UNL     1      19.841  46.354  48.361  1.00  0.00     0.020 A 
HETATM   11  C   UNL     1      18.954  47.434  48.311  1.00  0.00     0.031 A 
HETATM   12  C   UNL     1      19.499  48.720  48.369  1.00  0.00     0.043 A 
HETATM   13  C   UNL     1      20.869  48.961  48.467  1.00  0.00    -0.001 A 
HETATM   14  N   UNL     1      18.874  49.945  48.349  1.00  0.00    -0.359 N 
HETATM   15  C   UNL     1      21.054  50.382  48.496  1.00  0.00    -0.027 A 
HETATM   16  C   UNL     1      21.746  47.857  48.518  1.00  0.00     0.032 A 
HETATM   17  C   UNL     1      22.349  51.108  48.594  1.00  0.00     0.051 C 
HETATM   18  C   UNL     1      19.794  50.958  48.434  1.00  0.00     0.012 A 
HETATM   19  C   UNL     1      19.380  52.385  48.450  1.00  0.00     0.068 C 
HETATM   20  H   UNL     1      17.873  50.071  48.291  1.00  0.00     0.166 HD
ENDBRANCH   7   9
ENDBRANCH   6   7
ENDBRANCH   5   6
ENDBRANCH   1   5
BRANCH   2  21
HETATM   21  N   UNL     1      26.329  43.800  51.861  1.00  0.00    -0.167 N 
HETATM   22  C   UNL     1      26.841  42.541  52.018  1.00  0.00     0.345 A 
HETATM   23  O   UNL     1      27.082  41.711  51.156  1.00  0.00    -0.245 OA
HETATM   24  N   UNL     1      27.106  42.361  53.360  1.00  0.00    -0.319 N 
HETATM   25  C   UNL     1      26.911  43.581  54.131  1.00  0.00     0.141 A 
HETATM   26  H   UNL     1      27.612  41.544  53.674  1.00  0.00     0.166 HD
HETATM   27  C   UNL     1      25.834  43.386  55.202  1.00  0.00     0.055 C 
HETATM   28  C   UNL     1      26.329  44.510  53.034  1.00  0.00     0.279 A 
HETATM   29  O   UNL     1      25.970  45.673  53.189  1.00  0.00    -0.268 OA
BRANCH  25  30
HETATM   30  C   UNL     1      28.252  44.026  54.713  1.00  0.00    -0.021 A 
HETATM   31  C   UNL     1      29.417  43.244  54.623  1.00  0.00     0.010 A 
HETATM   32  C   UNL     1      30.619  43.671  55.195  1.00  0.00     0.001 A 
HETATM   33  C   UNL     1      30.683  44.888  55.869  1.00  0.00     0.000 A 
HETATM   34  C   UNL     1      29.544  45.679  55.972  1.00  0.00     0.001 A 
HETATM   35  C   UNL     1      28.342  45.253  55.403  1.00  0.00     0.010 A 
ENDBRANCH  25  30
ENDBRANCH   2  21
TORSDOF 6
ENDMDL
MODEL 7
REMARK VINA RESULT:      -9.5      1.883      2.243
REMARK  6 active torsions:
REMARK  status: ('A' for Active; 'I' for Inactive)
REMARK    1  A    between atoms: C_7  and  C_8 
REMARK    2  A    between atoms: C_8  and  O_9 
REMARK    3  A    between atoms: O_9  and  C_10 
REMARK    4  A    between atoms: C_10  and  C_11 
REMARK       I    between atoms: C_11  and  N_12 
REMARK    5  A    between atoms: N_12  and  N_13 
REMARK    6  A    between atoms: C_17  and  C_18 
ROOT
HETATM    1  C   UNL     1      25.274  47.425  50.099  1.00  0.00     0.261 C 
HETATM    2  N   UNL     1      26.478  47.247  50.750  1.00  0.00    -0.255 N 
HETATM    3  O   UNL     1      24.284  46.718  50.283  1.00  0.00    -0.269 OA
HETATM    4  H   UNL     1      27.322  47.672  50.360  1.00  0.00     0.191 HD
ENDROOT
BRANCH   1   5
HETATM    5  C   UNL     1      25.260  48.624  49.147  1.00  0.00     0.283 C 
BRANCH   5   6
HETATM    6  O   UNL     1      24.120  49.477  49.264  1.00  0.00    -0.308 OA
BRANCH   6   7
HETATM    7  C   UNL     1      23.476  49.753  48.104  1.00  0.00     0.293 C 
HETATM    8  O   UNL     1      23.933  50.440  47.200  1.00  0.00    -0.259 OA
BRANCH   7   9
HETATM    9  C   UNL     1      22.140  49.104  48.053  1.00  0.00     0.040 A 
HETATM   10  C   UNL     1      22.083  47.750  47.702  1.00  0.00     0.020 A 
HETATM   11  C   UNL     1      20.864  47.068  47.633  1.00  0.00     0.031 A 
HETATM   12  C   UNL     1      19.704  47.791  47.927  1.00  0.00     0.043 A 
HETATM   13  C   UNL     1      19.716  49.141  48.274  1.00  0.00    -0.001 A 
HETATM   14  N   UNL     1      18.391  47.381  47.946  1.00  0.00    -0.359 N 
HETATM   15  C   UNL     1      18.358  49.540  48.496  1.00  0.00    -0.027 A 
HETATM   16  C   UNL     1      20.958  49.809  48.339  1.00  0.00     0.032 A 
HETATM   17  C   UNL     1      17.881  50.895  48.887  1.00  0.00     0.051 C 
HETATM   18  C   UNL     1      17.566  48.419  48.296  1.00  0.00     0.012 A 
HETATM   19  C   UNL     1      16.096  48.240  48.408  1.00  0.00     0.068 C 
HETATM   20  H   UNL     1      18.087  46.440  47.740  1.00  0.00     0.166 HD
ENDBRANCH   7   9
ENDBRANCH   6   7
ENDBRANCH   5   6
ENDBRANCH   1   5
BRANCH   2  21
HETATM   21  N   UNL     1      26.654  46.080  51.467  1.00  0.00    -0.167 N 
HETATM   22  C   UNL     1      26.998  44.882  50.905  1.00  0.00     0.345 A 
HETATM   23  O   UNL     1      27.256  44.644  49.736  1.00  0.00    -0.245 OA
HETATM   24  N   UNL     1      27.061  43.946  51.918  1.00  0.00    -0.319 N 
HETATM   25  C   UNL     1      26.903  44.546  53.236  1.00  0.00     0.141 A 
HETATM   26  H   UNL     1      27.427  43.022  51.734  1.00  0.00     0.166 HD
HETATM   27  C   UNL     1      25.680  43.972  53.955  1.00  0.00     0.055 C 
HETATM   28  C   UNL     1      26.579  46.009  52.835  1.00  0.00     0.279 A 
HETATM   29  O   UNL     1      26.334  46.930  53.607  1.00  0.00    -0.268 OA
BRANCH  25  30
HETATM   30  C   UNL     1      28.197  44.363  54.027  1.00  0.00    -0.021 A 
HETATM   31  C   UNL     1      29.097  43.311  53.781  1.00  0.00     0.010 A 
HETATM   32  C   UNL     1      30.256  43.159  54.548  1.00  0.00     0.001 A 
HETATM   33  C   UNL     1      30.540  44.053  55.577  1.00  0.00     0.000 A 
HETATM   34  C   UNL     1      29.665  45.100  55.841  1.00  0.00     0.001 A 
HETATM   35  C   UNL     1      28.506  45.253  55.077  1.00  0.00     0.010 A 
ENDBRANCH  25  30
ENDBRANCH   2  21
TORSDOF 6
ENDMDL
MODEL 8
REMARK VINA RESULT:      -9.4      2.421     10.342
REMARK  6 active torsions:
REMARK  status: ('A' for Active; 'I' for Inactive)
REMARK    1  A    between atoms: C_7  and  C_8 
REMARK    2  A    between atoms: C_8  and  O_9 
REMARK    3  A    between atoms: O_9  and  C_10 
REMARK    4  A    between atoms: C_10  and  C_11 
REMARK       I    between atoms: C_11  and  N_12 
REMARK    5  A    between atoms: N_12  and  N_13 
REMARK    6  A    between atoms: C_17  and  C_18 
ROOT
HETATM    1  C   UNL     1      23.727  44.676  50.144  1.00  0.00     0.261 C 
HETATM    2  N   UNL     1      24.280  45.608  49.290  1.00  0.00    -0.255 N 
HETATM    3  O   UNL     1      22.517  44.512  50.289  1.00  0.00    -0.269 OA
HETATM    4  H   UNL     1      25.256  45.885  49.418  1.00  0.00     0.191 HD
ENDROOT
BRANCH   1   5
HETATM    5  C   UNL     1      24.765  43.818  50.873  1.00  0.00     0.283 C 
BRANCH   5   6
HETATM    6  O   UNL     1      25.142  44.293  52.167  1.00  0.00    -0.308 OA
BRANCH   6   7
HETATM    7  C   UNL     1      26.176  45.168  52.189  1.00  0.00     0.293 C 
HETATM    8  O   UNL     1      26.147  46.293  51.709  1.00  0.00    -0.259 OA
BRANCH   7   9
HETATM    9  C   UNL     1      27.359  44.599  52.887  1.00  0.00     0.040 A 
HETATM   10  C   UNL     1      27.998  43.500  52.301  1.00  0.00     0.020 A 
HETATM   11  C   UNL     1      29.117  42.909  52.896  1.00  0.00     0.031 A 
HETATM   12  C   UNL     1      29.572  43.457  54.100  1.00  0.00     0.043 A 
HETATM   13  C   UNL     1      28.960  44.545  54.719  1.00  0.00    -0.001 A 
HETATM   14  N   UNL     1      30.638  43.090  54.888  1.00  0.00    -0.359 N 
HETATM   15  C   UNL     1      29.690  44.821  55.922  1.00  0.00    -0.027 A 
HETATM   16  C   UNL     1      27.834  45.127  54.100  1.00  0.00     0.032 A 
HETATM   17  C   UNL     1      29.402  45.896  56.910  1.00  0.00     0.051 C 
HETATM   18  C   UNL     1      30.730  43.906  55.986  1.00  0.00     0.012 A 
HETATM   19  C   UNL     1      31.807  43.735  56.994  1.00  0.00     0.068 C 
HETATM   20  H   UNL     1      31.267  42.328  54.674  1.00  0.00     0.166 HD
ENDBRANCH   7   9
ENDBRANCH   6   7
ENDBRANCH   5   6
ENDBRANCH   1   5
BRANCH   2  21
HETATM   21  N   UNL     1      23.440  46.561  48.747  1.00  0.00    -0.167 N 
HETATM   22  C   UNL     1      22.585  46.323  47.707  1.00  0.00     0.345 A 
HETATM   23  O   UNL     1      22.372  45.267  47.132  1.00  0.00    -0.245 OA
HETATM   24  N   UNL     1      21.929  47.504  47.424  1.00  0.00    -0.319 N 
HETATM   25  C   UNL     1      22.230  48.549  48.393  1.00  0.00     0.141 A 
HETATM   26  H   UNL     1      21.156  47.513  46.773  1.00  0.00     0.166 HD
HETATM   27  C   UNL     1      22.883  49.755  47.712  1.00  0.00     0.055 C 
HETATM   28  C   UNL     1      23.315  47.835  49.241  1.00  0.00     0.279 A 
HETATM   29  O   UNL     1      23.918  48.317  50.194  1.00  0.00    -0.268 OA
BRANCH  25  30
HETATM   30  C   UNL     1      20.953  48.914  49.149  1.00  0.00    -0.021 A 
HETATM   31  C   UNL     1      20.717  50.200  49.665  1.00  0.00     0.010 A 
HETATM   32  C   UNL     1      19.549  50.488  50.378  1.00  0.00     0.001 A 
HETATM   33  C   UNL     1      18.595  49.497  50.593  1.00  0.00     0.000 A 
HETATM   34  C   UNL     1      18.807  48.217  50.095  1.00  0.00     0.001 A 
HETATM   35  C   UNL     1      19.973  47.927  49.383  1.00  0.00     0.010 A 
ENDBRANCH  25  30
ENDBRANCH   2  21
TORSDOF 6
ENDMDL
MODEL 9
REMARK VINA RESULT:      -9.2      2.134      2.967
REMARK  6 active torsions:
REMARK  status: ('A' for Active; 'I' for Inactive)
REMARK    1  A    between atoms: C_7  and  C_8 
REMARK    2  A    between atoms: C_8  and  O_9 
REMARK    3  A    between atoms: O_9  and  C_10 
REMARK    4  A    between atoms: C_10  and  C_11 
REMARK       I    between atoms: C_11  and  N_12 
REMARK    5  A    between atoms: N_12  and  N_13 
REMARK    6  A    between atoms: C_17  and  C_18 
ROOT
HETATM    1  C   UNL     1      23.936  45.759  49.515  1.00  0.00     0.261 C 
HETATM    2  N   UNL     1      24.606  44.567  49.706  1.00  0.00    -0.255 N 
HETATM    3  O   UNL     1      24.332  46.844  49.939  1.00  0.00    -0.269 OA
HETATM    4  H   UNL     1      24.102  43.687  49.581  1.00  0.00     0.191 HD
ENDROOT
BRANCH   1   5
HETATM    5  C   UNL     1      22.662  45.620  48.676  1.00  0.00     0.283 C 
BRANCH   5   6
HETATM    6  O   UNL     1      21.664  46.612  48.926  1.00  0.00    -0.308 OA
BRANCH   6   7
HETATM    7  C   UNL     1      21.584  47.605  48.007  1.00  0.00     0.293 C 
HETATM    8  O   UNL     1      22.033  47.541  46.871  1.00  0.00    -0.259 OA
BRANCH   7   9
HETATM    9  C   UNL     1      20.866  48.790  48.546  1.00  0.00     0.040 A 
HETATM   10  C   UNL     1      21.614  49.750  49.236  1.00  0.00     0.020 A 
HETATM   11  C   UNL     1      21.012  50.893  49.771  1.00  0.00     0.031 A 
HETATM   12  C   UNL     1      19.632  51.039  49.591  1.00  0.00     0.043 A 
HETATM   13  C   UNL     1      18.851  50.104  48.915  1.00  0.00    -0.001 A 
HETATM   14  N   UNL     1      18.793  52.051  49.995  1.00  0.00    -0.359 N 
HETATM   15  C   UNL     1      17.499  50.580  48.933  1.00  0.00    -0.027 A 
HETATM   16  C   UNL     1      19.480  48.959  48.381  1.00  0.00     0.032 A 
HETATM   17  C   UNL     1      16.313  49.911  48.333  1.00  0.00     0.051 C 
HETATM   18  C   UNL     1      17.505  51.796  49.600  1.00  0.00     0.012 A 
HETATM   19  C   UNL     1      16.399  52.742  49.897  1.00  0.00     0.068 C 
HETATM   20  H   UNL     1      19.094  52.870  50.504  1.00  0.00     0.166 HD
ENDBRANCH   7   9
ENDBRANCH   6   7
ENDBRANCH   5   6
ENDBRANCH   1   5
BRANCH   2  21
HETATM   21  N   UNL     1      25.646  44.553  50.614  1.00  0.00    -0.167 N 
HETATM   22  C   UNL     1      26.936  44.889  50.305  1.00  0.00     0.345 A 
HETATM   23  O   UNL     1      27.374  45.298  49.242  1.00  0.00    -0.245 OA
HETATM   24  N   UNL     1      27.694  44.736  51.448  1.00  0.00    -0.319 N 
HETATM   25  C   UNL     1      26.880  44.430  52.616  1.00  0.00     0.141 A 
HETATM   26  H   UNL     1      28.652  45.058  51.470  1.00  0.00     0.166 HD
HETATM   27  C   UNL     1      27.269  43.076  53.216  1.00  0.00     0.055 C 
HETATM   28  C   UNL     1      25.489  44.273  51.948  1.00  0.00     0.279 A 
HETATM   29  O   UNL     1      24.443  43.984  52.519  1.00  0.00    -0.268 OA
BRANCH  25  30
HETATM   30  C   UNL     1      26.991  45.578  53.619  1.00  0.00    -0.021 A 
HETATM   31  C   UNL     1      27.931  45.586  54.663  1.00  0.00     0.010 A 
HETATM   32  C   UNL     1      27.982  46.640  55.581  1.00  0.00     0.001 A 
HETATM   33  C   UNL     1      27.093  47.707  55.474  1.00  0.00     0.000 A 
HETATM   34  C   UNL     1      26.152  47.720  54.451  1.00  0.00     0.001 A 
HETATM   35  C   UNL     1      26.099  46.668  53.535  1.00  0.00     0.010 A 
ENDBRANCH  25  30
ENDBRANCH   2  21
TORSDOF 6
ENDMDL
MODEL 10
REMARK VINA RESULT:      -9.0      2.343      3.451
REMARK  6 active torsions:
REMARK  status: ('A' for Active; 'I' for Inactive)
REMARK    1  A    between atoms: C_7  and  C_8 
REMARK    2  A    between atoms: C_8  and  O_9 
REMARK    3  A    between atoms: O_9  and  C_10 
REMARK    4  A    between atoms: C_10  and  C_11 
REMARK       I    between atoms: C_11  and  N_12 
REMARK    5  A    between atoms: N_12  and  N_13 
REMARK    6  A    between atoms: C_17  and  C_18 
ROOT
HETATM    1  C   UNL     1      24.035  43.299  49.873  1.00  0.00     0.261 C 
HETATM    2  N   UNL     1      24.636  44.373  50.499  1.00  0.00    -0.255 N 
HETATM    3  O   UNL     1      24.353  42.127  50.067  1.00  0.00    -0.269 OA
HETATM    4  H   UNL     1      24.527  45.307  50.099  1.00  0.00     0.191 HD
ENDROOT
BRANCH   1   5
HETATM    5  C   UNL     1      22.888  43.695  48.939  1.00  0.00     0.283 C 
BRANCH   5   6
HETATM    6  O   UNL     1      22.669  45.102  48.812  1.00  0.00    -0.308 OA
BRANCH   6   7
HETATM    7  C   UNL     1      21.404  45.469  48.495  1.00  0.00     0.293 C 
HETATM    8  O   UNL     1      20.475  44.692  48.319  1.00  0.00    -0.259 OA
BRANCH   7   9
HETATM    9  C   UNL     1      21.273  46.947  48.397  1.00  0.00     0.040 A 
HETATM   10  C   UNL     1      22.429  47.690  48.132  1.00  0.00     0.020 A 
HETATM   11  C   UNL     1      22.388  49.084  48.025  1.00  0.00     0.031 A 
HETATM   12  C   UNL     1      21.147  49.707  48.194  1.00  0.00     0.043 A 
HETATM   13  C   UNL     1      19.975  49.004  48.465  1.00  0.00    -0.001 A 
HETATM   14  N   UNL     1      20.815  51.040  48.134  1.00  0.00    -0.359 N 
HETATM   15  C   UNL     1      18.916  49.964  48.578  1.00  0.00    -0.027 A 
HETATM   16  C   UNL     1      20.039  47.598  48.567  1.00  0.00     0.032 A 
HETATM   17  C   UNL     1      17.483  49.678  48.863  1.00  0.00     0.051 C 
HETATM   18  C   UNL     1      19.473  51.213  48.355  1.00  0.00     0.012 A 
HETATM   19  C   UNL     1      18.848  52.561  48.329  1.00  0.00     0.068 C 
HETATM   20  H   UNL     1      21.475  51.782  47.943  1.00  0.00     0.166 HD
ENDBRANCH   7   9
ENDBRANCH   6   7
ENDBRANCH   5   6
ENDBRANCH   1   5
BRANCH   2  21
HETATM   21  N   UNL     1      25.805  44.138  51.196  1.00  0.00    -0.167 N 
HETATM   22  C   UNL     1      27.056  44.291  50.663  1.00  0.00     0.345 A 
HETATM   23  O   UNL     1      27.359  44.697  49.553  1.00  0.00    -0.245 OA
HETATM   24  N   UNL     1      27.971  43.947  51.638  1.00  0.00    -0.319 N 
HETATM   25  C   UNL     1      27.339  43.694  52.925  1.00  0.00     0.141 A 
HETATM   26  H   UNL     1      28.957  44.116  51.492  1.00  0.00     0.166 HD
HETATM   27  C   UNL     1      27.602  42.259  53.392  1.00  0.00     0.055 C 
HETATM   28  C   UNL     1      25.845  43.798  52.524  1.00  0.00     0.279 A 
HETATM   29  O   UNL     1      24.885  43.636  53.270  1.00  0.00    -0.268 OA
BRANCH  25  30
HETATM   30  C   UNL     1      27.814  44.741  53.932  1.00  0.00    -0.021 A 
HETATM   31  C   UNL     1      27.207  46.003  54.058  1.00  0.00     0.010 A 
HETATM   32  C   UNL     1      27.690  46.948  54.970  1.00  0.00     0.001 A 
HETATM   33  C   UNL     1      28.788  46.652  55.772  1.00  0.00     0.000 A 
HETATM   34  C   UNL     1      29.406  45.411  55.664  1.00  0.00     0.001 A 
HETATM   35  C   UNL     1      28.927  44.467  54.753  1.00  0.00     0.010 A 
ENDBRANCH  25  30
ENDBRANCH   2  21
TORSDOF 6
ENDMDL
