MODEL 1
REMARK VINA RESULT:      -8.3      0.000      0.000
REMARK  1 active torsions:
REMARK  status: ('A' for Active; 'I' for Inactive)
REMARK    1  A    between atoms: C_5  and  N_6 
ROOT
HETATM    1  N   UNL     1      32.178  49.577  41.159  1.00  0.00    -0.320 N 
HETATM    2  C   UNL     1      32.250  48.142  41.161  1.00  0.00     0.141 C 
HETATM    3  N   UNL     1      33.023  47.458  41.958  1.00  0.00    -0.380 N 
HETATM    4  H   UNL     1      33.617  47.941  42.618  1.00  0.00     0.158 HD
HETATM    5  H   UNL     1      33.015  46.449  41.914  1.00  0.00     0.158 HD
HETATM    6  S   UNL     1      31.175  47.412  40.017  1.00  0.00    -0.086 SA
HETATM    7  C   UNL     1      30.861  49.034  39.255  1.00  0.00     0.093 C 
HETATM    8  C   UNL     1      30.973  50.016  40.441  1.00  0.00     0.121 C 
HETATM    9  C   UNL     1      29.553  49.375  38.587  1.00  0.00     0.158 C 
HETATM   10  S   UNL     1      29.607  51.180  38.597  1.00  0.00     0.147 S 
HETATM   11  O   UNL     1      30.065  51.637  37.305  1.00  0.00    -0.228 OA
HETATM   12  O   UNL     1      28.391  51.664  39.214  1.00  0.00    -0.228 OA
HETATM   13  C   UNL     1      30.954  51.376  39.780  1.00  0.00     0.167 C 
ENDROOT
BRANCH   1  14
HETATM   14  C   UNL     1      32.754  50.427  42.126  1.00  0.00     0.048 A 
HETATM   15  C   UNL     1      34.124  50.817  42.028  1.00  0.00     0.001 A 
HETATM   16  C   UNL     1      34.697  51.597  43.065  1.00  0.00    -0.024 A 
HETATM   17  C   UNL     1      34.953  50.486  40.929  1.00  0.00     0.014 A 
HETATM   18  C   UNL     1      36.049  51.972  43.000  1.00  0.00     0.012 A 
HETATM   19  C   UNL     1      33.910  51.998  44.152  1.00  0.00     0.012 A 
HETATM   20  C   UNL     1      36.844  51.605  41.917  1.00  0.00     0.001 A 
HETATM   21  C   UNL     1      36.295  50.868  40.877  1.00  0.00     0.001 A 
HETATM   22  C   UNL     1      32.569  51.640  44.231  1.00  0.00     0.003 A 
HETATM   23  C   UNL     1      31.998  50.858  43.230  1.00  0.00     0.030 A 
ENDBRANCH   1  14
TORSDOF 1
ENDMDL
MODEL 2
REMARK VINA RESULT:      -7.5     11.711     13.571
REMARK  1 active torsions:
REMARK  status: ('A' for Active; 'I' for Inactive)
REMARK    1  A    between atoms: C_5  and  N_6 
ROOT
HETATM    1  N   UNL     1      24.986  46.516  50.322  1.00  0.00    -0.320 N 
HETATM    2  C   UNL     1      24.361  45.374  49.714  1.00  0.00     0.141 C 
HETATM    3  N   UNL     1      23.883  45.372  48.501  1.00  0.00    -0.380 N 
HETATM    4  H   UNL     1      23.938  46.209  47.938  1.00  0.00     0.158 HD
HETATM    5  H   UNL     1      23.466  44.529  48.131  1.00  0.00     0.158 HD
HETATM    6  S   UNL     1      24.342  43.985  50.748  1.00  0.00    -0.086 SA
HETATM    7  C   UNL     1      24.854  45.012  52.160  1.00  0.00     0.093 C 
HETATM    8  C   UNL     1      25.741  46.097  51.511  1.00  0.00     0.121 C 
HETATM    9  C   UNL     1      25.675  44.467  53.301  1.00  0.00     0.158 C 
HETATM   10  S   UNL     1      26.355  45.983  54.008  1.00  0.00     0.147 S 
HETATM   11  O   UNL     1      25.547  46.369  55.142  1.00  0.00    -0.228 OA
HETATM   12  O   UNL     1      27.793  45.840  54.083  1.00  0.00    -0.228 OA
HETATM   13  C   UNL     1      25.970  47.085  52.633  1.00  0.00     0.167 C 
ENDROOT
BRANCH   1  14
HETATM   14  C   UNL     1      25.353  47.701  49.653  1.00  0.00     0.048 A 
HETATM   15  C   UNL     1      24.356  48.612  49.189  1.00  0.00     0.001 A 
HETATM   16  C   UNL     1      24.753  49.749  48.439  1.00  0.00    -0.024 A 
HETATM   17  C   UNL     1      22.974  48.459  49.455  1.00  0.00     0.014 A 
HETATM   18  C   UNL     1      23.788  50.646  47.954  1.00  0.00     0.012 A 
HETATM   19  C   UNL     1      26.112  49.979  48.190  1.00  0.00     0.012 A 
HETATM   20  C   UNL     1      22.432  50.450  48.210  1.00  0.00     0.001 A 
HETATM   21  C   UNL     1      22.025  49.360  48.968  1.00  0.00     0.001 A 
HETATM   22  C   UNL     1      27.082  49.105  48.665  1.00  0.00     0.003 A 
HETATM   23  C   UNL     1      26.705  47.975  49.387  1.00  0.00     0.030 A 
ENDBRANCH   1  14
TORSDOF 1
ENDMDL
MODEL 3
REMARK VINA RESULT:      -7.3     11.386     13.056
REMARK  1 active torsions:
REMARK  status: ('A' for Active; 'I' for Inactive)
REMARK    1  A    between atoms: C_5  and  N_6 
ROOT
HETATM    1  N   UNL     1      25.153  47.876  49.578  1.00  0.00    -0.320 N 
HETATM    2  C   UNL     1      26.415  48.381  49.116  1.00  0.00     0.141 C 
HETATM    3  N   UNL     1      27.554  47.783  49.326  1.00  0.00    -0.380 N 
HETATM    4  H   UNL     1      27.578  46.916  49.845  1.00  0.00     0.158 HD
HETATM    5  H   UNL     1      28.405  48.188  48.962  1.00  0.00     0.158 HD
HETATM    6  S   UNL     1      26.264  49.852  48.214  1.00  0.00    -0.086 SA
HETATM    7  C   UNL     1      24.531  50.015  48.745  1.00  0.00     0.093 C 
HETATM    8  C   UNL     1      24.055  48.551  48.871  1.00  0.00     0.121 C 
HETATM    9  C   UNL     1      23.486  50.694  47.897  1.00  0.00     0.158 C 
HETATM   10  S   UNL     1      21.963  50.026  48.603  1.00  0.00     0.147 S 
HETATM   11  O   UNL     1      21.427  50.987  49.539  1.00  0.00    -0.228 OA
HETATM   12  O   UNL     1      21.180  49.456  47.529  1.00  0.00    -0.228 OA
HETATM   13  C   UNL     1      22.704  48.673  49.538  1.00  0.00     0.167 C 
ENDROOT
BRANCH   1  14
HETATM   14  C   UNL     1      24.935  46.596  50.129  1.00  0.00     0.048 A 
HETATM   15  C   UNL     1      25.213  46.340  51.506  1.00  0.00     0.001 A 
HETATM   16  C   UNL     1      25.072  45.021  52.006  1.00  0.00    -0.024 A 
HETATM   17  C   UNL     1      25.607  47.345  52.422  1.00  0.00     0.014 A 
HETATM   18  C   UNL     1      25.362  44.743  53.352  1.00  0.00     0.012 A 
HETATM   19  C   UNL     1      24.635  43.996  51.158  1.00  0.00     0.012 A 
HETATM   20  C   UNL     1      25.776  45.750  54.221  1.00  0.00     0.001 A 
HETATM   21  C   UNL     1      25.891  47.054  53.758  1.00  0.00     0.001 A 
HETATM   22  C   UNL     1      24.339  44.253  49.825  1.00  0.00     0.003 A 
HETATM   23  C   UNL     1      24.491  45.540  49.314  1.00  0.00     0.030 A 
ENDBRANCH   1  14
TORSDOF 1
ENDMDL
MODEL 4
REMARK VINA RESULT:      -7.3     11.224     12.837
REMARK  1 active torsions:
REMARK  status: ('A' for Active; 'I' for Inactive)
REMARK    1  A    between atoms: C_5  and  N_6 
ROOT
HETATM    1  N   UNL     1      25.620  45.910  50.933  1.00  0.00    -0.320 N 
HETATM    2  C   UNL     1      25.843  46.042  52.346  1.00  0.00     0.141 C 
HETATM    3  N   UNL     1      25.655  47.150  53.006  1.00  0.00    -0.380 N 
HETATM    4  H   UNL     1      25.338  47.978  52.520  1.00  0.00     0.158 HD
HETATM    5  H   UNL     1      25.819  47.171  54.003  1.00  0.00     0.158 HD
HETATM    6  S   UNL     1      26.353  44.565  53.090  1.00  0.00    -0.086 SA
HETATM    7  C   UNL     1      26.627  43.819  51.453  1.00  0.00     0.093 C 
HETATM    8  C   UNL     1      25.551  44.488  50.569  1.00  0.00     0.121 C 
HETATM    9  C   UNL     1      26.474  42.340  51.202  1.00  0.00     0.158 C 
HETATM   10  S   UNL     1      26.258  42.302  49.409  1.00  0.00     0.147 S 
HETATM   11  O   UNL     1      27.529  41.991  48.796  1.00  0.00    -0.228 OA
HETATM   12  O   UNL     1      25.046  41.568  49.117  1.00  0.00    -0.228 OA
HETATM   13  C   UNL     1      25.924  44.058  49.168  1.00  0.00     0.167 C 
ENDROOT
BRANCH   1  14
HETATM   14  C   UNL     1      24.986  46.864  50.111  1.00  0.00     0.048 A 
HETATM   15  C   UNL     1      25.725  47.957  49.564  1.00  0.00     0.001 A 
HETATM   16  C   UNL     1      25.040  48.950  48.818  1.00  0.00    -0.024 A 
HETATM   17  C   UNL     1      27.126  48.102  49.706  1.00  0.00     0.014 A 
HETATM   18  C   UNL     1      25.742  50.046  48.291  1.00  0.00     0.012 A 
HETATM   19  C   UNL     1      23.661  48.832  48.601  1.00  0.00     0.012 A 
HETATM   20  C   UNL     1      27.117  50.172  48.474  1.00  0.00     0.001 A 
HETATM   21  C   UNL     1      27.811  49.196  49.175  1.00  0.00     0.001 A 
HETATM   22  C   UNL     1      22.950  47.752  49.111  1.00  0.00     0.003 A 
HETATM   23  C   UNL     1      23.606  46.780  49.862  1.00  0.00     0.030 A 
ENDBRANCH   1  14
TORSDOF 1
ENDMDL
MODEL 5
REMARK VINA RESULT:      -7.2      3.045      4.746
REMARK  1 active torsions:
REMARK  status: ('A' for Active; 'I' for Inactive)
REMARK    1  A    between atoms: C_5  and  N_6 
ROOT
HETATM    1  N   UNL     1      29.179  49.842  39.624  1.00  0.00    -0.320 N 
HETATM    2  C   UNL     1      27.948  50.574  39.734  1.00  0.00     0.141 C 
HETATM    3  N   UNL     1      27.888  51.859  39.948  1.00  0.00    -0.380 N 
HETATM    4  H   UNL     1      28.741  52.392  40.050  1.00  0.00     0.158 HD
HETATM    5  H   UNL     1      26.988  52.314  40.002  1.00  0.00     0.158 HD
HETATM    6  S   UNL     1      26.548  49.579  39.514  1.00  0.00    -0.086 SA
HETATM    7  C   UNL     1      27.579  48.083  39.627  1.00  0.00     0.093 C 
HETATM    8  C   UNL     1      28.926  48.528  39.017  1.00  0.00     0.121 C 
HETATM    9  C   UNL     1      27.228  46.804  38.910  1.00  0.00     0.158 C 
HETATM   10  S   UNL     1      28.825  45.960  38.885  1.00  0.00     0.147 S 
HETATM   11  O   UNL     1      28.864  45.010  39.974  1.00  0.00    -0.228 OA
HETATM   12  O   UNL     1      29.120  45.596  37.516  1.00  0.00    -0.228 OA
HETATM   13  C   UNL     1      29.853  47.374  39.326  1.00  0.00     0.167 C 
ENDROOT
BRANCH   1  14
HETATM   14  C   UNL     1      30.465  50.412  39.526  1.00  0.00     0.048 A 
HETATM   15  C   UNL     1      31.290  50.548  40.683  1.00  0.00     0.001 A 
HETATM   16  C   UNL     1      32.540  51.209  40.567  1.00  0.00    -0.024 A 
HETATM   17  C   UNL     1      30.942  50.036  41.956  1.00  0.00     0.014 A 
HETATM   18  C   UNL     1      33.358  51.373  41.696  1.00  0.00     0.012 A 
HETATM   19  C   UNL     1      32.961  51.690  39.321  1.00  0.00     0.012 A 
HETATM   20  C   UNL     1      32.971  50.882  42.941  1.00  0.00     0.001 A 
HETATM   21  C   UNL     1      31.765  50.205  43.070  1.00  0.00     0.001 A 
HETATM   22  C   UNL     1      32.168  51.532  38.191  1.00  0.00     0.003 A 
HETATM   23  C   UNL     1      30.929  50.903  38.293  1.00  0.00     0.030 A 
ENDBRANCH   1  14
TORSDOF 1
ENDMDL
MODEL 6
REMARK VINA RESULT:      -7.2     12.436     14.031
REMARK  1 active torsions:
REMARK  status: ('A' for Active; 'I' for Inactive)
REMARK    1  A    between atoms: C_5  and  N_6 
ROOT
HETATM    1  N   UNL     1      24.748  43.711  49.953  1.00  0.00    -0.320 N 
HETATM    2  C   UNL     1      23.365  43.415  49.703  1.00  0.00     0.141 C 
HETATM    3  N   UNL     1      22.384  44.204  50.042  1.00  0.00    -0.380 N 
HETATM    4  H   UNL     1      22.581  45.077  50.512  1.00  0.00     0.158 HD
HETATM    5  H   UNL     1      21.434  43.940  49.824  1.00  0.00     0.158 HD
HETATM    6  S   UNL     1      23.136  41.915  48.869  1.00  0.00    -0.086 SA
HETATM    7  C   UNL     1      24.878  41.474  49.155  1.00  0.00     0.093 C 
HETATM    8  C   UNL     1      25.602  42.838  49.134  1.00  0.00     0.121 C 
HETATM    9  C   UNL     1      25.659  40.603  48.203  1.00  0.00     0.158 C 
HETATM   10  S   UNL     1      27.358  41.022  48.649  1.00  0.00     0.147 S 
HETATM   11  O   UNL     1      27.864  40.009  49.549  1.00  0.00    -0.228 OA
HETATM   12  O   UNL     1      28.055  41.419  47.446  1.00  0.00    -0.228 OA
HETATM   13  C   UNL     1      26.999  42.506  49.607  1.00  0.00     0.167 C 
ENDROOT
BRANCH   1  14
HETATM   14  C   UNL     1      25.253  44.950  50.399  1.00  0.00     0.048 A 
HETATM   15  C   UNL     1      25.461  45.192  51.790  1.00  0.00     0.001 A 
HETATM   16  C   UNL     1      25.882  46.479  52.213  1.00  0.00    -0.024 A 
HETATM   17  C   UNL     1      25.291  44.203  52.789  1.00  0.00     0.014 A 
HETATM   18  C   UNL     1      26.070  46.746  53.579  1.00  0.00     0.012 A 
HETATM   19  C   UNL     1      26.116  47.482  51.264  1.00  0.00     0.012 A 
HETATM   20  C   UNL     1      25.866  45.756  54.538  1.00  0.00     0.001 A 
HETATM   21  C   UNL     1      25.484  44.482  54.143  1.00  0.00     0.001 A 
HETATM   22  C   UNL     1      25.939  47.235  49.908  1.00  0.00     0.003 A 
HETATM   23  C   UNL     1      25.508  45.982  49.480  1.00  0.00     0.030 A 
ENDBRANCH   1  14
TORSDOF 1
ENDMDL
MODEL 7
REMARK VINA RESULT:      -7.1      2.240      3.174
REMARK  1 active torsions:
REMARK  status: ('A' for Active; 'I' for Inactive)
REMARK    1  A    between atoms: C_5  and  N_6 
ROOT
HETATM    1  N   UNL     1      30.834  51.631  41.408  1.00  0.00    -0.320 N 
HETATM    2  C   UNL     1      30.395  52.674  40.523  1.00  0.00     0.141 C 
HETATM    3  N   UNL     1      30.792  53.913  40.611  1.00  0.00    -0.380 N 
HETATM    4  H   UNL     1      31.442  54.181  41.337  1.00  0.00     0.158 HD
HETATM    5  H   UNL     1      30.452  54.594  39.948  1.00  0.00     0.158 HD
HETATM    6  S   UNL     1      29.309  52.107  39.299  1.00  0.00    -0.086 SA
HETATM    7  C   UNL     1      29.137  50.518  40.169  1.00  0.00     0.093 C 
HETATM    8  C   UNL     1      30.519  50.318  40.828  1.00  0.00     0.121 C 
HETATM    9  C   UNL     1      28.859  49.225  39.444  1.00  0.00     0.158 C 
HETATM   10  S   UNL     1      29.397  48.008  40.666  1.00  0.00     0.147 S 
HETATM   11  O   UNL     1      28.237  47.530  41.384  1.00  0.00    -0.228 OA
HETATM   12  O   UNL     1      30.346  47.121  40.031  1.00  0.00    -0.228 OA
HETATM   13  C   UNL     1      30.309  49.132  41.742  1.00  0.00     0.167 C 
ENDROOT
BRANCH   1  14
HETATM   14  C   UNL     1      31.885  51.739  42.343  1.00  0.00     0.048 A 
HETATM   15  C   UNL     1      33.237  51.514  41.945  1.00  0.00     0.001 A 
HETATM   16  C   UNL     1      34.260  51.540  42.927  1.00  0.00    -0.024 A 
HETATM   17  C   UNL     1      33.629  51.284  40.604  1.00  0.00     0.014 A 
HETATM   18  C   UNL     1      35.595  51.298  42.562  1.00  0.00     0.012 A 
HETATM   19  C   UNL     1      33.939  51.814  44.262  1.00  0.00     0.012 A 
HETATM   20  C   UNL     1      35.942  51.047  41.236  1.00  0.00     0.001 A 
HETATM   21  C   UNL     1      34.960  51.047  40.255  1.00  0.00     0.001 A 
HETATM   22  C   UNL     1      32.624  52.060  44.642  1.00  0.00     0.003 A 
HETATM   23  C   UNL     1      31.607  52.019  43.691  1.00  0.00     0.030 A 
ENDBRANCH   1  14
TORSDOF 1
ENDMDL
MODEL 8
REMARK VINA RESULT:      -7.0     14.360     16.252
REMARK  1 active torsions:
REMARK  status: ('A' for Active; 'I' for Inactive)
REMARK    1  A    between atoms: C_5  and  N_6 
ROOT
HETATM    1  N   UNL     1      18.911  49.425  47.804  1.00  0.00    -0.320 N 
HETATM    2  C   UNL     1      18.482  48.096  48.139  1.00  0.00     0.141 C 
HETATM    3  N   UNL     1      17.266  47.662  47.959  1.00  0.00    -0.380 N 
HETATM    4  H   UNL     1      16.566  48.277  47.567  1.00  0.00     0.158 HD
HETATM    5  H   UNL     1      17.035  46.710  48.205  1.00  0.00     0.158 HD
HETATM    6  S   UNL     1      19.760  47.114  48.773  1.00  0.00    -0.086 SA
HETATM    7  C   UNL     1      20.823  48.582  48.940  1.00  0.00     0.093 C 
HETATM    8  C   UNL     1      20.379  49.482  47.766  1.00  0.00     0.121 C 
HETATM    9  C   UNL     1      22.325  48.509  48.832  1.00  0.00     0.158 C 
HETATM   10  S   UNL     1      22.740  50.229  48.467  1.00  0.00     0.147 S 
HETATM   11  O   UNL     1      23.139  50.879  49.695  1.00  0.00    -0.228 OA
HETATM   12  O   UNL     1      23.549  50.253  47.269  1.00  0.00    -0.228 OA
HETATM   13  C   UNL     1      21.081  50.793  48.039  1.00  0.00     0.167 C 
ENDROOT
BRANCH   1  14
HETATM   14  C   UNL     1      18.165  50.364  47.062  1.00  0.00     0.048 A 
HETATM   15  C   UNL     1      17.187  51.185  47.703  1.00  0.00     0.001 A 
HETATM   16  C   UNL     1      16.389  52.052  46.915  1.00  0.00    -0.024 A 
HETATM   17  C   UNL     1      16.977  51.201  49.103  1.00  0.00     0.014 A 
HETATM   18  C   UNL     1      15.406  52.852  47.521  1.00  0.00     0.012 A 
HETATM   19  C   UNL     1      16.588  52.117  45.530  1.00  0.00     0.012 A 
HETATM   20  C   UNL     1      15.207  52.821  48.900  1.00  0.00     0.001 A 
HETATM   21  C   UNL     1      15.998  52.002  49.692  1.00  0.00     0.001 A 
HETATM   22  C   UNL     1      17.559  51.337  44.913  1.00  0.00     0.003 A 
HETATM   23  C   UNL     1      18.337  50.466  45.671  1.00  0.00     0.030 A 
ENDBRANCH   1  14
TORSDOF 1
ENDMDL
MODEL 9
REMARK VINA RESULT:      -6.9     12.308     14.122
REMARK  1 active torsions:
REMARK  status: ('A' for Active; 'I' for Inactive)
REMARK    1  A    between atoms: C_5  and  N_6 
ROOT
HETATM    1  N   UNL     1      22.700  47.094  48.509  1.00  0.00    -0.320 N 
HETATM    2  C   UNL     1      22.122  46.279  47.476  1.00  0.00     0.141 C 
HETATM    3  N   UNL     1      21.330  46.741  46.549  1.00  0.00    -0.380 N 
HETATM    4  H   UNL     1      21.092  47.723  46.536  1.00  0.00     0.158 HD
HETATM    5  H   UNL     1      20.968  46.114  45.845  1.00  0.00     0.158 HD
HETATM    6  S   UNL     1      22.615  44.622  47.569  1.00  0.00    -0.086 SA
HETATM    7  C   UNL     1      23.330  44.913  49.217  1.00  0.00     0.093 C 
HETATM    8  C   UNL     1      23.814  46.377  49.145  1.00  0.00     0.121 C 
HETATM    9  C   UNL     1      24.513  44.134  49.735  1.00  0.00     0.158 C 
HETATM   10  S   UNL     1      25.111  45.224  51.045  1.00  0.00     0.147 S 
HETATM   11  O   UNL     1      24.600  44.749  52.311  1.00  0.00    -0.228 OA
HETATM   12  O   UNL     1      26.516  45.479  50.813  1.00  0.00    -0.228 OA
HETATM   13  C   UNL     1      24.186  46.699  50.575  1.00  0.00     0.167 C 
ENDROOT
BRANCH   1  14
HETATM   14  C   UNL     1      22.670  48.503  48.552  1.00  0.00     0.048 A 
HETATM   15  C   UNL     1      21.501  49.192  48.995  1.00  0.00     0.001 A 
HETATM   16  C   UNL     1      21.470  50.609  48.939  1.00  0.00    -0.024 A 
HETATM   17  C   UNL     1      20.358  48.537  49.514  1.00  0.00     0.014 A 
HETATM   18  C   UNL     1      20.322  51.306  49.348  1.00  0.00     0.012 A 
HETATM   19  C   UNL     1      22.592  51.313  48.483  1.00  0.00     0.012 A 
HETATM   20  C   UNL     1      19.203  50.628  49.827  1.00  0.00     0.001 A 
HETATM   21  C   UNL     1      19.224  49.243  49.918  1.00  0.00     0.001 A 
HETATM   22  C   UNL     1      23.739  50.641  48.079  1.00  0.00     0.003 A 
HETATM   23  C   UNL     1      23.776  49.249  48.110  1.00  0.00     0.030 A 
ENDBRANCH   1  14
TORSDOF 1
ENDMDL
MODEL 10
REMARK VINA RESULT:      -6.8      3.413      4.851
REMARK  1 active torsions:
REMARK  status: ('A' for Active; 'I' for Inactive)
REMARK    1  A    between atoms: C_5  and  N_6 
ROOT
HETATM    1  N   UNL     1      28.862  48.621  40.814  1.00  0.00    -0.320 N 
HETATM    2  C   UNL     1      27.564  49.232  40.894  1.00  0.00     0.141 C 
HETATM    3  N   UNL     1      27.336  50.369  41.490  1.00  0.00    -0.380 N 
HETATM    4  H   UNL     1      28.097  50.866  41.933  1.00  0.00     0.158 HD
HETATM    5  H   UNL     1      26.400  50.748  41.499  1.00  0.00     0.158 HD
HETATM    6  S   UNL     1      26.337  48.319  40.082  1.00  0.00    -0.086 SA
HETATM    7  C   UNL     1      27.475  46.908  39.921  1.00  0.00     0.093 C 
HETATM    8  C   UNL     1      28.859  47.577  39.779  1.00  0.00     0.121 C 
HETATM    9  C   UNL     1      27.394  45.930  38.776  1.00  0.00     0.158 C 
HETATM   10  S   UNL     1      29.045  45.199  38.814  1.00  0.00     0.147 S 
HETATM   11  O   UNL     1      28.978  43.942  39.525  1.00  0.00    -0.228 OA
HETATM   12  O   UNL     1      29.623  45.323  37.494  1.00  0.00    -0.228 OA
HETATM   13  C   UNL     1      29.826  46.419  39.888  1.00  0.00     0.167 C 
ENDROOT
BRANCH   1  14
HETATM   14  C   UNL     1      30.079  49.235  41.172  1.00  0.00     0.048 A 
HETATM   15  C   UNL     1      30.792  50.039  40.232  1.00  0.00     0.001 A 
HETATM   16  C   UNL     1      32.058  50.567  40.593  1.00  0.00    -0.024 A 
HETATM   17  C   UNL     1      30.294  50.365  38.947  1.00  0.00     0.014 A 
HETATM   18  C   UNL     1      32.787  51.341  39.675  1.00  0.00     0.012 A 
HETATM   19  C   UNL     1      32.578  50.321  41.870  1.00  0.00     0.012 A 
HETATM   20  C   UNL     1      32.279  51.619  38.408  1.00  0.00     0.001 A 
HETATM   21  C   UNL     1      31.029  51.137  38.046  1.00  0.00     0.001 A 
HETATM   22  C   UNL     1      31.869  49.560  42.792  1.00  0.00     0.003 A 
HETATM   23  C   UNL     1      30.634  49.020  42.446  1.00  0.00     0.030 A 
ENDBRANCH   1  14
TORSDOF 1
ENDMDL
