MODEL 1
REMARK VINA RESULT:     -11.3      0.000      0.000
REMARK  8 active torsions:
REMARK  status: ('A' for Active; 'I' for Inactive)
REMARK    1  A    between atoms: C_4  and  S_5 
REMARK    2  A    between atoms: S_5  and  C_6 
REMARK    3  A    between atoms: C_6  and  C_7 
REMARK       I    between atoms: C_7  and  N_8 
REMARK    4  A    between atoms: N_8  and  C_9 
REMARK    5  A    between atoms: C_9  and  C_10 
REMARK    6  A    between atoms: C_20  and  C_21 
REMARK    7  A    between atoms: C_26  and  C_27 
REMARK       I    between atoms: C_27  and  N_28 
REMARK    8  A    between atoms: N_28  and  C_29 
ROOT
HETATM    1  C   UNL     1      22.579  45.115  47.854  1.00  0.00     0.069 C 
HETATM    2  C   UNL     1      23.474  45.709  48.915  1.00  0.00     0.019 C 
HETATM    3  N   UNL     1      24.248  44.804  49.633  1.00  0.00    -0.353 N 
HETATM    4  C   UNL     1      24.827  45.097  50.863  1.00  0.00     0.087 C 
HETATM    5  C   UNL     1      24.951  46.406  51.214  1.00  0.00     0.057 C 
HETATM    6  C   UNL     1      25.479  46.807  52.582  1.00  0.00     0.019 C 
HETATM    7  N   UNL     1      25.917  47.140  53.717  1.00  0.00    -0.096 N 
HETATM    8  C   UNL     1      24.506  47.523  50.278  1.00  0.00     0.129 C 
HETATM    9  C   UNL     1      23.538  47.027  49.214  1.00  0.00     0.048 C 
HETATM   10  H   UNL     1      24.011  43.831  49.475  1.00  0.00     0.166 HD
ENDROOT
BRANCH   4  11
HETATM   11  S   UNL     1      25.357  43.863  52.005  1.00  0.00    -0.102 SA
BRANCH  11  12
HETATM   12  C   UNL     1      26.277  42.675  50.998  1.00  0.00     0.183 C 
BRANCH  12  13
HETATM   13  C   UNL     1      27.552  42.196  51.680  1.00  0.00     0.227 C 
HETATM   14  N   UNL     1      27.797  42.722  52.930  1.00  0.00    -0.356 N 
HETATM   15  H   UNL     1      27.410  43.642  53.112  1.00  0.00     0.162 HD
HETATM   16  O   UNL     1      28.245  41.312  51.182  1.00  0.00    -0.273 OA
BRANCH  14  17
HETATM   17  C   UNL     1      28.974  42.332  53.675  1.00  0.00     0.161 C 
BRANCH  17  18
HETATM   18  C   UNL     1      29.488  43.380  54.636  1.00  0.00    -0.041 A 
HETATM   19  C   UNL     1      30.646  43.219  55.412  1.00  0.00     0.009 A 
HETATM   20  C   UNL     1      31.081  44.236  56.265  1.00  0.00     0.001 A 
HETATM   21  C   UNL     1      30.378  45.436  56.341  1.00  0.00     0.000 A 
HETATM   22  C   UNL     1      29.238  45.620  55.565  1.00  0.00     0.001 A 
HETATM   23  C   UNL     1      28.797  44.601  54.721  1.00  0.00     0.009 A 
ENDBRANCH  17  18
ENDBRANCH  14  17
ENDBRANCH  12  13
ENDBRANCH  11  12
ENDBRANCH   4  11
BRANCH   8  24
HETATM   24  C   UNL     1      25.686  48.238  49.668  1.00  0.00     0.066 A 
HETATM   25  O   UNL     1      25.421  49.422  49.041  1.00  0.00    -0.326 OA
HETATM   26  C   UNL     1      26.602  49.881  48.550  1.00  0.00     0.142 A 
HETATM   27  C   UNL     1      27.617  48.997  48.829  1.00  0.00     0.027 A 
HETATM   28  C   UNL     1      27.027  47.930  49.547  1.00  0.00     0.035 A 
ENDBRANCH   8  24
BRANCH   9  29
HETATM   29  C   UNL     1      22.517  47.964  48.661  1.00  0.00     0.255 C 
HETATM   30  N   UNL     1      21.630  48.486  49.578  1.00  0.00    -0.322 N 
HETATM   31  H   UNL     1      21.537  48.011  50.469  1.00  0.00     0.169 HD
HETATM   32  O   UNL     1      22.450  48.125  47.445  1.00  0.00    -0.268 OA
BRANCH  30  33
HETATM   33  C   UNL     1      20.567  49.353  49.228  1.00  0.00     0.057 A 
HETATM   34  C   UNL     1      19.256  48.940  48.921  1.00  0.00     0.062 A 
HETATM   35 CL   UNL     1      18.827  47.283  48.650  1.00  0.00    -0.082 Cl
HETATM   36  C   UNL     1      18.263  49.888  48.653  1.00  0.00     0.050 A 
HETATM   37  C   UNL     1      18.577  51.244  48.664  1.00  0.00     0.035 A 
HETATM   38 CL   UNL     1      17.354  52.409  48.342  1.00  0.00    -0.084 Cl
HETATM   39  C   UNL     1      19.883  51.664  48.908  1.00  0.00     0.026 A 
HETATM   40  C   UNL     1      20.879  50.720  49.172  1.00  0.00     0.033 A 
ENDBRANCH  30  33
ENDBRANCH   9  29
TORSDOF 8
ENDMDL
MODEL 2
REMARK VINA RESULT:      -9.9      3.704     10.145
REMARK  8 active torsions:
REMARK  status: ('A' for Active; 'I' for Inactive)
REMARK    1  A    between atoms: C_4  and  S_5 
REMARK    2  A    between atoms: S_5  and  C_6 
REMARK    3  A    between atoms: C_6  and  C_7 
REMARK       I    between atoms: C_7  and  N_8 
REMARK    4  A    between atoms: N_8  and  C_9 
REMARK    5  A    between atoms: C_9  and  C_10 
REMARK    6  A    between atoms: C_20  and  C_21 
REMARK    7  A    between atoms: C_26  and  C_27 
REMARK       I    between atoms: C_27  and  N_28 
REMARK    8  A    between atoms: N_28  and  C_29 
ROOT
HETATM    1  C   UNL     1      26.309  46.485  50.563  1.00  0.00     0.069 C 
HETATM    2  C   UNL     1      25.750  45.191  50.024  1.00  0.00     0.019 C 
HETATM    3  N   UNL     1      24.918  45.303  48.916  1.00  0.00    -0.353 N 
HETATM    4  C   UNL     1      24.029  44.310  48.520  1.00  0.00     0.087 C 
HETATM    5  C   UNL     1      24.224  43.052  48.999  1.00  0.00     0.057 C 
HETATM    6  C   UNL     1      23.241  41.933  48.696  1.00  0.00     0.019 C 
HETATM    7  N   UNL     1      22.425  41.004  48.445  1.00  0.00    -0.096 N 
HETATM    8  C   UNL     1      25.400  42.725  49.913  1.00  0.00     0.129 C 
HETATM    9  C   UNL     1      25.984  43.972  50.562  1.00  0.00     0.048 C 
HETATM   10  H   UNL     1      24.650  46.254  48.687  1.00  0.00     0.166 HD
ENDROOT
BRANCH   4  11
HETATM   11  S   UNL     1      22.641  44.609  47.475  1.00  0.00    -0.102 SA
BRANCH  11  12
HETATM   12  C   UNL     1      21.570  45.702  48.439  1.00  0.00     0.183 C 
BRANCH  12  13
HETATM   13  C   UNL     1      21.884  47.175  48.213  1.00  0.00     0.227 C 
HETATM   14  N   UNL     1      21.717  47.998  49.305  1.00  0.00    -0.356 N 
HETATM   15  H   UNL     1      21.030  47.700  49.988  1.00  0.00     0.162 HD
HETATM   16  O   UNL     1      22.364  47.565  47.150  1.00  0.00    -0.273 OA
BRANCH  14  17
HETATM   17  C   UNL     1      21.994  49.415  49.209  1.00  0.00     0.161 C 
BRANCH  17  18
HETATM   18  C   UNL     1      20.772  50.301  49.263  1.00  0.00    -0.041 A 
HETATM   19  C   UNL     1      20.630  51.474  48.506  1.00  0.00     0.009 A 
HETATM   20  C   UNL     1      19.462  52.238  48.584  1.00  0.00     0.001 A 
HETATM   21  C   UNL     1      18.412  51.832  49.404  1.00  0.00     0.000 A 
HETATM   22  C   UNL     1      18.528  50.662  50.148  1.00  0.00     0.001 A 
HETATM   23  C   UNL     1      19.698  49.904  50.079  1.00  0.00     0.009 A 
ENDBRANCH  17  18
ENDBRANCH  14  17
ENDBRANCH  12  13
ENDBRANCH  11  12
ENDBRANCH   4  11
BRANCH   8  24
HETATM   24  C   UNL     1      26.456  41.924  49.193  1.00  0.00     0.066 A 
HETATM   25  O   UNL     1      27.453  41.400  49.965  1.00  0.00    -0.326 OA
HETATM   26  C   UNL     1      28.297  40.745  49.128  1.00  0.00     0.142 A 
HETATM   27  C   UNL     1      27.874  40.863  47.825  1.00  0.00     0.027 A 
HETATM   28  C   UNL     1      26.686  41.631  47.863  1.00  0.00     0.035 A 
ENDBRANCH   8  24
BRANCH   9  29
HETATM   29  C   UNL     1      26.628  43.863  51.903  1.00  0.00     0.255 C 
HETATM   30  N   UNL     1      27.996  44.038  51.922  1.00  0.00    -0.322 N 
HETATM   31  H   UNL     1      28.496  43.943  51.045  1.00  0.00     0.169 HD
HETATM   32  O   UNL     1      25.948  43.522  52.867  1.00  0.00    -0.268 OA
BRANCH  30  33
HETATM   33  C   UNL     1      28.780  43.924  53.095  1.00  0.00     0.057 A 
HETATM   34  C   UNL     1      28.629  44.720  54.248  1.00  0.00     0.062 A 
HETATM   35 CL   UNL     1      27.649  46.149  54.287  1.00  0.00    -0.082 Cl
HETATM   36  C   UNL     1      29.415  44.477  55.379  1.00  0.00     0.050 A 
HETATM   37  C   UNL     1      30.366  43.461  55.358  1.00  0.00     0.035 A 
HETATM   38 CL   UNL     1      31.325  43.158  56.753  1.00  0.00    -0.084 Cl
HETATM   39  C   UNL     1      30.565  42.705  54.206  1.00  0.00     0.026 A 
HETATM   40  C   UNL     1      29.786  42.947  53.072  1.00  0.00     0.033 A 
ENDBRANCH  30  33
ENDBRANCH   9  29
TORSDOF 8
ENDMDL
MODEL 3
REMARK VINA RESULT:      -9.8      2.578      4.586
REMARK  8 active torsions:
REMARK  status: ('A' for Active; 'I' for Inactive)
REMARK    1  A    between atoms: C_4  and  S_5 
REMARK    2  A    between atoms: S_5  and  C_6 
REMARK    3  A    between atoms: C_6  and  C_7 
REMARK       I    between atoms: C_7  and  N_8 
REMARK    4  A    between atoms: N_8  and  C_9 
REMARK    5  A    between atoms: C_9  and  C_10 
REMARK    6  A    between atoms: C_20  and  C_21 
REMARK    7  A    between atoms: C_26  and  C_27 
REMARK       I    between atoms: C_27  and  N_28 
REMARK    8  A    between atoms: N_28  and  C_29 
ROOT
HETATM    1  C   UNL     1      25.104  44.794  52.599  1.00  0.00     0.069 C 
HETATM    2  C   UNL     1      25.488  43.886  51.456  1.00  0.00     0.019 C 
HETATM    3  N   UNL     1      26.098  42.687  51.811  1.00  0.00    -0.353 N 
HETATM    4  C   UNL     1      26.847  41.917  50.929  1.00  0.00     0.087 C 
HETATM    5  C   UNL     1      26.688  42.137  49.596  1.00  0.00     0.057 C 
HETATM    6  C   UNL     1      27.542  41.409  48.571  1.00  0.00     0.019 C 
HETATM    7  N   UNL     1      28.250  40.806  47.719  1.00  0.00    -0.096 N 
HETATM    8  C   UNL     1      25.695  43.170  49.077  1.00  0.00     0.129 C 
HETATM    9  C   UNL     1      25.305  44.178  50.148  1.00  0.00     0.048 C 
HETATM   10  H   UNL     1      26.361  42.624  52.789  1.00  0.00     0.166 HD
ENDROOT
BRANCH   4  11
HETATM   11  S   UNL     1      28.023  40.710  51.450  1.00  0.00    -0.102 SA
BRANCH  11  12
HETATM   12  C   UNL     1      28.316  41.083  53.196  1.00  0.00     0.183 C 
BRANCH  12  13
HETATM   13  C   UNL     1      29.096  42.376  53.393  1.00  0.00     0.227 C 
HETATM   14  N   UNL     1      28.545  43.279  54.277  1.00  0.00    -0.356 N 
HETATM   15  H   UNL     1      27.537  43.245  54.380  1.00  0.00     0.162 HD
HETATM   16  O   UNL     1      30.200  42.536  52.877  1.00  0.00    -0.273 OA
BRANCH  14  17
HETATM   17  C   UNL     1      29.204  44.538  54.549  1.00  0.00     0.161 C 
BRANCH  17  18
HETATM   18  C   UNL     1      29.981  44.576  55.844  1.00  0.00    -0.041 A 
HETATM   19  C   UNL     1      30.968  43.638  56.184  1.00  0.00     0.009 A 
HETATM   20  C   UNL     1      31.668  43.744  57.389  1.00  0.00     0.001 A 
HETATM   21  C   UNL     1      31.408  44.797  58.262  1.00  0.00     0.000 A 
HETATM   22  C   UNL     1      30.445  45.746  57.933  1.00  0.00     0.001 A 
HETATM   23  C   UNL     1      29.738  45.637  56.734  1.00  0.00     0.009 A 
ENDBRANCH  17  18
ENDBRANCH  14  17
ENDBRANCH  12  13
ENDBRANCH  11  12
ENDBRANCH   4  11
BRANCH   8  24
HETATM   24  C   UNL     1      24.484  42.514  48.461  1.00  0.00     0.066 A 
HETATM   25  O   UNL     1      23.766  43.270  47.578  1.00  0.00    -0.326 OA
HETATM   26  C   UNL     1      22.721  42.507  47.166  1.00  0.00     0.142 A 
HETATM   27  C   UNL     1      22.740  41.282  47.790  1.00  0.00     0.027 A 
HETATM   28  C   UNL     1      23.876  41.285  48.633  1.00  0.00     0.035 A 
ENDBRANCH   8  24
BRANCH   9  29
HETATM   29  C   UNL     1      24.923  45.563  49.744  1.00  0.00     0.255 C 
HETATM   30  N   UNL     1      23.583  45.760  49.486  1.00  0.00    -0.322 N 
HETATM   31  H   UNL     1      23.011  44.942  49.308  1.00  0.00     0.169 HD
HETATM   32  O   UNL     1      25.807  46.395  49.557  1.00  0.00    -0.268 OA
BRANCH  30  33
HETATM   33  C   UNL     1      23.048  46.995  49.046  1.00  0.00     0.057 A 
HETATM   34  C   UNL     1      22.092  47.141  48.022  1.00  0.00     0.062 A 
HETATM   35 CL   UNL     1      21.645  45.850  46.955  1.00  0.00    -0.082 Cl
HETATM   36  C   UNL     1      21.580  48.406  47.712  1.00  0.00     0.050 A 
HETATM   37  C   UNL     1      22.035  49.526  48.401  1.00  0.00     0.035 A 
HETATM   38 CL   UNL     1      21.399  51.078  48.024  1.00  0.00    -0.084 Cl
HETATM   39  C   UNL     1      23.022  49.403  49.376  1.00  0.00     0.026 A 
HETATM   40  C   UNL     1      23.539  48.142  49.686  1.00  0.00     0.033 A 
ENDBRANCH  30  33
ENDBRANCH   9  29
TORSDOF 8
ENDMDL
MODEL 4
REMARK VINA RESULT:      -9.4      4.169     10.300
REMARK  8 active torsions:
REMARK  status: ('A' for Active; 'I' for Inactive)
REMARK    1  A    between atoms: C_4  and  S_5 
REMARK    2  A    between atoms: S_5  and  C_6 
REMARK    3  A    between atoms: C_6  and  C_7 
REMARK       I    between atoms: C_7  and  N_8 
REMARK    4  A    between atoms: N_8  and  C_9 
REMARK    5  A    between atoms: C_9  and  C_10 
REMARK    6  A    between atoms: C_20  and  C_21 
REMARK    7  A    between atoms: C_26  and  C_27 
REMARK       I    between atoms: C_27  and  N_28 
REMARK    8  A    between atoms: N_28  and  C_29 
ROOT
HETATM    1  C   UNL     1      22.660  44.116  49.659  1.00  0.00     0.069 C 
HETATM    2  C   UNL     1      23.708  45.175  49.898  1.00  0.00     0.019 C 
HETATM    3  N   UNL     1      23.334  46.480  49.595  1.00  0.00    -0.353 N 
HETATM    4  C   UNL     1      24.244  47.510  49.389  1.00  0.00     0.087 C 
HETATM    5  C   UNL     1      25.515  47.340  49.845  1.00  0.00     0.057 C 
HETATM    6  C   UNL     1      26.595  48.374  49.570  1.00  0.00     0.019 C 
HETATM    7  N   UNL     1      27.491  49.231  49.342  1.00  0.00    -0.096 N 
HETATM    8  C   UNL     1      25.926  46.077  50.593  1.00  0.00     0.129 C 
HETATM    9  C   UNL     1      24.960  44.927  50.349  1.00  0.00     0.048 C 
HETATM   10  H   UNL     1      22.454  46.559  49.098  1.00  0.00     0.166 HD
ENDROOT
BRANCH   4  11
HETATM   11  S   UNL     1      23.850  48.995  48.525  1.00  0.00    -0.102 SA
BRANCH  11  12
HETATM   12  C   UNL     1      22.595  49.800  49.550  1.00  0.00     0.183 C 
BRANCH  12  13
HETATM   13  C   UNL     1      21.181  49.357  49.196  1.00  0.00     0.227 C 
HETATM   14  N   UNL     1      20.222  49.588  50.158  1.00  0.00    -0.356 N 
HETATM   15  H   UNL     1      20.549  49.608  51.118  1.00  0.00     0.162 HD
HETATM   16  O   UNL     1      20.912  48.929  48.075  1.00  0.00    -0.273 OA
BRANCH  14  17
HETATM   17  C   UNL     1      18.844  49.215  49.928  1.00  0.00     0.161 C 
BRANCH  17  18
HETATM   18  C   UNL     1      17.932  50.365  49.566  1.00  0.00    -0.041 A 
HETATM   19  C   UNL     1      18.177  51.695  49.940  1.00  0.00     0.009 A 
HETATM   20  C   UNL     1      17.306  52.717  49.552  1.00  0.00     0.001 A 
HETATM   21  C   UNL     1      16.191  52.430  48.769  1.00  0.00     0.000 A 
HETATM   22  C   UNL     1      15.943  51.119  48.373  1.00  0.00     0.001 A 
HETATM   23  C   UNL     1      16.806  50.096  48.768  1.00  0.00     0.009 A 
ENDBRANCH  17  18
ENDBRANCH  14  17
ENDBRANCH  12  13
ENDBRANCH  11  12
ENDBRANCH   4  11
BRANCH   8  24
HETATM   24  C   UNL     1      26.116  46.342  52.065  1.00  0.00     0.066 A 
HETATM   25  O   UNL     1      25.515  47.463  52.563  1.00  0.00    -0.326 OA
HETATM   26  C   UNL     1      25.827  47.524  53.884  1.00  0.00     0.142 A 
HETATM   27  C   UNL     1      26.643  46.475  54.236  1.00  0.00     0.027 A 
HETATM   28  C   UNL     1      26.837  45.712  53.061  1.00  0.00     0.035 A 
ENDBRANCH   8  24
BRANCH   9  29
HETATM   29  C   UNL     1      25.465  43.524  50.402  1.00  0.00     0.255 C 
HETATM   30  N   UNL     1      26.543  43.249  49.588  1.00  0.00    -0.322 N 
HETATM   31  H   UNL     1      26.736  43.891  48.827  1.00  0.00     0.169 HD
HETATM   32  O   UNL     1      24.845  42.691  51.056  1.00  0.00    -0.268 OA
BRANCH  30  33
HETATM   33  C   UNL     1      27.124  41.963  49.473  1.00  0.00     0.057 A 
HETATM   34  C   UNL     1      27.889  41.330  50.473  1.00  0.00     0.062 A 
HETATM   35 CL   UNL     1      28.470  42.156  51.882  1.00  0.00    -0.082 Cl
HETATM   36  C   UNL     1      28.361  40.028  50.280  1.00  0.00     0.050 A 
HETATM   37  C   UNL     1      28.095  39.363  49.087  1.00  0.00     0.035 A 
HETATM   38 CL   UNL     1      28.669  37.759  48.855  1.00  0.00    -0.084 Cl
HETATM   39  C   UNL     1      27.390  39.998  48.067  1.00  0.00     0.026 A 
HETATM   40  C   UNL     1      26.921  41.301  48.254  1.00  0.00     0.033 A 
ENDBRANCH  30  33
ENDBRANCH   9  29
TORSDOF 8
ENDMDL
MODEL 5
REMARK VINA RESULT:      -9.0      1.729      2.034
REMARK  8 active torsions:
REMARK  status: ('A' for Active; 'I' for Inactive)
REMARK    1  A    between atoms: C_4  and  S_5 
REMARK    2  A    between atoms: S_5  and  C_6 
REMARK    3  A    between atoms: C_6  and  C_7 
REMARK       I    between atoms: C_7  and  N_8 
REMARK    4  A    between atoms: N_8  and  C_9 
REMARK    5  A    between atoms: C_9  and  C_10 
REMARK    6  A    between atoms: C_20  and  C_21 
REMARK    7  A    between atoms: C_26  and  C_27 
REMARK       I    between atoms: C_27  and  N_28 
REMARK    8  A    between atoms: N_28  and  C_29 
ROOT
HETATM    1  C   UNL     1      21.815  45.325  47.151  1.00  0.00     0.069 C 
HETATM    2  C   UNL     1      22.817  45.977  48.073  1.00  0.00     0.019 C 
HETATM    3  N   UNL     1      23.986  45.259  48.304  1.00  0.00    -0.353 N 
HETATM    4  C   UNL     1      24.831  45.498  49.382  1.00  0.00     0.087 C 
HETATM    5  C   UNL     1      24.720  46.690  50.028  1.00  0.00     0.057 C 
HETATM    6  C   UNL     1      25.536  46.988  51.275  1.00  0.00     0.019 C 
HETATM    7  N   UNL     1      26.212  47.236  52.311  1.00  0.00    -0.096 N 
HETATM    8  C   UNL     1      23.728  47.752  49.568  1.00  0.00     0.129 C 
HETATM    9  C   UNL     1      22.632  47.168  48.688  1.00  0.00     0.048 C 
HETATM   10  H   UNL     1      23.969  44.307  47.956  1.00  0.00     0.166 HD
ENDROOT
BRANCH   4  11
HETATM   11  S   UNL     1      25.997  44.319  49.980  1.00  0.00    -0.102 SA
BRANCH  11  12
HETATM   12  C   UNL     1      25.056  43.287  51.129  1.00  0.00     0.183 C 
BRANCH  12  13
HETATM   13  C   UNL     1      25.225  43.723  52.578  1.00  0.00     0.227 C 
HETATM   14  N   UNL     1      26.392  43.323  53.192  1.00  0.00    -0.356 N 
HETATM   15  H   UNL     1      26.811  42.469  52.842  1.00  0.00     0.162 HD
HETATM   16  O   UNL     1      24.416  44.479  53.112  1.00  0.00    -0.273 OA
BRANCH  14  17
HETATM   17  C   UNL     1      26.664  43.687  54.566  1.00  0.00     0.161 C 
BRANCH  17  18
HETATM   18  C   UNL     1      28.117  43.971  54.867  1.00  0.00    -0.041 A 
HETATM   19  C   UNL     1      28.564  45.142  55.498  1.00  0.00     0.009 A 
HETATM   20  C   UNL     1      29.921  45.334  55.770  1.00  0.00     0.001 A 
HETATM   21  C   UNL     1      30.849  44.352  55.435  1.00  0.00     0.000 A 
HETATM   22  C   UNL     1      30.422  43.176  54.826  1.00  0.00     0.001 A 
HETATM   23  C   UNL     1      29.068  42.987  54.544  1.00  0.00     0.009 A 
ENDBRANCH  17  18
ENDBRANCH  14  17
ENDBRANCH  12  13
ENDBRANCH  11  12
ENDBRANCH   4  11
BRANCH   8  24
HETATM   24  C   UNL     1      24.425  48.909  48.896  1.00  0.00     0.066 A 
HETATM   25  O   UNL     1      23.644  49.978  48.562  1.00  0.00    -0.326 OA
HETATM   26  C   UNL     1      24.454  50.885  47.958  1.00  0.00     0.142 A 
HETATM   27  C   UNL     1      25.739  50.404  47.873  1.00  0.00     0.027 A 
HETATM   28  C   UNL     1      25.723  49.123  48.474  1.00  0.00     0.035 A 
ENDBRANCH   8  24
BRANCH   9  29
HETATM   29  C   UNL     1      21.283  47.805  48.680  1.00  0.00     0.255 C 
HETATM   30  N   UNL     1      21.144  48.893  47.845  1.00  0.00    -0.322 N 
HETATM   31  H   UNL     1      21.988  49.354  47.525  1.00  0.00     0.169 HD
HETATM   32  O   UNL     1      20.433  47.413  49.475  1.00  0.00    -0.268 OA
BRANCH  30  33
HETATM   33  C   UNL     1      19.951  49.650  47.744  1.00  0.00     0.057 A 
HETATM   34  C   UNL     1      18.774  49.220  47.101  1.00  0.00     0.062 A 
HETATM   35 CL   UNL     1      18.710  47.814  46.089  1.00  0.00    -0.082 Cl
HETATM   36  C   UNL     1      17.628  50.023  47.119  1.00  0.00     0.050 A 
HETATM   37  C   UNL     1      17.659  51.261  47.753  1.00  0.00     0.035 A 
HETATM   38 CL   UNL     1      16.248  52.243  47.781  1.00  0.00    -0.084 Cl
HETATM   39  C   UNL     1      18.833  51.723  48.342  1.00  0.00     0.026 A 
HETATM   40  C   UNL     1      19.981  50.927  48.323  1.00  0.00     0.033 A 
ENDBRANCH  30  33
ENDBRANCH   9  29
TORSDOF 8
ENDMDL
MODEL 6
REMARK VINA RESULT:      -8.7      3.134      5.792
REMARK  8 active torsions:
REMARK  status: ('A' for Active; 'I' for Inactive)
REMARK    1  A    between atoms: C_4  and  S_5 
REMARK    2  A    between atoms: S_5  and  C_6 
REMARK    3  A    between atoms: C_6  and  C_7 
REMARK       I    between atoms: C_7  and  N_8 
REMARK    4  A    between atoms: N_8  and  C_9 
REMARK    5  A    between atoms: C_9  and  C_10 
REMARK    6  A    between atoms: C_20  and  C_21 
REMARK    7  A    between atoms: C_26  and  C_27 
REMARK       I    between atoms: C_27  and  N_28 
REMARK    8  A    between atoms: N_28  and  C_29 
ROOT
HETATM    1  C   UNL     1      22.152  45.410  47.420  1.00  0.00     0.069 C 
HETATM    2  C   UNL     1      23.114  45.954  48.449  1.00  0.00     0.019 C 
HETATM    3  N   UNL     1      24.032  45.044  48.962  1.00  0.00    -0.353 N 
HETATM    4  C   UNL     1      24.723  45.242  50.152  1.00  0.00     0.087 C 
HETATM    5  C   UNL     1      24.787  46.506  50.651  1.00  0.00     0.057 C 
HETATM    6  C   UNL     1      25.436  46.790  51.996  1.00  0.00     0.019 C 
HETATM    7  N   UNL     1      25.974  47.026  53.112  1.00  0.00    -0.096 N 
HETATM    8  C   UNL     1      24.154  47.681  49.915  1.00  0.00     0.129 C 
HETATM    9  C   UNL     1      23.112  47.228  48.903  1.00  0.00     0.048 C 
HETATM   10  H   UNL     1      23.853  44.079  48.708  1.00  0.00     0.166 HD
ENDROOT
BRANCH   4  11
HETATM   11  S   UNL     1      25.473  43.935  51.068  1.00  0.00    -0.102 SA
BRANCH  11  12
HETATM   12  C   UNL     1      24.371  42.520  50.831  1.00  0.00     0.183 C 
BRANCH  12  13
HETATM   13  C   UNL     1      24.557  41.857  49.474  1.00  0.00     0.227 C 
HETATM   14  N   UNL     1      23.399  41.533  48.801  1.00  0.00    -0.356 N 
HETATM   15  H   UNL     1      22.585  41.348  49.376  1.00  0.00     0.162 HD
HETATM   16  O   UNL     1      25.674  41.730  48.977  1.00  0.00    -0.273 OA
BRANCH  14  17
HETATM   17  C   UNL     1      23.455  40.906  47.498  1.00  0.00     0.161 C 
BRANCH  17  18
HETATM   18  C   UNL     1      22.814  41.704  46.386  1.00  0.00    -0.041 A 
HETATM   19  C   UNL     1      21.427  41.791  46.194  1.00  0.00     0.009 A 
HETATM   20  C   UNL     1      20.897  42.566  45.159  1.00  0.00     0.001 A 
HETATM   21  C   UNL     1      21.742  43.282  44.315  1.00  0.00     0.000 A 
HETATM   22  C   UNL     1      23.119  43.223  44.503  1.00  0.00     0.001 A 
HETATM   23  C   UNL     1      23.651  42.441  45.529  1.00  0.00     0.009 A 
ENDBRANCH  17  18
ENDBRANCH  14  17
ENDBRANCH  12  13
ENDBRANCH  11  12
ENDBRANCH   4  11
BRANCH   8  24
HETATM   24  C   UNL     1      25.199  48.565  49.280  1.00  0.00     0.066 A 
HETATM   25  O   UNL     1      26.502  48.215  49.493  1.00  0.00    -0.326 OA
HETATM   26  C   UNL     1      27.268  49.142  48.862  1.00  0.00     0.142 A 
HETATM   27  C   UNL     1      26.478  50.099  48.270  1.00  0.00     0.027 A 
HETATM   28  C   UNL     1      25.139  49.732  48.544  1.00  0.00     0.035 A 
ENDBRANCH   8  24
BRANCH   9  29
HETATM   29  C   UNL     1      21.966  48.129  48.582  1.00  0.00     0.255 C 
HETATM   30  N   UNL     1      20.915  48.095  49.475  1.00  0.00    -0.322 N 
HETATM   31  H   UNL     1      20.850  47.299  50.098  1.00  0.00     0.169 HD
HETATM   32  O   UNL     1      21.968  48.743  47.519  1.00  0.00    -0.268 OA
BRANCH  30  33
HETATM   33  C   UNL     1      19.726  48.846  49.306  1.00  0.00     0.057 A 
HETATM   34  C   UNL     1      19.598  50.225  49.564  1.00  0.00     0.062 A 
HETATM   35 CL   UNL     1      20.806  51.145  50.400  1.00  0.00    -0.082 Cl
HETATM   36  C   UNL     1      18.392  50.882  49.298  1.00  0.00     0.050 A 
HETATM   37  C   UNL     1      17.307  50.167  48.801  1.00  0.00     0.035 A 
HETATM   38 CL   UNL     1      15.828  50.978  48.468  1.00  0.00    -0.084 Cl
HETATM   39  C   UNL     1      17.402  48.792  48.597  1.00  0.00     0.026 A 
HETATM   40  C   UNL     1      18.603  48.131  48.865  1.00  0.00     0.033 A 
ENDBRANCH  30  33
ENDBRANCH   9  29
TORSDOF 8
ENDMDL
MODEL 7
REMARK VINA RESULT:      -8.7      3.938     10.168
REMARK  8 active torsions:
REMARK  status: ('A' for Active; 'I' for Inactive)
REMARK    1  A    between atoms: C_4  and  S_5 
REMARK    2  A    between atoms: S_5  and  C_6 
REMARK    3  A    between atoms: C_6  and  C_7 
REMARK       I    between atoms: C_7  and  N_8 
REMARK    4  A    between atoms: N_8  and  C_9 
REMARK    5  A    between atoms: C_9  and  C_10 
REMARK    6  A    between atoms: C_20  and  C_21 
REMARK    7  A    between atoms: C_26  and  C_27 
REMARK       I    between atoms: C_27  and  N_28 
REMARK    8  A    between atoms: N_28  and  C_29 
ROOT
HETATM    1  C   UNL     1      22.795  43.186  49.787  1.00  0.00     0.069 C 
HETATM    2  C   UNL     1      23.856  44.238  50.008  1.00  0.00     0.019 C 
HETATM    3  N   UNL     1      23.417  45.557  49.985  1.00  0.00    -0.353 N 
HETATM    4  C   UNL     1      24.263  46.643  49.791  1.00  0.00     0.087 C 
HETATM    5  C   UNL     1      25.596  46.457  49.988  1.00  0.00     0.057 C 
HETATM    6  C   UNL     1      26.596  47.564  49.700  1.00  0.00     0.019 C 
HETATM    7  N   UNL     1      27.427  48.483  49.460  1.00  0.00    -0.096 N 
HETATM    8  C   UNL     1      26.149  45.112  50.444  1.00  0.00     0.129 C 
HETATM    9  C   UNL     1      25.170  43.975  50.191  1.00  0.00     0.048 C 
HETATM   10  H   UNL     1      22.462  45.676  49.665  1.00  0.00     0.166 HD
ENDROOT
BRANCH   4  11
HETATM   11  S   UNL     1      23.702  48.227  49.255  1.00  0.00    -0.102 SA
BRANCH  11  12
HETATM   12  C   UNL     1      22.454  47.868  47.996  1.00  0.00     0.183 C 
BRANCH  12  13
HETATM   13  C   UNL     1      21.156  47.343  48.595  1.00  0.00     0.227 C 
HETATM   14  N   UNL     1      20.369  48.276  49.233  1.00  0.00    -0.356 N 
HETATM   15  H   UNL     1      20.854  49.072  49.632  1.00  0.00     0.162 HD
HETATM   16  O   UNL     1      20.797  46.181  48.410  1.00  0.00    -0.273 OA
BRANCH  14  17
HETATM   17  C   UNL     1      19.109  47.891  49.832  1.00  0.00     0.161 C 
BRANCH  17  18
HETATM   18  C   UNL     1      17.886  48.426  49.124  1.00  0.00    -0.041 A 
HETATM   19  C   UNL     1      16.810  47.620  48.720  1.00  0.00     0.009 A 
HETATM   20  C   UNL     1      15.696  48.180  48.090  1.00  0.00     0.001 A 
HETATM   21  C   UNL     1      15.629  49.554  47.873  1.00  0.00     0.000 A 
HETATM   22  C   UNL     1      16.678  50.371  48.285  1.00  0.00     0.001 A 
HETATM   23  C   UNL     1      17.796  49.811  48.905  1.00  0.00     0.009 A 
ENDBRANCH  17  18
ENDBRANCH  14  17
ENDBRANCH  12  13
ENDBRANCH  11  12
ENDBRANCH   4  11
BRANCH   8  24
HETATM   24  C   UNL     1      26.593  45.155  51.885  1.00  0.00     0.066 A 
HETATM   25  O   UNL     1      26.007  46.105  52.673  1.00  0.00    -0.326 OA
HETATM   26  C   UNL     1      26.558  45.986  53.909  1.00  0.00     0.142 A 
HETATM   27  C   UNL     1      27.508  44.992  53.921  1.00  0.00     0.027 A 
HETATM   28  C   UNL     1      27.538  44.457  52.612  1.00  0.00     0.035 A 
ENDBRANCH   8  24
BRANCH   9  29
HETATM   29  C   UNL     1      25.695  42.602  49.932  1.00  0.00     0.255 C 
HETATM   30  N   UNL     1      26.196  42.386  48.666  1.00  0.00    -0.322 N 
HETATM   31  H   UNL     1      25.928  43.035  47.935  1.00  0.00     0.169 HD
HETATM   32  O   UNL     1      25.554  41.737  50.792  1.00  0.00    -0.268 OA
BRANCH  30  33
HETATM   33  C   UNL     1      26.692  41.133  48.228  1.00  0.00     0.057 A 
HETATM   34  C   UNL     1      25.958  40.191  47.482  1.00  0.00     0.062 A 
HETATM   35 CL   UNL     1      24.246  40.306  47.236  1.00  0.00    -0.082 Cl
HETATM   36  C   UNL     1      26.568  39.011  47.043  1.00  0.00     0.050 A 
HETATM   37  C   UNL     1      27.898  38.756  47.366  1.00  0.00     0.035 A 
HETATM   38 CL   UNL     1      28.649  37.309  46.819  1.00  0.00    -0.084 Cl
HETATM   39  C   UNL     1      28.617  39.652  48.153  1.00  0.00     0.026 A 
HETATM   40  C   UNL     1      28.010  40.830  48.597  1.00  0.00     0.033 A 
ENDBRANCH  30  33
ENDBRANCH   9  29
TORSDOF 8
ENDMDL
MODEL 8
REMARK VINA RESULT:      -8.5     10.768     13.835
REMARK  8 active torsions:
REMARK  status: ('A' for Active; 'I' for Inactive)
REMARK    1  A    between atoms: C_4  and  S_5 
REMARK    2  A    between atoms: S_5  and  C_6 
REMARK    3  A    between atoms: C_6  and  C_7 
REMARK       I    between atoms: C_7  and  N_8 
REMARK    4  A    between atoms: N_8  and  C_9 
REMARK    5  A    between atoms: C_9  and  C_10 
REMARK    6  A    between atoms: C_20  and  C_21 
REMARK    7  A    between atoms: C_26  and  C_27 
REMARK       I    between atoms: C_27  and  N_28 
REMARK    8  A    between atoms: N_28  and  C_29 
ROOT
HETATM    1  C   UNL     1      28.513  46.511  37.286  1.00  0.00     0.069 C 
HETATM    2  C   UNL     1      27.545  46.181  38.397  1.00  0.00     0.019 C 
HETATM    3  N   UNL     1      26.241  45.901  38.002  1.00  0.00    -0.353 N 
HETATM    4  C   UNL     1      25.152  45.950  38.865  1.00  0.00     0.087 C 
HETATM    5  C   UNL     1      25.396  45.914  40.203  1.00  0.00     0.057 C 
HETATM    6  C   UNL     1      24.269  46.065  41.212  1.00  0.00     0.019 C 
HETATM    7  N   UNL     1      23.335  46.191  42.051  1.00  0.00    -0.096 N 
HETATM    8  C   UNL     1      26.814  45.787  40.747  1.00  0.00     0.129 C 
HETATM    9  C   UNL     1      27.861  46.173  39.712  1.00  0.00     0.048 C 
HETATM   10  H   UNL     1      26.045  46.104  37.028  1.00  0.00     0.166 HD
ENDROOT
BRANCH   4  11
HETATM   11  S   UNL     1      23.484  46.107  38.315  1.00  0.00    -0.102 SA
BRANCH  11  12
HETATM   12  C   UNL     1      23.277  47.873  37.980  1.00  0.00     0.183 C 
BRANCH  12  13
HETATM   13  C   UNL     1      24.520  48.499  37.362  1.00  0.00     0.227 C 
HETATM   14  N   UNL     1      25.275  49.288  38.202  1.00  0.00    -0.356 N 
HETATM   15  H   UNL     1      24.776  49.738  38.961  1.00  0.00     0.162 HD
HETATM   16  O   UNL     1      24.872  48.214  36.219  1.00  0.00    -0.273 OA
BRANCH  14  17
HETATM   17  C   UNL     1      26.482  49.927  37.724  1.00  0.00     0.161 C 
BRANCH  17  18
HETATM   18  C   UNL     1      27.215  50.746  38.761  1.00  0.00    -0.041 A 
HETATM   19  C   UNL     1      28.106  51.783  38.443  1.00  0.00     0.009 A 
HETATM   20  C   UNL     1      28.734  52.518  39.451  1.00  0.00     0.001 A 
HETATM   21  C   UNL     1      28.468  52.244  40.791  1.00  0.00     0.000 A 
HETATM   22  C   UNL     1      27.573  51.231  41.124  1.00  0.00     0.001 A 
HETATM   23  C   UNL     1      26.953  50.489  40.118  1.00  0.00     0.009 A 
ENDBRANCH  17  18
ENDBRANCH  14  17
ENDBRANCH  12  13
ENDBRANCH  11  12
ENDBRANCH   4  11
BRANCH   8  24
HETATM   24  C   UNL     1      27.069  44.412  41.312  1.00  0.00     0.066 A 
HETATM   25  O   UNL     1      27.970  43.636  40.640  1.00  0.00    -0.326 OA
HETATM   26  C   UNL     1      28.034  42.448  41.294  1.00  0.00     0.142 A 
HETATM   27  C   UNL     1      27.167  42.438  42.362  1.00  0.00     0.027 A 
HETATM   28  C   UNL     1      26.537  43.705  42.373  1.00  0.00     0.035 A 
ENDBRANCH   8  24
BRANCH   9  29
HETATM   29  C   UNL     1      29.161  46.746  40.167  1.00  0.00     0.255 C 
HETATM   30  N   UNL     1      29.102  48.026  40.675  1.00  0.00    -0.322 N 
HETATM   31  H   UNL     1      28.286  48.585  40.455  1.00  0.00     0.169 HD
HETATM   32  O   UNL     1      30.195  46.114  39.965  1.00  0.00    -0.268 OA
BRANCH  30  33
HETATM   33  C   UNL     1      30.243  48.744  41.110  1.00  0.00     0.057 A 
HETATM   34  C   UNL     1      31.057  49.543  40.283  1.00  0.00     0.062 A 
HETATM   35 CL   UNL     1      30.946  49.532  38.554  1.00  0.00    -0.082 Cl
HETATM   36  C   UNL     1      32.122  50.266  40.831  1.00  0.00     0.050 A 
HETATM   37  C   UNL     1      32.394  50.175  42.193  1.00  0.00     0.035 A 
HETATM   38 CL   UNL     1      33.700  51.069  42.866  1.00  0.00    -0.084 Cl
HETATM   39  C   UNL     1      31.634  49.344  43.011  1.00  0.00     0.026 A 
HETATM   40  C   UNL     1      30.571  48.617  42.467  1.00  0.00     0.033 A 
ENDBRANCH  30  33
ENDBRANCH   9  29
TORSDOF 8
ENDMDL
MODEL 9
REMARK VINA RESULT:      -8.4      5.137      9.136
REMARK  8 active torsions:
REMARK  status: ('A' for Active; 'I' for Inactive)
REMARK    1  A    between atoms: C_4  and  S_5 
REMARK    2  A    between atoms: S_5  and  C_6 
REMARK    3  A    between atoms: C_6  and  C_7 
REMARK       I    between atoms: C_7  and  N_8 
REMARK    4  A    between atoms: N_8  and  C_9 
REMARK    5  A    between atoms: C_9  and  C_10 
REMARK    6  A    between atoms: C_20  and  C_21 
REMARK    7  A    between atoms: C_26  and  C_27 
REMARK       I    between atoms: C_27  and  N_28 
REMARK    8  A    between atoms: N_28  and  C_29 
ROOT
HETATM    1  C   UNL     1      28.074  41.121  53.212  1.00  0.00     0.069 C 
HETATM    2  C   UNL     1      27.772  41.139  51.733  1.00  0.00     0.019 C 
HETATM    3  N   UNL     1      27.902  39.921  51.072  1.00  0.00    -0.353 N 
HETATM    4  C   UNL     1      28.039  39.808  49.693  1.00  0.00     0.087 C 
HETATM    5  C   UNL     1      27.678  40.872  48.926  1.00  0.00     0.057 C 
HETATM    6  C   UNL     1      27.891  40.867  47.421  1.00  0.00     0.019 C 
HETATM    7  N   UNL     1      28.068  40.864  46.173  1.00  0.00    -0.096 N 
HETATM    8  C   UNL     1      27.104  42.140  49.550  1.00  0.00     0.129 C 
HETATM    9  C   UNL     1      27.424  42.243  51.034  1.00  0.00     0.048 C 
HETATM   10  H   UNL     1      28.337  39.190  51.622  1.00  0.00     0.166 HD
ENDROOT
BRANCH   4  11
HETATM   11  S   UNL     1      28.703  38.382  48.897  1.00  0.00    -0.102 SA
BRANCH  11  12
HETATM   12  C   UNL     1      27.304  37.244  48.757  1.00  0.00     0.183 C 
BRANCH  12  13
HETATM   13  C   UNL     1      26.517  37.443  47.469  1.00  0.00     0.227 C 
HETATM   14  N   UNL     1      25.388  38.226  47.571  1.00  0.00    -0.356 N 
HETATM   15  H   UNL     1      24.936  38.242  48.478  1.00  0.00     0.162 HD
HETATM   16  O   UNL     1      26.940  37.018  46.396  1.00  0.00    -0.273 OA
BRANCH  14  17
HETATM   17  C   UNL     1      24.568  38.490  46.409  1.00  0.00     0.161 C 
BRANCH  17  18
HETATM   18  C   UNL     1      23.088  38.264  46.618  1.00  0.00    -0.041 A 
HETATM   19  C   UNL     1      22.495  36.993  46.655  1.00  0.00     0.009 A 
HETATM   20  C   UNL     1      21.123  36.851  46.876  1.00  0.00     0.001 A 
HETATM   21  C   UNL     1      20.326  37.974  47.083  1.00  0.00     0.000 A 
HETATM   22  C   UNL     1      20.900  39.242  47.068  1.00  0.00     0.001 A 
HETATM   23  C   UNL     1      22.269  39.385  46.838  1.00  0.00     0.009 A 
ENDBRANCH  17  18
ENDBRANCH  14  17
ENDBRANCH  12  13
ENDBRANCH  11  12
ENDBRANCH   4  11
BRANCH   8  24
HETATM   24  C   UNL     1      25.623  42.264  49.289  1.00  0.00     0.066 A 
HETATM   25  O   UNL     1      25.125  43.533  49.210  1.00  0.00    -0.326 OA
HETATM   26  C   UNL     1      23.788  43.419  48.996  1.00  0.00     0.142 A 
HETATM   27  C   UNL     1      23.416  42.096  48.963  1.00  0.00     0.027 A 
HETATM   28  C   UNL     1      24.599  41.346  49.158  1.00  0.00     0.035 A 
ENDBRANCH   8  24
BRANCH   9  29
HETATM   29  C   UNL     1      27.561  43.591  51.659  1.00  0.00     0.255 C 
HETATM   30  N   UNL     1      26.651  43.880  52.654  1.00  0.00    -0.322 N 
HETATM   31  H   UNL     1      25.808  43.319  52.701  1.00  0.00     0.169 HD
HETATM   32  O   UNL     1      28.373  44.385  51.194  1.00  0.00    -0.268 OA
BRANCH  30  33
HETATM   33  C   UNL     1      26.601  45.126  53.325  1.00  0.00     0.057 A 
HETATM   34  C   UNL     1      25.791  46.215  52.946  1.00  0.00     0.062 A 
HETATM   35 CL   UNL     1      24.951  46.286  51.431  1.00  0.00    -0.082 Cl
HETATM   36  C   UNL     1      25.769  47.379  53.721  1.00  0.00     0.050 A 
HETATM   37  C   UNL     1      26.568  47.472  54.857  1.00  0.00     0.035 A 
HETATM   38 CL   UNL     1      26.533  48.901  55.813  1.00  0.00    -0.084 Cl
HETATM   39  C   UNL     1      27.416  46.426  55.210  1.00  0.00     0.026 A 
HETATM   40  C   UNL     1      27.445  45.262  54.436  1.00  0.00     0.033 A 
ENDBRANCH  30  33
ENDBRANCH   9  29
TORSDOF 8
ENDMDL
MODEL 10
REMARK VINA RESULT:      -8.4     11.145     14.914
REMARK  8 active torsions:
REMARK  status: ('A' for Active; 'I' for Inactive)
REMARK    1  A    between atoms: C_4  and  S_5 
REMARK    2  A    between atoms: S_5  and  C_6 
REMARK    3  A    between atoms: C_6  and  C_7 
REMARK       I    between atoms: C_7  and  N_8 
REMARK    4  A    between atoms: N_8  and  C_9 
REMARK    5  A    between atoms: C_9  and  C_10 
REMARK    6  A    between atoms: C_20  and  C_21 
REMARK    7  A    between atoms: C_26  and  C_27 
REMARK       I    between atoms: C_27  and  N_28 
REMARK    8  A    between atoms: N_28  and  C_29 
ROOT
HETATM    1  C   UNL     1      28.043  52.163  38.220  1.00  0.00     0.069 C 
HETATM    2  C   UNL     1      27.423  50.872  38.696  1.00  0.00     0.019 C 
HETATM    3  N   UNL     1      26.198  50.540  38.127  1.00  0.00    -0.353 N 
HETATM    4  C   UNL     1      25.314  49.626  38.689  1.00  0.00     0.087 C 
HETATM    5  C   UNL     1      25.797  48.761  39.620  1.00  0.00     0.057 C 
HETATM    6  C   UNL     1      24.876  47.800  40.355  1.00  0.00     0.019 C 
HETATM    7  N   UNL     1      24.113  47.003  40.965  1.00  0.00    -0.096 N 
HETATM    8  C   UNL     1      27.269  48.761  40.015  1.00  0.00     0.129 C 
HETATM    9  C   UNL     1      27.962  50.063  39.637  1.00  0.00     0.048 C 
HETATM   10  H   UNL     1      25.779  51.279  37.572  1.00  0.00     0.166 HD
ENDROOT
BRANCH   4  11
HETATM   11  S   UNL     1      23.596  49.568  38.294  1.00  0.00    -0.102 SA
BRANCH  11  12
HETATM   12  C   UNL     1      22.809  50.640  39.520  1.00  0.00     0.183 C 
BRANCH  12  13
HETATM   13  C   UNL     1      21.329  50.861  39.237  1.00  0.00     0.227 C 
HETATM   14  N   UNL     1      20.574  51.300  40.302  1.00  0.00    -0.356 N 
HETATM   15  H   UNL     1      20.905  51.036  41.223  1.00  0.00     0.162 HD
HETATM   16  O   UNL     1      20.879  50.758  38.097  1.00  0.00    -0.273 OA
BRANCH  14  17
HETATM   17  C   UNL     1      19.157  51.552  40.147  1.00  0.00     0.161 C 
BRANCH  17  18
HETATM   18  C   UNL     1      18.455  52.003  41.406  1.00  0.00    -0.041 A 
HETATM   19  C   UNL     1      17.801  53.238  41.529  1.00  0.00     0.009 A 
HETATM   20  C   UNL     1      17.149  53.586  42.714  1.00  0.00     0.001 A 
HETATM   21  C   UNL     1      17.123  52.699  43.788  1.00  0.00     0.000 A 
HETATM   22  C   UNL     1      17.750  51.462  43.677  1.00  0.00     0.001 A 
HETATM   23  C   UNL     1      18.411  51.117  42.497  1.00  0.00     0.009 A 
ENDBRANCH  17  18
ENDBRANCH  14  17
ENDBRANCH  12  13
ENDBRANCH  11  12
ENDBRANCH   4  11
BRANCH   8  24
HETATM   24  C   UNL     1      27.993  47.562  39.456  1.00  0.00     0.066 A 
HETATM   25  O   UNL     1      27.937  47.395  38.101  1.00  0.00    -0.326 OA
HETATM   26  C   UNL     1      28.625  46.259  37.815  1.00  0.00     0.142 A 
HETATM   27  C   UNL     1      29.100  45.679  38.968  1.00  0.00     0.027 A 
HETATM   28  C   UNL     1      28.688  46.515  40.032  1.00  0.00     0.035 A 
ENDBRANCH   8  24
BRANCH   9  29
HETATM   29  C   UNL     1      29.114  50.542  40.456  1.00  0.00     0.255 C 
HETATM   30  N   UNL     1      30.360  50.144  40.019  1.00  0.00    -0.322 N 
HETATM   31  H   UNL     1      30.409  49.357  39.383  1.00  0.00     0.169 HD
HETATM   32  O   UNL     1      28.893  51.146  41.501  1.00  0.00    -0.268 OA
BRANCH  30  33
HETATM   33  C   UNL     1      31.561  50.464  40.698  1.00  0.00     0.057 A 
HETATM   34  C   UNL     1      32.032  49.815  41.856  1.00  0.00     0.062 A 
HETATM   35 CL   UNL     1      31.064  48.718  42.783  1.00  0.00    -0.082 Cl
HETATM   36  C   UNL     1      33.269  50.167  42.407  1.00  0.00     0.050 A 
HETATM   37  C   UNL     1      34.025  51.180  41.824  1.00  0.00     0.035 A 
HETATM   38 CL   UNL     1      35.548  51.607  42.499  1.00  0.00    -0.084 Cl
HETATM   39  C   UNL     1      33.544  51.870  40.714  1.00  0.00     0.026 A 
HETATM   40  C   UNL     1      32.307  51.524  40.162  1.00  0.00     0.033 A 
ENDBRANCH  30  33
ENDBRANCH   9  29
TORSDOF 8
ENDMDL
