MODEL 1
REMARK VINA RESULT:      -8.6      0.000      0.000
REMARK  8 active torsions:
REMARK  status: ('A' for Active; 'I' for Inactive)
REMARK    1  A    between atoms: C_3  and  C_27 
REMARK       I    between atoms: N_12  and  C_13 
REMARK    2  A    between atoms: C_13  and  C_14 
REMARK    3  A    between atoms: C_14  and  O_15 
REMARK    4  A    between atoms: C_18  and  C_36 
REMARK    5  A    between atoms: O_19  and  C_36 
REMARK    6  A    between atoms: C_20  and  O_21 
REMARK    7  A    between atoms: C_27  and  C_28 
REMARK       I    between atoms: C_28  and  N_29 
REMARK    8  A    between atoms: N_29  and  C_30 
ROOT
HETATM    1  C           1      26.462  44.320  54.871  0.00  0.00     0.016 C 
HETATM    2  C           1      27.736  44.908  54.209  0.00  0.00    -0.030 C 
HETATM    3  C           1      27.647  44.626  52.673  0.00  0.00     0.056 C 
HETATM    4  C           1      28.047  43.202  52.432  0.00  0.00     0.056 A 
HETATM    5  C           1      29.133  42.672  52.991  0.00  0.00     0.012 A 
HETATM    6  S           1      29.275  41.269  52.591  0.00  0.00    -0.055 SA
HETATM    7  C           1      28.071  41.283  51.752  0.00  0.00     0.174 A 
HETATM    8  N           1      27.721  40.154  51.106  0.00  0.00    -0.304 N 
HETATM    9  C           1      26.644  39.906  50.306  0.00  0.00     0.247 C 
HETATM   10  O           1      25.789  40.719  50.061  0.00  0.00    -0.271 OA
HETATM   11  N           1      27.431  42.375  51.712  0.00  0.00    -0.227 NA
HETATM   12  C           1      29.800  45.139  55.912  0.00  0.00     0.008 C 
HETATM   13  C           1      28.848  46.047  56.713  0.00  0.00     0.128 C 
HETATM   14  C           1      27.725  46.434  54.426  0.00  0.00     0.013 C 
HETATM   15  H           1      28.385  39.409  51.257  0.00  0.00     0.171 HD
HETATM   16  C           1      30.892  46.022  55.259  0.00  0.00     0.020 C 
HETATM   17  C           1      29.959  43.515  53.910  0.00  0.00     0.055 C 
HETATM   18  C           1      29.012  44.269  54.877  0.00  0.00     0.012 C 
HETATM   19  C           1      27.841  46.854  55.895  0.00  0.00     0.033 C 
ENDROOT
BRANCH   3  20
HETATM   20  C           1      26.324  44.957  51.950  0.00  0.00     0.114 C 
BRANCH  20  21
HETATM   21  C           1      26.544  45.766  50.673  0.00  0.00     0.222 C 
HETATM   22  O           1      27.100  45.281  49.722  0.00  0.00    -0.273 OA
HETATM   23  N           1      26.052  47.036  50.725  0.00  0.00    -0.327 N 
HETATM   24  H           1      25.588  47.320  51.576  0.00  0.00     0.169 HD
BRANCH  23  25
HETATM   25  C           1      26.019  48.052  49.838  0.00  0.00     0.034 A 
HETATM   26  C           1      27.205  48.631  49.572  0.00  0.00     0.029 A 
HETATM   27  C           1      27.310  49.656  48.713  0.00  0.00     0.002 A 
HETATM   28  C           1      26.215  50.122  48.096  0.00  0.00     0.000 A 
HETATM   29  C           1      25.026  49.555  48.344  0.00  0.00     0.002 A 
HETATM   30  C           1      24.931  48.529  49.206  0.00  0.00     0.029 A 
ENDBRANCH  23  25
ENDBRANCH  20  21
ENDBRANCH   3  20
BRANCH  12  31
HETATM   31  C           1      30.542  44.197  56.895  0.00  0.00     0.176 C 
BRANCH  31  32
HETATM   32  O           1      30.989  44.902  58.036  0.00  0.00    -0.400 OA
HETATM   33  H           1      31.062  45.836  57.831  0.00  0.00     0.209 HD
ENDBRANCH  31  32
ENDBRANCH  12  31
BRANCH  13  34
HETATM   34  O           1      28.173  45.269  57.676  0.00  0.00    -0.395 OA
HETATM   35  H           1      27.354  44.958  57.280  0.00  0.00     0.210 HD
ENDBRANCH  13  34
BRANCH   9  36
HETATM   36  C           1      26.608  38.493  49.742  0.00  0.00     0.270 C 
BRANCH  36  37
HETATM   37  O           1      27.905  37.926  49.718  0.00  0.00    -0.387 OA
HETATM   38  C           1      28.399  37.778  48.405  0.00  0.00     0.202 C 
ENDBRANCH  36  37
ENDBRANCH   9  36
TORSDOF 8
ENDMDL
MODEL 2
REMARK VINA RESULT:      -8.2      7.625     12.647
REMARK  8 active torsions:
REMARK  status: ('A' for Active; 'I' for Inactive)
REMARK    1  A    between atoms: C_3  and  C_27 
REMARK       I    between atoms: N_12  and  C_13 
REMARK    2  A    between atoms: C_13  and  C_14 
REMARK    3  A    between atoms: C_14  and  O_15 
REMARK    4  A    between atoms: C_18  and  C_36 
REMARK    5  A    between atoms: O_19  and  C_36 
REMARK    6  A    between atoms: C_20  and  O_21 
REMARK    7  A    between atoms: C_27  and  C_28 
REMARK       I    between atoms: C_28  and  N_29 
REMARK    8  A    between atoms: N_29  and  C_30 
ROOT
HETATM    1  C           1      19.674  46.631  48.845  0.00  0.00     0.016 C 
HETATM    2  C           1      20.093  47.093  47.424  0.00  0.00    -0.030 C 
HETATM    3  C           1      20.376  48.630  47.488  0.00  0.00     0.056 C 
HETATM    4  C           1      19.063  49.352  47.454  0.00  0.00     0.056 A 
HETATM    5  C           1      18.111  49.040  46.577  0.00  0.00     0.012 A 
HETATM    6  S           1      16.939  49.896  46.776  0.00  0.00    -0.055 SA
HETATM    7  C           1      17.549  50.643  47.883  0.00  0.00     0.174 A 
HETATM    8  N           1      16.835  51.623  48.471  0.00  0.00    -0.304 N 
HETATM    9  C           1      17.162  52.426  49.524  0.00  0.00     0.247 C 
HETATM   10  O           1      18.204  52.354  50.125  0.00  0.00    -0.271 OA
HETATM   11  N           1      18.718  50.291  48.216  0.00  0.00    -0.227 NA
HETATM   12  C           1      19.190  45.477  45.478  0.00  0.00     0.008 C 
HETATM   13  C           1      19.993  44.387  46.212  0.00  0.00     0.128 C 
HETATM   14  C           1      21.404  46.371  47.055  0.00  0.00     0.013 C 
HETATM   15  H           1      15.936  51.754  48.031  0.00  0.00     0.171 HD
HETATM   16  C           1      19.921  45.825  44.158  0.00  0.00     0.020 C 
HETATM   17  C           1      18.349  47.915  45.620  0.00  0.00     0.055 C 
HETATM   18  C           1      18.957  46.721  46.398  0.00  0.00     0.012 C 
HETATM   19  C           1      21.262  44.852  46.926  0.00  0.00     0.033 C 
ENDROOT
BRANCH   3  20
HETATM   20  C           1      21.266  49.157  48.634  0.00  0.00     0.114 C 
BRANCH  20  21
HETATM   21  C           1      22.696  49.440  48.180  0.00  0.00     0.222 C 
HETATM   22  O           1      22.913  50.048  47.163  0.00  0.00    -0.273 OA
HETATM   23  N           1      23.655  48.961  49.022  0.00  0.00    -0.327 N 
HETATM   24  H           1      23.344  48.483  49.855  0.00  0.00     0.169 HD
BRANCH  23  25
HETATM   25  C           1      25.003  49.004  49.008  0.00  0.00     0.034 A 
HETATM   26  C           1      25.624  47.984  49.632  0.00  0.00     0.029 A 
HETATM   27  C           1      26.962  47.911  49.696  0.00  0.00     0.002 A 
HETATM   28  C           1      27.710  48.866  49.126  0.00  0.00     0.000 A 
HETATM   29  C           1      27.109  49.886  48.496  0.00  0.00     0.002 A 
HETATM   30  C           1      25.768  49.952  48.437  0.00  0.00     0.029 A 
ENDBRANCH  23  25
ENDBRANCH  20  21
ENDBRANCH   3  20
BRANCH  12  31
HETATM   31  C           1      17.813  44.895  45.065  0.00  0.00     0.176 C 
BRANCH  31  32
HETATM   32  O           1      16.911  44.900  46.154  0.00  0.00    -0.400 OA
HETATM   33  H           1      16.172  45.479  45.959  0.00  0.00     0.209 HD
ENDBRANCH  31  32
ENDBRANCH  12  31
BRANCH  13  34
HETATM   34  O           1      19.144  43.724  47.121  0.00  0.00    -0.395 OA
HETATM   35  H           1      19.697  43.317  47.795  0.00  0.00     0.210 HD
ENDBRANCH  13  34
BRANCH   9  36
HETATM   36  C           1      16.081  53.434  49.888  0.00  0.00     0.270 C 
BRANCH  36  37
HETATM   37  O           1      14.792  52.877  49.713  0.00  0.00    -0.387 OA
HETATM   38  C           1      13.866  53.365  50.658  0.00  0.00     0.202 C 
ENDBRANCH  36  37
ENDBRANCH   9  36
TORSDOF 8
ENDMDL
MODEL 3
REMARK VINA RESULT:      -7.6      9.097     14.059
REMARK  8 active torsions:
REMARK  status: ('A' for Active; 'I' for Inactive)
REMARK    1  A    between atoms: C_3  and  C_27 
REMARK       I    between atoms: N_12  and  C_13 
REMARK    2  A    between atoms: C_13  and  C_14 
REMARK    3  A    between atoms: C_14  and  O_15 
REMARK    4  A    between atoms: C_18  and  C_36 
REMARK    5  A    between atoms: O_19  and  C_36 
REMARK    6  A    between atoms: C_20  and  O_21 
REMARK    7  A    between atoms: C_27  and  C_28 
REMARK       I    between atoms: C_28  and  N_29 
REMARK    8  A    between atoms: N_29  and  C_30 
ROOT
HETATM    1  C           1      17.065  47.110  48.799  0.00  0.00     0.016 C 
HETATM    2  C           1      18.061  47.646  47.737  0.00  0.00    -0.030 C 
HETATM    3  C           1      18.475  49.093  48.160  0.00  0.00     0.056 C 
HETATM    4  C           1      17.377  50.032  47.763  0.00  0.00     0.056 A 
HETATM    5  C           1      16.817  49.990  46.556  0.00  0.00     0.012 A 
HETATM    6  S           1      15.772  51.010  46.447  0.00  0.00    -0.055 SA
HETATM    7  C           1      15.981  51.513  47.810  0.00  0.00     0.174 A 
HETATM    8  N           1      15.215  52.531  48.247  0.00  0.00    -0.304 N 
HETATM    9  C           1      15.193  53.144  49.466  0.00  0.00     0.247 C 
HETATM   10  O           1      15.899  52.825  50.389  0.00  0.00    -0.271 OA
HETATM   11  N           1      16.874  50.927  48.489  0.00  0.00    -0.227 NA
HETATM   12  C           1      17.811  46.436  45.351  0.00  0.00     0.008 C 
HETATM   13  C           1      18.126  45.149  46.135  0.00  0.00     0.128 C 
HETATM   14  C           1      19.315  46.751  47.765  0.00  0.00     0.013 C 
HETATM   15  H           1      14.583  52.865  47.533  0.00  0.00     0.171 HD
HETATM   16  C           1      19.038  46.795  44.477  0.00  0.00     0.020 C 
HETATM   17  C           1      17.278  48.953  45.581  0.00  0.00     0.055 C 
HETATM   18  C           1      17.384  47.593  46.315  0.00  0.00     0.012 C 
HETATM   19  C           1      19.057  45.303  47.337  0.00  0.00     0.033 C 
ENDROOT
BRANCH   3  20
HETATM   20  C           1      18.898  49.327  49.626  0.00  0.00     0.114 C 
BRANCH  20  21
HETATM   21  C           1      20.321  49.868  49.744  0.00  0.00     0.222 C 
HETATM   22  O           1      20.565  50.823  50.435  0.00  0.00    -0.273 OA
HETATM   23  N           1      21.245  49.173  49.022  0.00  0.00    -0.327 N 
HETATM   24  H           1      20.918  48.376  48.494  0.00  0.00     0.169 HD
BRANCH  23  25
HETATM   25  C           1      22.578  49.298  48.860  0.00  0.00     0.034 A 
HETATM   26  C           1      22.974  50.294  48.044  0.00  0.00     0.029 A 
HETATM   27  C           1      24.272  50.522  47.793  0.00  0.00     0.002 A 
HETATM   28  C           1      25.207  49.750  48.365  0.00  0.00     0.000 A 
HETATM   29  C           1      24.832  48.758  49.185  0.00  0.00     0.002 A 
HETATM   30  C           1      23.529  48.536  49.430  0.00  0.00     0.029 A 
ENDBRANCH  23  25
ENDBRANCH  20  21
ENDBRANCH   3  20
BRANCH  12  31
HETATM   31  C           1      16.650  46.153  44.364  0.00  0.00     0.176 C 
BRANCH  31  32
HETATM   32  O           1      15.398  46.214  45.020  0.00  0.00    -0.400 OA
HETATM   33  H           1      15.517  46.542  45.913  0.00  0.00     0.209 HD
ENDBRANCH  31  32
ENDBRANCH  12  31
BRANCH  13  34
HETATM   34  O           1      16.915  44.548  46.538  0.00  0.00    -0.395 OA
HETATM   35  H           1      16.963  43.614  46.314  0.00  0.00     0.210 HD
ENDBRANCH  13  34
BRANCH   9  36
HETATM   36  C           1      14.185  54.279  49.567  0.00  0.00     0.270 C 
BRANCH  36  37
HETATM   37  O           1      12.967  53.823  50.127  0.00  0.00    -0.387 OA
HETATM   38  C           1      11.992  54.841  50.187  0.00  0.00     0.202 C 
ENDBRANCH  36  37
ENDBRANCH   9  36
TORSDOF 8
ENDMDL
MODEL 4
REMARK VINA RESULT:      -7.6      6.574     11.214
REMARK  8 active torsions:
REMARK  status: ('A' for Active; 'I' for Inactive)
REMARK    1  A    between atoms: C_3  and  C_27 
REMARK       I    between atoms: N_12  and  C_13 
REMARK    2  A    between atoms: C_13  and  C_14 
REMARK    3  A    between atoms: C_14  and  O_15 
REMARK    4  A    between atoms: C_18  and  C_36 
REMARK    5  A    between atoms: O_19  and  C_36 
REMARK    6  A    between atoms: C_20  and  O_21 
REMARK    7  A    between atoms: C_27  and  C_28 
REMARK       I    between atoms: C_28  and  N_29 
REMARK    8  A    between atoms: N_29  and  C_30 
ROOT
HETATM    1  C           1      18.583  48.700  50.063  0.00  0.00     0.016 C 
HETATM    2  C           1      18.641  48.608  48.515  0.00  0.00    -0.030 C 
HETATM    3  C           1      19.757  47.578  48.140  0.00  0.00     0.056 C 
HETATM    4  C           1      21.086  48.261  48.258  0.00  0.00     0.056 A 
HETATM    5  C           1      21.305  49.468  47.741  0.00  0.00     0.012 A 
HETATM    6  S           1      22.681  49.893  48.011  0.00  0.00    -0.055 SA
HETATM    7  C           1      23.027  48.658  48.725  0.00  0.00     0.174 A 
HETATM    8  N           1      24.273  48.526  49.220  0.00  0.00    -0.304 N 
HETATM    9  C           1      24.821  47.505  49.940  0.00  0.00     0.247 C 
HETATM   10  O           1      24.216  46.515  50.267  0.00  0.00    -0.271 OA
HETATM   11  N           1      22.103  47.800  48.836  0.00  0.00    -0.227 NA
HETATM   12  C           1      17.687  50.800  47.290  0.00  0.00     0.008 C 
HETATM   13  C           1      16.383  50.475  48.042  0.00  0.00     0.128 C 
HETATM   14  C           1      17.287  48.062  48.018  0.00  0.00     0.013 C 
HETATM   15  H           1      24.857  49.319  48.996  0.00  0.00     0.171 HD
HETATM   16  C           1      17.483  50.485  45.787  0.00  0.00     0.020 C 
HETATM   17  C           1      20.181  50.174  47.050  0.00  0.00     0.055 C 
HETATM   18  C           1      18.904  50.042  47.916  0.00  0.00     0.012 C 
HETATM   19  C           1      16.103  48.993  48.292  0.00  0.00     0.033 C 
ENDROOT
BRANCH   3  20
HETATM   20  C           1      19.767  46.221  48.875  0.00  0.00     0.114 C 
BRANCH  20  21
HETATM   21  C           1      20.056  45.051  47.936  0.00  0.00     0.222 C 
HETATM   22  O           1      19.175  44.314  47.576  0.00  0.00    -0.273 OA
HETATM   23  N           1      21.362  44.948  47.558  0.00  0.00    -0.327 N 
HETATM   24  H           1      22.005  45.640  47.915  0.00  0.00     0.169 HD
BRANCH  23  25
HETATM   25  C           1      22.026  44.096  46.750  0.00  0.00     0.034 A 
HETATM   26  C           1      22.443  44.611  45.578  0.00  0.00     0.029 A 
HETATM   27  C           1      23.109  43.867  44.682  0.00  0.00     0.002 A 
HETATM   28  C           1      23.376  42.582  44.949  0.00  0.00     0.000 A 
HETATM   29  C           1      22.974  42.053  46.114  0.00  0.00     0.002 A 
HETATM   30  C           1      22.307  42.805  47.006  0.00  0.00     0.029 A 
ENDBRANCH  23  25
ENDBRANCH  20  21
ENDBRANCH   3  20
BRANCH  12  31
HETATM   31  C           1      17.950  52.326  47.376  0.00  0.00     0.176 C 
BRANCH  31  32
HETATM   32  O           1      18.571  52.666  48.600  0.00  0.00    -0.400 OA
HETATM   33  H           1      19.346  52.118  48.733  0.00  0.00     0.209 HD
ENDBRANCH  31  32
ENDBRANCH  12  31
BRANCH  13  34
HETATM   34  O           1      16.368  51.181  49.262  0.00  0.00    -0.395 OA
HETATM   35  H           1      16.354  52.120  49.057  0.00  0.00     0.210 HD
ENDBRANCH  13  34
BRANCH   9  36
HETATM   36  C           1      26.282  47.724  50.307  0.00  0.00     0.270 C 
BRANCH  36  37
HETATM   37  O           1      27.089  47.788  49.146  0.00  0.00    -0.387 OA
HETATM   38  C           1      27.829  48.987  49.076  0.00  0.00     0.202 C 
ENDBRANCH  36  37
ENDBRANCH   9  36
TORSDOF 8
ENDMDL
MODEL 5
REMARK VINA RESULT:      -7.4      7.049     10.967
REMARK  8 active torsions:
REMARK  status: ('A' for Active; 'I' for Inactive)
REMARK    1  A    between atoms: C_3  and  C_27 
REMARK       I    between atoms: N_12  and  C_13 
REMARK    2  A    between atoms: C_13  and  C_14 
REMARK    3  A    between atoms: C_14  and  O_15 
REMARK    4  A    between atoms: C_18  and  C_36 
REMARK    5  A    between atoms: O_19  and  C_36 
REMARK    6  A    between atoms: C_20  and  O_21 
REMARK    7  A    between atoms: C_27  and  C_28 
REMARK       I    between atoms: C_28  and  N_29 
REMARK    8  A    between atoms: N_29  and  C_30 
ROOT
HETATM    1  C           1      19.006  48.173  50.302  0.00  0.00     0.016 C 
HETATM    2  C           1      19.125  48.426  48.776  0.00  0.00    -0.030 C 
HETATM    3  C           1      20.067  47.328  48.182  0.00  0.00     0.056 C 
HETATM    4  C           1      21.485  47.720  48.468  0.00  0.00     0.056 A 
HETATM    5  C           1      21.931  48.954  48.248  0.00  0.00     0.012 A 
HETATM    6  S           1      23.344  49.056  48.622  0.00  0.00    -0.055 SA
HETATM    7  C           1      23.440  47.649  49.032  0.00  0.00     0.174 A 
HETATM    8  N           1      24.619  47.190  49.493  0.00  0.00    -0.304 N 
HETATM    9  C           1      24.948  45.951  49.960  0.00  0.00     0.247 C 
HETATM   10  O           1      24.168  45.036  50.043  0.00  0.00    -0.271 OA
HETATM   11  N           1      22.379  46.966  48.932  0.00  0.00    -0.227 NA
HETATM   12  C           1      18.620  50.973  48.086  0.00  0.00     0.008 C 
HETATM   13  C           1      17.244  50.721  48.731  0.00  0.00     0.128 C 
HETATM   14  C           1      17.724  48.256  48.154  0.00  0.00     0.013 C 
HETATM   15  H           1      25.339  47.897  49.464  0.00  0.00     0.171 HD
HETATM   16  C           1      18.440  51.050  46.550  0.00  0.00     0.020 C 
HETATM   17  C           1      20.980  49.986  47.729  0.00  0.00     0.055 C 
HETATM   18  C           1      19.657  49.889  48.530  0.00  0.00     0.012 C 
HETATM   19  C           1      16.703  49.295  48.627  0.00  0.00     0.033 C 
ENDROOT
BRANCH   3  20
HETATM   20  C           1      19.809  45.859  48.581  0.00  0.00     0.114 C 
BRANCH  20  21
HETATM   21  C           1      19.644  44.945  47.369  0.00  0.00     0.222 C 
HETATM   22  O           1      20.247  43.906  47.290  0.00  0.00    -0.273 OA
HETATM   23  N           1      18.767  45.410  46.434  0.00  0.00    -0.327 N 
HETATM   24  H           1      18.308  46.290  46.625  0.00  0.00     0.169 HD
BRANCH  23  25
HETATM   25  C           1      18.328  44.924  45.255  0.00  0.00     0.034 A 
HETATM   26  C           1      17.132  44.306  45.289  0.00  0.00     0.029 A 
HETATM   27  C           1      16.586  43.772  44.186  0.00  0.00     0.002 A 
HETATM   28  C           1      17.234  43.854  43.015  0.00  0.00     0.000 A 
HETATM   29  C           1      18.423  44.471  42.961  0.00  0.00     0.002 A 
HETATM   30  C           1      18.963  45.002  44.071  0.00  0.00     0.029 A 
ENDBRANCH  23  25
ENDBRANCH  20  21
ENDBRANCH   3  20
BRANCH  12  31
HETATM   31  C           1      19.134  52.368  48.528  0.00  0.00     0.176 C 
BRANCH  31  32
HETATM   32  O           1      18.066  53.283  48.667  0.00  0.00    -0.400 OA
HETATM   33  H           1      17.244  52.804  48.788  0.00  0.00     0.209 HD
ENDBRANCH  31  32
ENDBRANCH  12  31
BRANCH  13  34
HETATM   34  O           1      17.289  51.122  50.082  0.00  0.00    -0.395 OA
HETATM   35  H           1      17.310  52.084  50.101  0.00  0.00     0.210 HD
ENDBRANCH  13  34
BRANCH   9  36
HETATM   36  C           1      26.405  45.819  50.381  0.00  0.00     0.270 C 
BRANCH  36  37
HETATM   37  O           1      27.068  44.839  49.603  0.00  0.00    -0.387 OA
HETATM   38  C           1      27.219  43.619  50.296  0.00  0.00     0.202 C 
ENDBRANCH  36  37
ENDBRANCH   9  36
TORSDOF 8
ENDMDL
MODEL 6
REMARK VINA RESULT:      -7.3      2.731      6.972
REMARK  8 active torsions:
REMARK  status: ('A' for Active; 'I' for Inactive)
REMARK    1  A    between atoms: C_3  and  C_27 
REMARK       I    between atoms: N_12  and  C_13 
REMARK    2  A    between atoms: C_13  and  C_14 
REMARK    3  A    between atoms: C_14  and  O_15 
REMARK    4  A    between atoms: C_18  and  C_36 
REMARK    5  A    between atoms: O_19  and  C_36 
REMARK    6  A    between atoms: C_20  and  O_21 
REMARK    7  A    between atoms: C_27  and  C_28 
REMARK       I    between atoms: C_28  and  N_29 
REMARK    8  A    between atoms: N_29  and  C_30 
ROOT
HETATM    1  C           1      27.037  43.963  49.572  0.00  0.00     0.016 C 
HETATM    2  C           1      26.376  42.708  50.202  0.00  0.00    -0.030 C 
HETATM    3  C           1      25.811  43.118  51.601  0.00  0.00     0.056 C 
HETATM    4  C           1      26.948  43.145  52.578  0.00  0.00     0.056 A 
HETATM    5  C           1      27.835  42.155  52.652  0.00  0.00     0.012 A 
HETATM    6  S           1      28.835  42.448  53.683  0.00  0.00    -0.055 SA
HETATM    7  C           1      28.223  43.730  54.054  0.00  0.00     0.174 A 
HETATM    8  N           1      28.796  44.460  55.029  0.00  0.00    -0.304 N 
HETATM    9  C           1      28.443  45.681  55.524  0.00  0.00     0.247 C 
HETATM   10  O           1      27.510  46.326  55.117  0.00  0.00    -0.271 OA
HETATM   11  N           1      27.190  44.063  53.403  0.00  0.00    -0.227 NA
HETATM   12  C           1      27.346  40.402  49.224  0.00  0.00     0.008 C 
HETATM   13  C           1      26.859  40.942  47.867  0.00  0.00     0.128 C 
HETATM   14  C           1      25.197  42.288  49.303  0.00  0.00     0.013 C 
HETATM   15  H           1      29.597  43.995  55.432  0.00  0.00     0.171 HD
HETATM   16  C           1      26.416  39.242  49.658  0.00  0.00     0.020 C 
HETATM   17  C           1      27.711  41.000  51.710  0.00  0.00     0.055 C 
HETATM   18  C           1      27.439  41.547  50.286  0.00  0.00     0.012 C 
HETATM   19  C           1      25.614  41.828  47.903  0.00  0.00     0.033 C 
ENDROOT
BRANCH   3  20
HETATM   20  C           1      24.974  44.412  51.694  0.00  0.00     0.114 C 
BRANCH  20  21
HETATM   21  C           1      23.787  44.409  50.732  0.00  0.00     0.222 C 
HETATM   22  O           1      22.868  43.647  50.887  0.00  0.00    -0.273 OA
HETATM   23  N           1      23.876  45.332  49.733  0.00  0.00    -0.327 N 
HETATM   24  H           1      24.691  45.927  49.722  0.00  0.00     0.169 HD
BRANCH  23  25
HETATM   25  C           1      23.064  45.667  48.709  0.00  0.00     0.034 A 
HETATM   26  C           1      22.587  46.926  48.733  0.00  0.00     0.029 A 
HETATM   27  C           1      21.765  47.384  47.777  0.00  0.00     0.002 A 
HETATM   28  C           1      21.404  46.580  46.767  0.00  0.00     0.000 A 
HETATM   29  C           1      21.873  45.324  46.724  0.00  0.00     0.002 A 
HETATM   30  C           1      22.696  44.874  47.686  0.00  0.00     0.029 A 
ENDBRANCH  23  25
ENDBRANCH  20  21
ENDBRANCH   3  20
BRANCH  12  31
HETATM   31  C           1      28.753  39.775  49.040  0.00  0.00     0.176 C 
BRANCH  31  32
HETATM   32  O           1      28.752  38.820  47.997  0.00  0.00    -0.400 OA
HETATM   33  H           1      29.486  38.990  47.403  0.00  0.00     0.209 HD
ENDBRANCH  31  32
ENDBRANCH  12  31
BRANCH  13  34
HETATM   34  O           1      27.918  41.625  47.236  0.00  0.00    -0.395 OA
HETATM   35  H           1      28.564  41.851  47.912  0.00  0.00     0.210 HD
ENDBRANCH  13  34
BRANCH   9  36
HETATM   36  C           1      29.342  46.174  56.649  0.00  0.00     0.270 C 
BRANCH  36  37
HETATM   37  O           1      30.325  45.206  56.970  0.00  0.00    -0.387 OA
HETATM   38  C           1      30.655  45.214  58.341  0.00  0.00     0.202 C 
ENDBRANCH  36  37
ENDBRANCH   9  36
TORSDOF 8
ENDMDL
MODEL 7
REMARK VINA RESULT:      -7.3      4.966      7.737
REMARK  8 active torsions:
REMARK  status: ('A' for Active; 'I' for Inactive)
REMARK    1  A    between atoms: C_3  and  C_27 
REMARK       I    between atoms: N_12  and  C_13 
REMARK    2  A    between atoms: C_13  and  C_14 
REMARK    3  A    between atoms: C_14  and  O_15 
REMARK    4  A    between atoms: C_18  and  C_36 
REMARK    5  A    between atoms: O_19  and  C_36 
REMARK    6  A    between atoms: C_20  and  O_21 
REMARK    7  A    between atoms: C_27  and  C_28 
REMARK       I    between atoms: C_28  and  N_29 
REMARK    8  A    between atoms: N_29  and  C_30 
ROOT
HETATM    1  C           1      24.252  42.323  50.957  0.00  0.00     0.016 C 
HETATM    2  C           1      25.172  42.747  49.781  0.00  0.00    -0.030 C 
HETATM    3  C           1      24.681  44.141  49.271  0.00  0.00     0.056 C 
HETATM    4  C           1      23.482  43.927  48.398  0.00  0.00     0.056 A 
HETATM    5  C           1      23.459  42.995  47.449  0.00  0.00     0.012 A 
HETATM    6  S           1      22.166  43.003  46.761  0.00  0.00    -0.055 SA
HETATM    7  C           1      21.632  44.108  47.567  0.00  0.00     0.174 A 
HETATM    8  N           1      20.380  44.539  47.322  0.00  0.00    -0.304 N 
HETATM    9  C           1      19.656  45.512  47.947  0.00  0.00     0.247 C 
HETATM   10  O           1      20.064  46.157  48.880  0.00  0.00    -0.271 OA
HETATM   11  N           1      22.401  44.569  48.460  0.00  0.00    -0.227 NA
HETATM   12  C           1      26.356  40.665  48.565  0.00  0.00     0.008 C 
HETATM   13  C           1      26.951  40.378  49.956  0.00  0.00     0.128 C 
HETATM   14  C           1      26.604  42.904  50.329  0.00  0.00     0.013 C 
HETATM   15  H           1      19.953  44.048  46.550  0.00  0.00     0.171 HD
HETATM   16  C           1      27.483  41.197  47.645  0.00  0.00     0.020 C 
HETATM   17  C           1      24.657  42.116  47.270  0.00  0.00     0.055 C 
HETATM   18  C           1      25.134  41.636  48.664  0.00  0.00     0.012 C 
HETATM   19  C           1      27.224  41.599  50.836  0.00  0.00     0.033 C 
ENDROOT
BRANCH   3  20
HETATM   20  C           1      24.413  45.243  50.318  0.00  0.00     0.114 C 
BRANCH  20  21
HETATM   21  C           1      24.634  46.647  49.758  0.00  0.00     0.222 C 
HETATM   22  O           1      25.743  47.048  49.514  0.00  0.00    -0.273 OA
HETATM   23  N           1      23.487  47.357  49.560  0.00  0.00    -0.327 N 
HETATM   24  H           1      22.615  46.902  49.786  0.00  0.00     0.169 HD
BRANCH  23  25
HETATM   25  C           1      23.236  48.593  49.081  0.00  0.00     0.034 A 
HETATM   26  C           1      21.972  49.032  49.240  0.00  0.00     0.029 A 
HETATM   27  C           1      21.589  50.241  48.803  0.00  0.00     0.002 A 
HETATM   28  C           1      22.476  51.041  48.195  0.00  0.00     0.000 A 
HETATM   29  C           1      23.739  50.623  48.032  0.00  0.00     0.002 A 
HETATM   30  C           1      24.114  49.410  48.474  0.00  0.00     0.029 A 
ENDBRANCH  23  25
ENDBRANCH  20  21
ENDBRANCH   3  20
BRANCH  12  31
HETATM   31  C           1      25.884  39.329  47.935  0.00  0.00     0.176 C 
BRANCH  31  32
HETATM   32  O           1      26.855  38.315  48.106  0.00  0.00    -0.400 OA
HETATM   33  H           1      26.805  37.694  47.377  0.00  0.00     0.209 HD
ENDBRANCH  31  32
ENDBRANCH  12  31
BRANCH  13  34
HETATM   34  O           1      26.113  39.472  50.637  0.00  0.00    -0.395 OA
HETATM   35  H           1      26.667  38.767  50.985  0.00  0.00     0.210 HD
ENDBRANCH  13  34
BRANCH   9  36
HETATM   36  C           1      18.266  45.718  47.362  0.00  0.00     0.270 C 
BRANCH  36  37
HETATM   37  O           1      17.702  44.484  46.955  0.00  0.00    -0.387 OA
HETATM   38  C           1      17.159  44.548  45.655  0.00  0.00     0.202 C 
ENDBRANCH  36  37
ENDBRANCH   9  36
TORSDOF 8
ENDMDL
MODEL 8
REMARK VINA RESULT:      -7.3      8.950     13.728
REMARK  8 active torsions:
REMARK  status: ('A' for Active; 'I' for Inactive)
REMARK    1  A    between atoms: C_3  and  C_27 
REMARK       I    between atoms: N_12  and  C_13 
REMARK    2  A    between atoms: C_13  and  C_14 
REMARK    3  A    between atoms: C_14  and  O_15 
REMARK    4  A    between atoms: C_18  and  C_36 
REMARK    5  A    between atoms: O_19  and  C_36 
REMARK    6  A    between atoms: C_20  and  O_21 
REMARK    7  A    between atoms: C_27  and  C_28 
REMARK       I    between atoms: C_28  and  N_29 
REMARK    8  A    between atoms: N_29  and  C_30 
ROOT
HETATM    1  C           1      18.629  50.597  45.153  0.00  0.00     0.016 C 
HETATM    2  C           1      17.549  50.080  46.140  0.00  0.00    -0.030 C 
HETATM    3  C           1      18.107  50.254  47.590  0.00  0.00     0.056 C 
HETATM    4  C           1      19.056  49.129  47.868  0.00  0.00     0.056 A 
HETATM    5  C           1      18.752  47.865  47.583  0.00  0.00     0.012 A 
HETATM    6  S           1      19.861  46.981  47.951  0.00  0.00    -0.055 SA
HETATM    7  C           1      20.697  48.077  48.456  0.00  0.00     0.174 A 
HETATM    8  N           1      21.917  47.784  48.947  0.00  0.00    -0.304 N 
HETATM    9  C           1      22.881  48.616  49.436  0.00  0.00     0.247 C 
HETATM   10  O           1      22.770  49.815  49.487  0.00  0.00    -0.271 OA
HETATM   11  N           1      20.202  49.239  48.375  0.00  0.00    -0.227 NA
HETATM   12  C           1      15.864  48.308  45.028  0.00  0.00     0.008 C 
HETATM   13  C           1      15.541  49.451  44.048  0.00  0.00     0.128 C 
HETATM   14  C           1      16.299  50.968  45.988  0.00  0.00     0.013 C 
HETATM   15  H           1      22.101  46.792  48.940  0.00  0.00     0.171 HD
HETATM   16  C           1      14.652  48.108  45.971  0.00  0.00     0.020 C 
HETATM   17  C           1      17.435  47.566  46.938  0.00  0.00     0.055 C 
HETATM   18  C           1      17.201  48.582  45.793  0.00  0.00     0.012 C 
HETATM   19  C           1      15.627  50.868  44.615  0.00  0.00     0.033 C 
ENDROOT
BRANCH   3  20
HETATM   20  C           1      18.737  51.613  47.966  0.00  0.00     0.114 C 
BRANCH  20  21
HETATM   21  C           1      18.071  52.247  49.185  0.00  0.00     0.222 C 
HETATM   22  O           1      18.632  52.280  50.250  0.00  0.00    -0.273 OA
HETATM   23  N           1      16.832  52.761  48.942  0.00  0.00    -0.327 N 
HETATM   24  H           1      16.476  52.688  47.999  0.00  0.00     0.169 HD
BRANCH  23  25
HETATM   25  C           1      15.929  53.403  49.711  0.00  0.00     0.034 A 
HETATM   26  C           1      14.851  52.679  50.071  0.00  0.00     0.029 A 
HETATM   27  C           1      13.876  53.202  50.829  0.00  0.00     0.002 A 
HETATM   28  C           1      13.966  54.472  51.249  0.00  0.00     0.000 A 
HETATM   29  C           1      15.034  55.206  50.904  0.00  0.00     0.002 A 
HETATM   30  C           1      16.006  54.674  50.144  0.00  0.00     0.029 A 
ENDBRANCH  23  25
ENDBRANCH  20  21
ENDBRANCH   3  20
BRANCH  12  31
HETATM   31  C           1      16.007  46.986  44.229  0.00  0.00     0.176 C 
BRANCH  31  32
HETATM   32  O           1      15.102  46.007  44.700  0.00  0.00    -0.400 OA
HETATM   33  H           1      14.452  46.417  45.273  0.00  0.00     0.209 HD
ENDBRANCH  31  32
ENDBRANCH  12  31
BRANCH  13  34
HETATM   34  O           1      16.372  49.334  42.915  0.00  0.00    -0.395 OA
HETATM   35  H           1      15.806  49.333  42.136  0.00  0.00     0.210 HD
ENDBRANCH  13  34
BRANCH   9  36
HETATM   36  C           1      24.133  47.894  49.916  0.00  0.00     0.270 C 
BRANCH  36  37
HETATM   37  O           1      25.296  48.635  49.595  0.00  0.00    -0.387 OA
HETATM   38  C           1      26.476  47.977  50.000  0.00  0.00     0.202 C 
ENDBRANCH  36  37
ENDBRANCH   9  36
TORSDOF 8
ENDMDL
MODEL 9
REMARK VINA RESULT:      -7.2      4.317      7.977
REMARK  8 active torsions:
REMARK  status: ('A' for Active; 'I' for Inactive)
REMARK    1  A    between atoms: C_3  and  C_27 
REMARK       I    between atoms: N_12  and  C_13 
REMARK    2  A    between atoms: C_13  and  C_14 
REMARK    3  A    between atoms: C_14  and  O_15 
REMARK    4  A    between atoms: C_18  and  C_36 
REMARK    5  A    between atoms: O_19  and  C_36 
REMARK    6  A    between atoms: C_20  and  O_21 
REMARK    7  A    between atoms: C_27  and  C_28 
REMARK       I    between atoms: C_28  and  N_29 
REMARK    8  A    between atoms: N_29  and  C_30 
ROOT
HETATM    1  C           1      24.303  42.830  51.246  0.00  0.00     0.016 C 
HETATM    2  C           1      25.209  43.128  50.022  0.00  0.00    -0.030 C 
HETATM    3  C           1      24.707  44.457  49.369  0.00  0.00     0.056 C 
HETATM    4  C           1      23.499  44.147  48.538  0.00  0.00     0.056 A 
HETATM    5  C           1      23.471  43.118  47.695  0.00  0.00     0.012 A 
HETATM    6  S           1      22.169  43.048  47.025  0.00  0.00    -0.055 SA
HETATM    7  C           1      21.640  44.231  47.713  0.00  0.00     0.174 A 
HETATM    8  N           1      20.383  44.630  47.437  0.00  0.00    -0.304 N 
HETATM    9  C           1      19.662  45.663  47.961  0.00  0.00     0.247 C 
HETATM   10  O           1      20.077  46.405  48.815  0.00  0.00    -0.271 OA
HETATM   11  N           1      22.417  44.789  48.542  0.00  0.00    -0.227 NA
HETATM   12  C           1      26.389  40.931  49.023  0.00  0.00     0.008 C 
HETATM   13  C           1      27.000  40.797  50.431  0.00  0.00     0.128 C 
HETATM   14  C           1      26.646  43.347  50.533  0.00  0.00     0.013 C 
HETATM   15  H           1      19.950  44.058  46.727  0.00  0.00     0.171 HD
HETATM   16  C           1      27.504  41.364  48.039  0.00  0.00     0.020 C 
HETATM   17  C           1      24.670  42.228  47.598  0.00  0.00     0.055 C 
HETATM   18  C           1      25.163  41.903  49.030  0.00  0.00     0.012 C 
HETATM   19  C           1      27.277  42.106  51.171  0.00  0.00     0.033 C 
ENDROOT
BRANCH   3  20
HETATM   20  C           1      24.445  45.665  50.295  0.00  0.00     0.114 C 
BRANCH  20  21
HETATM   21  C           1      25.711  46.144  51.001  0.00  0.00     0.222 C 
HETATM   22  O           1      26.600  46.674  50.386  0.00  0.00    -0.273 OA
HETATM   23  N           1      25.716  45.927  52.347  0.00  0.00    -0.327 N 
HETATM   24  H           1      24.901  45.489  52.750  0.00  0.00     0.169 HD
BRANCH  23  25
HETATM   25  C           1      26.605  46.201  53.325  0.00  0.00     0.034 A 
HETATM   26  C           1      27.365  45.165  53.727  0.00  0.00     0.029 A 
HETATM   27  C           1      28.282  45.302  54.697  0.00  0.00     0.002 A 
HETATM   28  C           1      28.458  46.494  55.284  0.00  0.00     0.000 A 
HETATM   29  C           1      27.714  47.538  54.892  0.00  0.00     0.002 A 
HETATM   30  C           1      26.797  47.392  53.920  0.00  0.00     0.029 A 
ENDBRANCH  23  25
ENDBRANCH  20  21
ENDBRANCH   3  20
BRANCH  12  31
HETATM   31  C           1      25.916  39.533  48.546  0.00  0.00     0.176 C 
BRANCH  31  32
HETATM   32  O           1      26.854  38.533  48.891  0.00  0.00    -0.400 OA
HETATM   33  H           1      26.447  37.898  49.483  0.00  0.00     0.209 HD
ENDBRANCH  31  32
ENDBRANCH  12  31
BRANCH  13  34
HETATM   34  O           1      26.173  39.966  51.214  0.00  0.00    -0.395 OA
HETATM   35  H           1      26.609  39.113  51.295  0.00  0.00     0.210 HD
ENDBRANCH  13  34
BRANCH   9  36
HETATM   36  C           1      18.265  45.800  47.373  0.00  0.00     0.270 C 
BRANCH  36  37
HETATM   37  O           1      17.748  47.098  47.600  0.00  0.00    -0.387 OA
HETATM   38  C           1      16.679  47.094  48.521  0.00  0.00     0.202 C 
ENDBRANCH  36  37
ENDBRANCH   9  36
TORSDOF 8
ENDMDL
MODEL 10
REMARK VINA RESULT:      -7.1      4.791      6.312
REMARK  8 active torsions:
REMARK  status: ('A' for Active; 'I' for Inactive)
REMARK    1  A    between atoms: C_3  and  C_27 
REMARK       I    between atoms: N_12  and  C_13 
REMARK    2  A    between atoms: C_13  and  C_14 
REMARK    3  A    between atoms: C_14  and  O_15 
REMARK    4  A    between atoms: C_18  and  C_36 
REMARK    5  A    between atoms: O_19  and  C_36 
REMARK    6  A    between atoms: C_20  and  O_21 
REMARK    7  A    between atoms: C_27  and  C_28 
REMARK       I    between atoms: C_28  and  N_29 
REMARK    8  A    between atoms: N_29  and  C_30 
ROOT
HETATM    1  C           1      22.872  43.446  51.049  0.00  0.00     0.016 C 
HETATM    2  C           1      23.982  44.014  50.124  0.00  0.00    -0.030 C 
HETATM    3  C           1      23.367  44.191  48.697  0.00  0.00     0.056 C 
HETATM    4  C           1      23.341  42.852  48.025  0.00  0.00     0.056 A 
HETATM    5  C           1      24.396  42.039  48.034  0.00  0.00     0.012 A 
HETATM    6  S           1      24.087  40.801  47.313  0.00  0.00    -0.055 SA
HETATM    7  C           1      22.720  41.219  46.979  0.00  0.00     0.174 A 
HETATM    8  N           1      21.944  40.378  46.269  0.00  0.00    -0.304 N 
HETATM    9  C           1      20.648  40.519  45.868  0.00  0.00     0.247 C 
HETATM   10  O           1      19.966  41.479  46.126  0.00  0.00    -0.271 OA
HETATM   11  N           1      22.364  42.356  47.407  0.00  0.00    -0.227 NA
HETATM   12  C           1      26.464  43.465  50.993  0.00  0.00     0.008 C 
HETATM   13  C           1      26.033  44.234  52.256  0.00  0.00     0.128 C 
HETATM   14  C           1      24.384  45.402  50.658  0.00  0.00     0.013 C 
HETATM   15  H           1      22.436  39.535  46.009  0.00  0.00     0.171 HD
HETATM   16  C           1      27.474  44.335  50.205  0.00  0.00     0.020 C 
HETATM   17  C           1      25.631  42.466  48.761  0.00  0.00     0.055 C 
HETATM   18  C           1      25.222  43.041  50.140  0.00  0.00     0.012 C 
HETATM   19  C           1      25.034  45.371  52.044  0.00  0.00     0.033 C 
ENDROOT
BRANCH   3  20
HETATM   20  C           1      21.998  44.894  48.579  0.00  0.00     0.114 C 
BRANCH  20  21
HETATM   21  C           1      22.110  46.293  47.977  0.00  0.00     0.222 C 
HETATM   22  O           1      22.046  46.461  46.786  0.00  0.00    -0.273 OA
HETATM   23  N           1      22.271  47.287  48.896  0.00  0.00    -0.327 N 
HETATM   24  H           1      22.291  47.019  49.870  0.00  0.00     0.169 HD
BRANCH  23  25
HETATM   25  C           1      22.392  48.627  48.799  0.00  0.00     0.034 A 
HETATM   26  C           1      23.610  49.076  48.439  0.00  0.00     0.029 A 
HETATM   27  C           1      23.865  50.387  48.313  0.00  0.00     0.002 A 
HETATM   28  C           1      22.893  51.280  48.544  0.00  0.00     0.000 A 
HETATM   29  C           1      21.673  50.851  48.899  0.00  0.00     0.002 A 
HETATM   30  C           1      21.427  49.536  49.023  0.00  0.00     0.029 A 
ENDBRANCH  23  25
ENDBRANCH  20  21
ENDBRANCH   3  20
BRANCH  12  31
HETATM   31  C           1      27.237  42.190  51.419  0.00  0.00     0.176 C 
BRANCH  31  32
HETATM   32  O           1      26.347  41.134  51.722  0.00  0.00    -0.400 OA
HETATM   33  H           1      26.845  40.360  51.993  0.00  0.00     0.209 HD
ENDBRANCH  31  32
ENDBRANCH  12  31
BRANCH  13  34
HETATM   34  O           1      25.527  43.318  53.201  0.00  0.00    -0.395 OA
HETATM   35  H           1      25.687  42.431  52.865  0.00  0.00     0.210 HD
ENDBRANCH  13  34
BRANCH   9  36
HETATM   36  C           1      20.121  39.341  45.060  0.00  0.00     0.270 C 
BRANCH  36  37
HETATM   37  O           1      19.276  38.525  45.850  0.00  0.00    -0.387 OA
HETATM   38  C           1      18.156  38.061  45.129  0.00  0.00     0.202 C 
ENDBRANCH  36  37
ENDBRANCH   9  36
TORSDOF 8
ENDMDL
