MODEL 1
REMARK VINA RESULT:     -10.5      0.000      0.000
REMARK  8 active torsions:
REMARK  status: ('A' for Active; 'I' for Inactive)
REMARK    1  A    between atoms: C_4  and  S_5 
REMARK    2  A    between atoms: S_5  and  C_6 
REMARK    3  A    between atoms: C_6  and  C_7 
REMARK       I    between atoms: C_7  and  N_8 
REMARK    4  A    between atoms: N_8  and  C_9 
REMARK    5  A    between atoms: C_20  and  C_21 
REMARK    6  A    between atoms: C_27  and  C_28 
REMARK       I    between atoms: C_28  and  N_29 
REMARK    7  A    between atoms: N_29  and  C_30 
REMARK    8  A    between atoms: C_31  and  O_32 
ROOT
HETATM    1  C   UNL     1      25.033  46.859  51.308  1.00  0.00     0.069 C 
HETATM    2  C   UNL     1      24.547  45.575  50.686  1.00  0.00     0.019 C 
HETATM    3  N   UNL     1      23.654  45.699  49.646  1.00  0.00    -0.353 N 
HETATM    4  C   UNL     1      23.070  44.651  48.960  1.00  0.00     0.088 C 
HETATM    5  C   UNL     1      23.462  43.376  49.214  1.00  0.00     0.069 C 
HETATM    6  C   UNL     1      22.951  42.258  48.483  1.00  0.00     0.099 C 
HETATM    7  N   UNL     1      22.518  41.362  47.885  1.00  0.00    -0.192 NA
HETATM    8  C   UNL     1      24.394  43.082  50.402  1.00  0.00     0.106 C 
HETATM    9  C   UNL     1      24.898  44.338  51.095  1.00  0.00     0.046 C 
HETATM   10  H   UNL     1      23.392  46.630  49.334  1.00  0.00     0.166 HD
ENDROOT
BRANCH   4  11
HETATM   11  S   UNL     1      21.808  45.059  47.811  1.00  0.00    -0.102 SA
BRANCH  11  12
HETATM   12  C   UNL     1      20.329  45.280  48.851  1.00  0.00     0.184 C 
BRANCH  12  13
HETATM   13  C   UNL     1      19.668  46.650  48.758  1.00  0.00     0.231 C 
HETATM   14  N   UNL     1      20.415  47.684  49.291  1.00  0.00    -0.325 N 
HETATM   15  H   UNL     1      21.252  47.449  49.815  1.00  0.00     0.169 HD
HETATM   16  O   UNL     1      18.565  46.784  48.232  1.00  0.00    -0.272 OA
BRANCH  14  17
HETATM   17  C   UNL     1      20.136  49.075  49.198  1.00  0.00     0.056 A 
HETATM   18  C   UNL     1      19.312  49.665  50.174  1.00  0.00     0.060 A 
HETATM   19 CL   UNL     1      18.616  48.715  51.443  1.00  0.00    -0.082 Cl
HETATM   20  C   UNL     1      19.033  51.037  50.151  1.00  0.00     0.026 A 
HETATM   21  C   UNL     1      19.577  51.841  49.150  1.00  0.00     0.002 A 
HETATM   22  C   UNL     1      20.393  51.273  48.179  1.00  0.00     0.002 A 
HETATM   23  C   UNL     1      20.672  49.901  48.202  1.00  0.00     0.031 A 
ENDBRANCH  14  17
ENDBRANCH  12  13
ENDBRANCH  11  12
ENDBRANCH   4  11
BRANCH   8  24
HETATM   24  C   UNL     1      25.510  42.106  50.039  1.00  0.00    -0.044 A 
HETATM   25  C   UNL     1      25.675  40.883  50.707  1.00  0.00     0.008 A 
HETATM   26  C   UNL     1      26.719  40.024  50.360  1.00  0.00     0.001 A 
HETATM   27  C   UNL     1      27.616  40.377  49.353  1.00  0.00     0.000 A 
HETATM   28  C   UNL     1      27.471  41.592  48.688  1.00  0.00     0.001 A 
HETATM   29  C   UNL     1      26.425  42.450  49.028  1.00  0.00     0.008 A 
ENDBRANCH   8  24
BRANCH   9  30
HETATM   30  C   UNL     1      25.660  44.186  52.360  1.00  0.00     0.255 C 
HETATM   31  N   UNL     1      27.014  44.180  52.089  1.00  0.00    -0.321 N 
HETATM   32  H   UNL     1      27.258  44.191  51.106  1.00  0.00     0.169 HD
HETATM   33  O   UNL     1      25.067  43.951  53.400  1.00  0.00    -0.268 OA
BRANCH  31  34
HETATM   34  C   UNL     1      28.099  43.956  52.967  1.00  0.00     0.068 A 
HETATM   35  C   UNL     1      28.356  44.632  54.167  1.00  0.00     0.095 A 
HETATM   36  C   UNL     1      29.478  44.291  54.940  1.00  0.00     0.039 A 
HETATM   37  C   UNL     1      30.336  43.270  54.537  1.00  0.00     0.003 A 
HETATM   38  C   UNL     1      30.099  42.603  53.341  1.00  0.00     0.002 A 
HETATM   39  C   UNL     1      28.997  42.952  52.559  1.00  0.00     0.032 A 
BRANCH  35  40
HETATM   40  O   UNL     1      27.632  45.738  54.523  1.00  0.00    -0.354 OA
HETATM   41  C   UNL     1      28.444  46.732  55.146  1.00  0.00     0.210 C 
ENDBRANCH  35  40
ENDBRANCH  31  34
ENDBRANCH   9  30
TORSDOF 8
ENDMDL
MODEL 2
REMARK VINA RESULT:     -10.2      1.321      2.049
REMARK  8 active torsions:
REMARK  status: ('A' for Active; 'I' for Inactive)
REMARK    1  A    between atoms: C_4  and  S_5 
REMARK    2  A    between atoms: S_5  and  C_6 
REMARK    3  A    between atoms: C_6  and  C_7 
REMARK       I    between atoms: C_7  and  N_8 
REMARK    4  A    between atoms: N_8  and  C_9 
REMARK    5  A    between atoms: C_20  and  C_21 
REMARK    6  A    between atoms: C_27  and  C_28 
REMARK       I    between atoms: C_28  and  N_29 
REMARK    7  A    between atoms: N_29  and  C_30 
REMARK    8  A    between atoms: C_31  and  O_32 
ROOT
HETATM    1  C   UNL     1      25.596  47.119  52.050  1.00  0.00     0.069 C 
HETATM    2  C   UNL     1      25.000  45.935  51.333  1.00  0.00     0.019 C 
HETATM    3  N   UNL     1      24.120  46.217  50.313  1.00  0.00    -0.353 N 
HETATM    4  C   UNL     1      23.446  45.280  49.552  1.00  0.00     0.088 C 
HETATM    5  C   UNL     1      23.727  43.960  49.703  1.00  0.00     0.069 C 
HETATM    6  C   UNL     1      23.119  42.951  48.891  1.00  0.00     0.099 C 
HETATM    7  N   UNL     1      22.609  42.145  48.229  1.00  0.00    -0.192 NA
HETATM    8  C   UNL     1      24.631  43.495  50.857  1.00  0.00     0.106 C 
HETATM    9  C   UNL     1      25.243  44.644  51.642  1.00  0.00     0.046 C 
HETATM   10  H   UNL     1      23.940  47.188  50.077  1.00  0.00     0.166 HD
ENDROOT
BRANCH   4  11
HETATM   11  S   UNL     1      22.224  45.885  48.449  1.00  0.00    -0.102 SA
BRANCH  11  12
HETATM   12  C   UNL     1      22.418  47.694  48.535  1.00  0.00     0.184 C 
BRANCH  12  13
HETATM   13  C   UNL     1      21.141  48.496  48.317  1.00  0.00     0.231 C 
HETATM   14  N   UNL     1      20.942  49.517  49.228  1.00  0.00    -0.325 N 
HETATM   15  H   UNL     1      21.560  49.567  50.032  1.00  0.00     0.169 HD
HETATM   16  O   UNL     1      20.381  48.233  47.386  1.00  0.00    -0.272 OA
BRANCH  14  17
HETATM   17  C   UNL     1      19.941  50.525  49.176  1.00  0.00     0.056 A 
HETATM   18  C   UNL     1      18.796  50.382  49.982  1.00  0.00     0.060 A 
HETATM   19 CL   UNL     1      18.587  48.991  50.991  1.00  0.00    -0.082 Cl
HETATM   20  C   UNL     1      17.797  51.362  49.997  1.00  0.00     0.026 A 
HETATM   21  C   UNL     1      17.927  52.501  49.205  1.00  0.00     0.002 A 
HETATM   22  C   UNL     1      19.052  52.657  48.403  1.00  0.00     0.002 A 
HETATM   23  C   UNL     1      20.052  51.677  48.389  1.00  0.00     0.031 A 
ENDBRANCH  14  17
ENDBRANCH  12  13
ENDBRANCH  11  12
ENDBRANCH   4  11
BRANCH   8  24
HETATM   24  C   UNL     1      25.657  42.456  50.410  1.00  0.00    -0.044 A 
HETATM   25  C   UNL     1      26.685  42.767  49.507  1.00  0.00     0.008 A 
HETATM   26  C   UNL     1      27.594  41.785  49.107  1.00  0.00     0.001 A 
HETATM   27  C   UNL     1      27.482  40.483  49.592  1.00  0.00     0.000 A 
HETATM   28  C   UNL     1      26.461  40.158  50.481  1.00  0.00     0.001 A 
HETATM   29  C   UNL     1      25.555  41.137  50.887  1.00  0.00     0.008 A 
ENDBRANCH   8  24
BRANCH   9  30
HETATM   30  C   UNL     1      25.990  44.328  52.885  1.00  0.00     0.255 C 
HETATM   31  N   UNL     1      27.345  44.487  52.666  1.00  0.00    -0.321 N 
HETATM   32  H   UNL     1      27.606  44.699  51.710  1.00  0.00     0.169 HD
HETATM   33  O   UNL     1      25.400  43.856  53.844  1.00  0.00    -0.268 OA
BRANCH  31  34
HETATM   34  C   UNL     1      28.428  44.198  53.527  1.00  0.00     0.068 A 
HETATM   35  C   UNL     1      29.337  43.139  53.401  1.00  0.00     0.095 A 
HETATM   36  C   UNL     1      30.371  42.985  54.339  1.00  0.00     0.039 A 
HETATM   37  C   UNL     1      30.518  43.887  55.391  1.00  0.00     0.003 A 
HETATM   38  C   UNL     1      29.614  44.931  55.534  1.00  0.00     0.002 A 
HETATM   39  C   UNL     1      28.572  45.078  54.617  1.00  0.00     0.032 A 
BRANCH  35  40
HETATM   40  O   UNL     1      29.140  42.147  52.480  1.00  0.00    -0.354 OA
HETATM   41  C   UNL     1      28.789  40.907  53.094  1.00  0.00     0.210 C 
ENDBRANCH  35  40
ENDBRANCH  31  34
ENDBRANCH   9  30
TORSDOF 8
ENDMDL
MODEL 3
REMARK VINA RESULT:     -10.1      3.179      9.932
REMARK  8 active torsions:
REMARK  status: ('A' for Active; 'I' for Inactive)
REMARK    1  A    between atoms: C_4  and  S_5 
REMARK    2  A    between atoms: S_5  and  C_6 
REMARK    3  A    between atoms: C_6  and  C_7 
REMARK       I    between atoms: C_7  and  N_8 
REMARK    4  A    between atoms: N_8  and  C_9 
REMARK    5  A    between atoms: C_20  and  C_21 
REMARK    6  A    between atoms: C_27  and  C_28 
REMARK       I    between atoms: C_28  and  N_29 
REMARK    7  A    between atoms: N_29  and  C_30 
REMARK    8  A    between atoms: C_31  and  O_32 
ROOT
HETATM    1  C   UNL     1      22.611  43.977  48.688  1.00  0.00     0.069 C 
HETATM    2  C   UNL     1      23.384  44.913  49.582  1.00  0.00     0.019 C 
HETATM    3  N   UNL     1      24.071  44.334  50.625  1.00  0.00    -0.353 N 
HETATM    4  C   UNL     1      24.815  45.013  51.571  1.00  0.00     0.088 C 
HETATM    5  C   UNL     1      25.016  46.350  51.439  1.00  0.00     0.069 C 
HETATM    6  C   UNL     1      25.842  47.091  52.342  1.00  0.00     0.099 C 
HETATM    7  N   UNL     1      26.507  47.679  53.090  1.00  0.00    -0.192 NA
HETATM    8  C   UNL     1      24.248  47.139  50.366  1.00  0.00     0.106 C 
HETATM    9  C   UNL     1      23.421  46.255  49.447  1.00  0.00     0.046 C 
HETATM   10  H   UNL     1      24.047  43.323  50.725  1.00  0.00     0.166 HD
ENDROOT
BRANCH   4  11
HETATM   11  S   UNL     1      25.427  44.075  52.922  1.00  0.00    -0.102 SA
BRANCH  11  12
HETATM   12  C   UNL     1      27.132  43.667  52.430  1.00  0.00     0.184 C 
BRANCH  12  13
HETATM   13  C   UNL     1      28.068  43.294  53.574  1.00  0.00     0.231 C 
HETATM   14  N   UNL     1      28.858  44.332  54.030  1.00  0.00    -0.325 N 
HETATM   15  H   UNL     1      28.864  45.197  53.498  1.00  0.00     0.169 HD
HETATM   16  O   UNL     1      28.078  42.154  54.034  1.00  0.00    -0.272 OA
BRANCH  14  17
HETATM   17  C   UNL     1      29.692  44.329  55.181  1.00  0.00     0.056 A 
HETATM   18  C   UNL     1      29.541  45.359  56.128  1.00  0.00     0.060 A 
HETATM   19 CL   UNL     1      28.389  46.629  55.884  1.00  0.00    -0.082 Cl
HETATM   20  C   UNL     1      30.311  45.384  57.296  1.00  0.00     0.026 A 
HETATM   21  C   UNL     1      31.245  44.379  57.536  1.00  0.00     0.002 A 
HETATM   22  C   UNL     1      31.407  43.354  56.610  1.00  0.00     0.002 A 
HETATM   23  C   UNL     1      30.636  43.329  55.442  1.00  0.00     0.031 A 
ENDBRANCH  14  17
ENDBRANCH  12  13
ENDBRANCH  11  12
ENDBRANCH   4  11
BRANCH   8  24
HETATM   24  C   UNL     1      25.143  48.120  49.613  1.00  0.00    -0.044 A 
HETATM   25  C   UNL     1      26.539  47.988  49.593  1.00  0.00     0.008 A 
HETATM   26  C   UNL     1      27.327  48.917  48.909  1.00  0.00     0.001 A 
HETATM   27  C   UNL     1      26.733  49.992  48.249  1.00  0.00     0.000 A 
HETATM   28  C   UNL     1      25.349  50.142  48.270  1.00  0.00     0.001 A 
HETATM   29  C   UNL     1      24.559  49.213  48.946  1.00  0.00     0.008 A 
ENDBRANCH   8  24
BRANCH   9  30
HETATM   30  C   UNL     1      22.498  46.908  48.485  1.00  0.00     0.255 C 
HETATM   31  N   UNL     1      21.439  47.475  49.168  1.00  0.00    -0.321 N 
HETATM   32  H   UNL     1      21.417  47.287  50.164  1.00  0.00     0.169 HD
HETATM   33  O   UNL     1      22.670  46.762  47.286  1.00  0.00    -0.268 OA
BRANCH  31  34
HETATM   34  C   UNL     1      20.281  48.102  48.656  1.00  0.00     0.068 A 
HETATM   35  C   UNL     1      20.233  49.287  47.910  1.00  0.00     0.095 A 
HETATM   36  C   UNL     1      18.999  49.787  47.462  1.00  0.00     0.039 A 
HETATM   37  C   UNL     1      17.814  49.107  47.736  1.00  0.00     0.003 A 
HETATM   38  C   UNL     1      17.848  47.939  48.488  1.00  0.00     0.002 A 
HETATM   39  C   UNL     1      19.070  47.449  48.953  1.00  0.00     0.032 A 
BRANCH  35  40
HETATM   40  O   UNL     1      21.347  50.066  47.750  1.00  0.00    -0.354 OA
HETATM   41  C   UNL     1      21.357  51.177  48.645  1.00  0.00     0.210 C 
ENDBRANCH  35  40
ENDBRANCH  31  34
ENDBRANCH   9  30
TORSDOF 8
ENDMDL
MODEL 4
REMARK VINA RESULT:      -9.9      3.099      9.901
REMARK  8 active torsions:
REMARK  status: ('A' for Active; 'I' for Inactive)
REMARK    1  A    between atoms: C_4  and  S_5 
REMARK    2  A    between atoms: S_5  and  C_6 
REMARK    3  A    between atoms: C_6  and  C_7 
REMARK       I    between atoms: C_7  and  N_8 
REMARK    4  A    between atoms: N_8  and  C_9 
REMARK    5  A    between atoms: C_20  and  C_21 
REMARK    6  A    between atoms: C_27  and  C_28 
REMARK       I    between atoms: C_28  and  N_29 
REMARK    7  A    between atoms: N_29  and  C_30 
REMARK    8  A    between atoms: C_31  and  O_32 
ROOT
HETATM    1  C   UNL     1      23.281  43.865  47.155  1.00  0.00     0.069 C 
HETATM    2  C   UNL     1      23.753  44.776  48.259  1.00  0.00     0.019 C 
HETATM    3  N   UNL     1      24.804  44.319  49.022  1.00  0.00    -0.353 N 
HETATM    4  C   UNL     1      25.367  44.985  50.095  1.00  0.00     0.088 C 
HETATM    5  C   UNL     1      24.966  46.248  50.390  1.00  0.00     0.069 C 
HETATM    6  C   UNL     1      25.566  47.015  51.438  1.00  0.00     0.099 C 
HETATM    7  N   UNL     1      26.058  47.619  52.299  1.00  0.00    -0.192 NA
HETATM    8  C   UNL     1      23.749  46.855  49.672  1.00  0.00     0.106 C 
HETATM    9  C   UNL     1      23.203  45.970  48.563  1.00  0.00     0.046 C 
HETATM   10  H   UNL     1      25.222  43.422  48.791  1.00  0.00     0.166 HD
ENDROOT
BRANCH   4  11
HETATM   11  S   UNL     1      26.559  44.108  51.035  1.00  0.00    -0.102 SA
BRANCH  11  12
HETATM   12  C   UNL     1      25.757  43.885  52.655  1.00  0.00     0.184 C 
BRANCH  12  13
HETATM   13  C   UNL     1      26.706  43.681  53.829  1.00  0.00     0.231 C 
HETATM   14  N   UNL     1      28.001  44.107  53.601  1.00  0.00    -0.325 N 
HETATM   15  H   UNL     1      28.254  44.382  52.656  1.00  0.00     0.169 HD
HETATM   16  O   UNL     1      26.309  43.186  54.883  1.00  0.00    -0.272 OA
BRANCH  14  17
HETATM   17  C   UNL     1      29.051  44.199  54.554  1.00  0.00     0.056 A 
HETATM   18  C   UNL     1      29.197  45.394  55.284  1.00  0.00     0.060 A 
HETATM   19 CL   UNL     1      28.147  46.741  55.005  1.00  0.00    -0.082 Cl
HETATM   20  C   UNL     1      30.191  45.526  56.260  1.00  0.00     0.026 A 
HETATM   21  C   UNL     1      31.055  44.465  56.523  1.00  0.00     0.002 A 
HETATM   22  C   UNL     1      30.924  43.278  55.810  1.00  0.00     0.002 A 
HETATM   23  C   UNL     1      29.929  43.146  54.834  1.00  0.00     0.031 A 
ENDBRANCH  14  17
ENDBRANCH  12  13
ENDBRANCH  11  12
ENDBRANCH   4  11
BRANCH   8  24
HETATM   24  C   UNL     1      23.993  48.296  49.229  1.00  0.00    -0.044 A 
HETATM   25  C   UNL     1      23.011  49.289  49.355  1.00  0.00     0.008 A 
HETATM   26  C   UNL     1      23.264  50.592  48.920  1.00  0.00     0.001 A 
HETATM   27  C   UNL     1      24.493  50.916  48.347  1.00  0.00     0.000 A 
HETATM   28  C   UNL     1      25.474  49.938  48.206  1.00  0.00     0.001 A 
HETATM   29  C   UNL     1      25.226  48.637  48.644  1.00  0.00     0.008 A 
ENDBRANCH   8  24
BRANCH   9  30
HETATM   30  C   UNL     1      21.926  46.362  47.914  1.00  0.00     0.255 C 
HETATM   31  N   UNL     1      20.902  46.318  48.840  1.00  0.00    -0.321 N 
HETATM   32  H   UNL     1      21.158  45.957  49.752  1.00  0.00     0.169 HD
HETATM   33  O   UNL     1      21.885  46.521  46.705  1.00  0.00    -0.268 OA
BRANCH  31  34
HETATM   34  C   UNL     1      19.515  46.508  48.645  1.00  0.00     0.068 A 
HETATM   35  C   UNL     1      18.590  45.544  48.223  1.00  0.00     0.095 A 
HETATM   36  C   UNL     1      17.235  45.884  48.080  1.00  0.00     0.039 A 
HETATM   37  C   UNL     1      16.790  47.171  48.372  1.00  0.00     0.003 A 
HETATM   38  C   UNL     1      17.700  48.140  48.777  1.00  0.00     0.002 A 
HETATM   39  C   UNL     1      19.052  47.813  48.901  1.00  0.00     0.032 A 
BRANCH  35  40
HETATM   40  O   UNL     1      19.004  44.317  47.780  1.00  0.00    -0.354 OA
HETATM   41  C   UNL     1      18.986  44.228  46.355  1.00  0.00     0.210 C 
ENDBRANCH  35  40
ENDBRANCH  31  34
ENDBRANCH   9  30
TORSDOF 8
ENDMDL
MODEL 5
REMARK VINA RESULT:      -9.3      2.776      9.534
REMARK  8 active torsions:
REMARK  status: ('A' for Active; 'I' for Inactive)
REMARK    1  A    between atoms: C_4  and  S_5 
REMARK    2  A    between atoms: S_5  and  C_6 
REMARK    3  A    between atoms: C_6  and  C_7 
REMARK       I    between atoms: C_7  and  N_8 
REMARK    4  A    between atoms: N_8  and  C_9 
REMARK    5  A    between atoms: C_20  and  C_21 
REMARK    6  A    between atoms: C_27  and  C_28 
REMARK       I    between atoms: C_28  and  N_29 
REMARK    7  A    between atoms: N_29  and  C_30 
REMARK    8  A    between atoms: C_31  and  O_32 
ROOT
HETATM    1  C   UNL     1      21.340  45.480  47.744  1.00  0.00     0.069 C 
HETATM    2  C   UNL     1      22.426  45.813  48.734  1.00  0.00     0.019 C 
HETATM    3  N   UNL     1      22.979  44.752  49.415  1.00  0.00    -0.353 N 
HETATM    4  C   UNL     1      23.964  44.843  50.381  1.00  0.00     0.088 C 
HETATM    5  C   UNL     1      24.552  46.041  50.633  1.00  0.00     0.069 C 
HETATM    6  C   UNL     1      25.629  46.183  51.564  1.00  0.00     0.099 C 
HETATM    7  N   UNL     1      26.496  46.280  52.330  1.00  0.00    -0.192 NA
HETATM    8  C   UNL     1      23.984  47.323  50.003  1.00  0.00     0.106 C 
HETATM    9  C   UNL     1      22.860  47.060  49.014  1.00  0.00     0.046 C 
HETATM   10  H   UNL     1      22.656  43.813  49.203  1.00  0.00     0.166 HD
ENDROOT
BRANCH   4  11
HETATM   11  S   UNL     1      24.359  43.373  51.252  1.00  0.00    -0.102 SA
BRANCH  11  12
HETATM   12  C   UNL     1      25.632  42.583  50.216  1.00  0.00     0.184 C 
BRANCH  12  13
HETATM   13  C   UNL     1      26.999  42.426  50.871  1.00  0.00     0.231 C 
HETATM   14  N   UNL     1      27.222  43.272  51.941  1.00  0.00    -0.325 N 
HETATM   15  H   UNL     1      26.545  44.008  52.118  1.00  0.00     0.169 HD
HETATM   16  O   UNL     1      27.804  41.593  50.459  1.00  0.00    -0.272 OA
BRANCH  14  17
HETATM   17  C   UNL     1      28.322  43.238  52.841  1.00  0.00     0.056 A 
HETATM   18  C   UNL     1      28.081  43.458  54.211  1.00  0.00     0.060 A 
HETATM   19 CL   UNL     1      26.486  43.801  54.789  1.00  0.00    -0.082 Cl
HETATM   20  C   UNL     1      29.122  43.401  55.145  1.00  0.00     0.026 A 
HETATM   21  C   UNL     1      30.421  43.122  54.724  1.00  0.00     0.002 A 
HETATM   22  C   UNL     1      30.675  42.903  53.375  1.00  0.00     0.002 A 
HETATM   23  C   UNL     1      29.634  42.959  52.440  1.00  0.00     0.031 A 
ENDBRANCH  14  17
ENDBRANCH  12  13
ENDBRANCH  11  12
ENDBRANCH   4  11
BRANCH   8  24
HETATM   24  C   UNL     1      25.077  48.232  49.446  1.00  0.00    -0.044 A 
HETATM   25  C   UNL     1      26.438  47.917  49.564  1.00  0.00     0.008 A 
HETATM   26  C   UNL     1      27.410  48.783  49.059  1.00  0.00     0.001 A 
HETATM   27  C   UNL     1      27.038  49.975  48.441  1.00  0.00     0.000 A 
HETATM   28  C   UNL     1      25.690  50.307  48.325  1.00  0.00     0.001 A 
HETATM   29  C   UNL     1      24.716  49.441  48.823  1.00  0.00     0.008 A 
ENDBRANCH   8  24
BRANCH   9  30
HETATM   30  C   UNL     1      22.111  48.222  48.472  1.00  0.00     0.255 C 
HETATM   31  N   UNL     1      21.350  48.792  49.474  1.00  0.00    -0.321 N 
HETATM   32  H   UNL     1      21.355  48.294  50.357  1.00  0.00     0.169 HD
HETATM   33  O   UNL     1      22.124  48.445  47.273  1.00  0.00    -0.268 OA
BRANCH  31  34
HETATM   34  C   UNL     1      20.409  49.843  49.391  1.00  0.00     0.068 A 
HETATM   35  C   UNL     1      19.127  49.865  49.957  1.00  0.00     0.095 A 
HETATM   36  C   UNL     1      18.305  50.991  49.792  1.00  0.00     0.039 A 
HETATM   37  C   UNL     1      18.754  52.103  49.083  1.00  0.00     0.003 A 
HETATM   38  C   UNL     1      20.017  52.086  48.504  1.00  0.00     0.002 A 
HETATM   39  C   UNL     1      20.832  50.961  48.648  1.00  0.00     0.032 A 
BRANCH  35  40
HETATM   40  O   UNL     1      18.589  48.743  50.527  1.00  0.00    -0.354 OA
HETATM   41  C   UNL     1      17.893  47.940  49.574  1.00  0.00     0.210 C 
ENDBRANCH  35  40
ENDBRANCH  31  34
ENDBRANCH   9  30
TORSDOF 8
ENDMDL
MODEL 6
REMARK VINA RESULT:      -9.1      1.858      2.207
REMARK  8 active torsions:
REMARK  status: ('A' for Active; 'I' for Inactive)
REMARK    1  A    between atoms: C_4  and  S_5 
REMARK    2  A    between atoms: S_5  and  C_6 
REMARK    3  A    between atoms: C_6  and  C_7 
REMARK       I    between atoms: C_7  and  N_8 
REMARK    4  A    between atoms: N_8  and  C_9 
REMARK    5  A    between atoms: C_20  and  C_21 
REMARK    6  A    between atoms: C_27  and  C_28 
REMARK       I    between atoms: C_28  and  N_29 
REMARK    7  A    between atoms: N_29  and  C_30 
REMARK    8  A    between atoms: C_31  and  O_32 
ROOT
HETATM    1  C   UNL     1      25.180  47.104  51.552  1.00  0.00     0.069 C 
HETATM    2  C   UNL     1      24.615  45.881  50.876  1.00  0.00     0.019 C 
HETATM    3  N   UNL     1      23.709  46.106  49.864  1.00  0.00    -0.353 N 
HETATM    4  C   UNL     1      23.057  45.127  49.139  1.00  0.00     0.088 C 
HETATM    5  C   UNL     1      23.386  43.821  49.318  1.00  0.00     0.069 C 
HETATM    6  C   UNL     1      22.802  42.772  48.542  1.00  0.00     0.099 C 
HETATM    7  N   UNL     1      22.310  41.932  47.909  1.00  0.00    -0.192 NA
HETATM    8  C   UNL     1      24.325  43.418  50.468  1.00  0.00     0.106 C 
HETATM    9  C   UNL     1      24.908  44.608  51.213  1.00  0.00     0.046 C 
HETATM   10  H   UNL     1      23.491  47.064  49.607  1.00  0.00     0.166 HD
ENDROOT
BRANCH   4  11
HETATM   11  S   UNL     1      21.796  45.660  48.041  1.00  0.00    -0.102 SA
BRANCH  11  12
HETATM   12  C   UNL     1      21.596  47.427  48.436  1.00  0.00     0.184 C 
BRANCH  12  13
HETATM   13  C   UNL     1      20.167  47.870  48.725  1.00  0.00     0.231 C 
HETATM   14  N   UNL     1      19.485  48.359  47.626  1.00  0.00    -0.325 N 
HETATM   15  H   UNL     1      20.008  48.518  46.771  1.00  0.00     0.169 HD
HETATM   16  O   UNL     1      19.692  47.772  49.855  1.00  0.00    -0.272 OA
BRANCH  14  17
HETATM   17  C   UNL     1      18.103  48.685  47.554  1.00  0.00     0.056 A 
HETATM   18  C   UNL     1      17.200  47.703  47.105  1.00  0.00     0.060 A 
HETATM   19 CL   UNL     1      17.759  46.140  46.612  1.00  0.00    -0.082 Cl
HETATM   20  C   UNL     1      15.826  47.958  47.047  1.00  0.00     0.026 A 
HETATM   21  C   UNL     1      15.331  49.201  47.440  1.00  0.00     0.002 A 
HETATM   22  C   UNL     1      16.210  50.181  47.887  1.00  0.00     0.002 A 
HETATM   23  C   UNL     1      17.585  49.925  47.944  1.00  0.00     0.031 A 
ENDBRANCH  14  17
ENDBRANCH  12  13
ENDBRANCH  11  12
ENDBRANCH   4  11
BRANCH   8  24
HETATM   24  C   UNL     1      25.380  42.405  50.030  1.00  0.00    -0.044 A 
HETATM   25  C   UNL     1      26.324  42.698  49.035  1.00  0.00     0.008 A 
HETATM   26  C   UNL     1      27.261  41.738  48.647  1.00  0.00     0.001 A 
HETATM   27  C   UNL     1      27.262  40.475  49.237  1.00  0.00     0.000 A 
HETATM   28  C   UNL     1      26.324  40.167  50.219  1.00  0.00     0.001 A 
HETATM   29  C   UNL     1      25.390  41.125  50.613  1.00  0.00     0.008 A 
ENDBRANCH   8  24
BRANCH   9  30
HETATM   30  C   UNL     1      25.686  44.350  52.451  1.00  0.00     0.255 C 
HETATM   31  N   UNL     1      27.036  44.342  52.158  1.00  0.00    -0.321 N 
HETATM   32  H   UNL     1      27.265  44.421  51.174  1.00  0.00     0.169 HD
HETATM   33  O   UNL     1      25.104  44.049  53.480  1.00  0.00    -0.268 OA
BRANCH  31  34
HETATM   34  C   UNL     1      28.129  44.035  53.000  1.00  0.00     0.068 A 
HETATM   35  C   UNL     1      28.442  44.648  54.220  1.00  0.00     0.095 A 
HETATM   36  C   UNL     1      29.565  44.228  54.951  1.00  0.00     0.039 A 
HETATM   37  C   UNL     1      30.370  43.190  54.485  1.00  0.00     0.003 A 
HETATM   38  C   UNL     1      30.078  42.585  53.269  1.00  0.00     0.002 A 
HETATM   39  C   UNL     1      28.974  43.013  52.528  1.00  0.00     0.032 A 
BRANCH  35  40
HETATM   40  O   UNL     1      27.775  45.767  54.638  1.00  0.00    -0.354 OA
HETATM   41  C   UNL     1      28.380  46.353  55.791  1.00  0.00     0.210 C 
ENDBRANCH  35  40
ENDBRANCH  31  34
ENDBRANCH   9  30
TORSDOF 8
ENDMDL
MODEL 7
REMARK VINA RESULT:      -9.1      2.455      9.191
REMARK  8 active torsions:
REMARK  status: ('A' for Active; 'I' for Inactive)
REMARK    1  A    between atoms: C_4  and  S_5 
REMARK    2  A    between atoms: S_5  and  C_6 
REMARK    3  A    between atoms: C_6  and  C_7 
REMARK       I    between atoms: C_7  and  N_8 
REMARK    4  A    between atoms: N_8  and  C_9 
REMARK    5  A    between atoms: C_20  and  C_21 
REMARK    6  A    between atoms: C_27  and  C_28 
REMARK       I    between atoms: C_28  and  N_29 
REMARK    7  A    between atoms: N_29  and  C_30 
REMARK    8  A    between atoms: C_31  and  O_32 
ROOT
HETATM    1  C   UNL     1      24.420  47.245  50.636  1.00  0.00     0.069 C 
HETATM    2  C   UNL     1      23.932  46.315  49.554  1.00  0.00     0.019 C 
HETATM    3  N   UNL     1      24.481  45.053  49.540  1.00  0.00    -0.353 N 
HETATM    4  C   UNL     1      24.193  44.062  48.620  1.00  0.00     0.088 C 
HETATM    5  C   UNL     1      23.207  44.257  47.706  1.00  0.00     0.069 C 
HETATM    6  C   UNL     1      22.811  43.240  46.781  1.00  0.00     0.099 C 
HETATM    7  N   UNL     1      22.509  42.407  46.031  1.00  0.00    -0.192 NA
HETATM    8  C   UNL     1      22.562  45.645  47.557  1.00  0.00     0.106 C 
HETATM    9  C   UNL     1      23.035  46.643  48.601  1.00  0.00     0.046 C 
HETATM   10  H   UNL     1      25.153  44.804  50.260  1.00  0.00     0.166 HD
ENDROOT
BRANCH   4  11
HETATM   11  S   UNL     1      25.172  42.609  48.686  1.00  0.00    -0.102 SA
BRANCH  11  12
HETATM   12  C   UNL     1      25.384  42.308  50.470  1.00  0.00     0.184 C 
BRANCH  12  13
HETATM   13  C   UNL     1      26.578  43.004  51.110  1.00  0.00     0.231 C 
HETATM   14  N   UNL     1      26.947  42.495  52.341  1.00  0.00    -0.325 N 
HETATM   15  H   UNL     1      26.332  41.817  52.781  1.00  0.00     0.169 HD
HETATM   16  O   UNL     1      27.150  43.930  50.537  1.00  0.00    -0.272 OA
BRANCH  14  17
HETATM   17  C   UNL     1      28.110  42.825  53.088  1.00  0.00     0.056 A 
HETATM   18  C   UNL     1      27.982  43.692  54.190  1.00  0.00     0.060 A 
HETATM   19 CL   UNL     1      26.448  44.376  54.609  1.00  0.00    -0.082 Cl
HETATM   20  C   UNL     1      29.088  44.022  54.981  1.00  0.00     0.026 A 
HETATM   21  C   UNL     1      30.341  43.489  54.684  1.00  0.00     0.002 A 
HETATM   22  C   UNL     1      30.484  42.631  53.599  1.00  0.00     0.002 A 
HETATM   23  C   UNL     1      29.377  42.301  52.807  1.00  0.00     0.031 A 
ENDBRANCH  14  17
ENDBRANCH  12  13
ENDBRANCH  11  12
ENDBRANCH   4  11
BRANCH   8  24
HETATM   24  C   UNL     1      21.042  45.571  47.439  1.00  0.00    -0.044 A 
HETATM   25  C   UNL     1      20.234  45.143  48.502  1.00  0.00     0.008 A 
HETATM   26  C   UNL     1      18.847  45.069  48.350  1.00  0.00     0.001 A 
HETATM   27  C   UNL     1      18.253  45.411  47.136  1.00  0.00     0.000 A 
HETATM   28  C   UNL     1      19.044  45.828  46.068  1.00  0.00     0.001 A 
HETATM   29  C   UNL     1      20.428  45.908  46.218  1.00  0.00     0.008 A 
ENDBRANCH   8  24
BRANCH   9  30
HETATM   30  C   UNL     1      22.622  48.062  48.457  1.00  0.00     0.255 C 
HETATM   31  N   UNL     1      21.467  48.286  49.181  1.00  0.00    -0.321 N 
HETATM   32  H   UNL     1      21.056  47.462  49.604  1.00  0.00     0.169 HD
HETATM   33  O   UNL     1      23.204  48.785  47.665  1.00  0.00    -0.268 OA
BRANCH  31  34
HETATM   34  C   UNL     1      20.668  49.449  49.248  1.00  0.00     0.068 A 
HETATM   35  C   UNL     1      19.418  49.570  49.870  1.00  0.00     0.095 A 
HETATM   36  C   UNL     1      18.743  50.801  49.859  1.00  0.00     0.039 A 
HETATM   37  C   UNL     1      19.310  51.918  49.249  1.00  0.00     0.003 A 
HETATM   38  C   UNL     1      20.543  51.807  48.617  1.00  0.00     0.002 A 
HETATM   39  C   UNL     1      21.209  50.580  48.607  1.00  0.00     0.032 A 
BRANCH  35  40
HETATM   40  O   UNL     1      18.757  48.469  50.343  1.00  0.00    -0.354 OA
HETATM   41  C   UNL     1      18.562  48.527  51.756  1.00  0.00     0.210 C 
ENDBRANCH  35  40
ENDBRANCH  31  34
ENDBRANCH   9  30
TORSDOF 8
ENDMDL
MODEL 8
REMARK VINA RESULT:      -9.0      1.370      2.162
REMARK  8 active torsions:
REMARK  status: ('A' for Active; 'I' for Inactive)
REMARK    1  A    between atoms: C_4  and  S_5 
REMARK    2  A    between atoms: S_5  and  C_6 
REMARK    3  A    between atoms: C_6  and  C_7 
REMARK       I    between atoms: C_7  and  N_8 
REMARK    4  A    between atoms: N_8  and  C_9 
REMARK    5  A    between atoms: C_20  and  C_21 
REMARK    6  A    between atoms: C_27  and  C_28 
REMARK       I    between atoms: C_28  and  N_29 
REMARK    7  A    between atoms: N_29  and  C_30 
REMARK    8  A    between atoms: C_31  and  O_32 
ROOT
HETATM    1  C   UNL     1      26.115  46.859  49.678  1.00  0.00     0.069 C 
HETATM    2  C   UNL     1      25.408  45.535  49.536  1.00  0.00     0.019 C 
HETATM    3  N   UNL     1      24.320  45.510  48.693  1.00  0.00    -0.353 N 
HETATM    4  C   UNL     1      23.520  44.410  48.446  1.00  0.00     0.088 C 
HETATM    5  C   UNL     1      23.861  43.200  48.959  1.00  0.00     0.069 C 
HETATM    6  C   UNL     1      23.117  42.012  48.674  1.00  0.00     0.099 C 
HETATM    7  N   UNL     1      22.496  41.059  48.439  1.00  0.00    -0.192 NA
HETATM    8  C   UNL     1      25.006  43.094  49.980  1.00  0.00     0.106 C 
HETATM    9  C   UNL     1      25.744  44.406  50.193  1.00  0.00     0.046 C 
HETATM   10  H   UNL     1      24.068  46.359  48.195  1.00  0.00     0.166 HD
ENDROOT
BRANCH   4  11
HETATM   11  S   UNL     1      22.072  44.680  47.493  1.00  0.00    -0.102 SA
BRANCH  11  12
HETATM   12  C   UNL     1      20.983  45.615  48.614  1.00  0.00     0.184 C 
BRANCH  12  13
HETATM   13  C   UNL     1      21.056  47.130  48.477  1.00  0.00     0.231 C 
HETATM   14  N   UNL     1      19.857  47.784  48.690  1.00  0.00    -0.325 N 
HETATM   15  H   UNL     1      19.015  47.222  48.776  1.00  0.00     0.169 HD
HETATM   16  O   UNL     1      22.119  47.690  48.212  1.00  0.00    -0.272 OA
BRANCH  14  17
HETATM   17  C   UNL     1      19.656  49.187  48.796  1.00  0.00     0.056 A 
HETATM   18  C   UNL     1      19.114  49.704  49.987  1.00  0.00     0.060 A 
HETATM   19 CL   UNL     1      18.663  48.654  51.288  1.00  0.00    -0.082 Cl
HETATM   20  C   UNL     1      18.927  51.081  50.158  1.00  0.00     0.026 A 
HETATM   21  C   UNL     1      19.281  51.963  49.139  1.00  0.00     0.002 A 
HETATM   22  C   UNL     1      19.818  51.468  47.956  1.00  0.00     0.002 A 
HETATM   23  C   UNL     1      20.004  50.091  47.785  1.00  0.00     0.031 A 
ENDBRANCH  14  17
ENDBRANCH  12  13
ENDBRANCH  11  12
ENDBRANCH   4  11
BRANCH   8  24
HETATM   24  C   UNL     1      25.937  41.919  49.692  1.00  0.00    -0.044 A 
HETATM   25  C   UNL     1      26.830  41.925  48.610  1.00  0.00     0.008 A 
HETATM   26  C   UNL     1      27.652  40.823  48.367  1.00  0.00     0.001 A 
HETATM   27  C   UNL     1      27.585  39.700  49.189  1.00  0.00     0.000 A 
HETATM   28  C   UNL     1      26.696  39.675  50.261  1.00  0.00     0.001 A 
HETATM   29  C   UNL     1      25.878  40.776  50.510  1.00  0.00     0.008 A 
ENDBRANCH   8  24
BRANCH   9  30
HETATM   30  C   UNL     1      26.752  44.478  51.281  1.00  0.00     0.255 C 
HETATM   31  N   UNL     1      26.229  45.171  52.355  1.00  0.00    -0.321 N 
HETATM   32  H   UNL     1      25.313  45.577  52.202  1.00  0.00     0.169 HD
HETATM   33  O   UNL     1      27.890  44.086  51.079  1.00  0.00    -0.268 OA
BRANCH  31  34
HETATM   34  C   UNL     1      26.862  45.568  53.554  1.00  0.00     0.068 A 
HETATM   35  C   UNL     1      27.522  44.734  54.467  1.00  0.00     0.095 A 
HETATM   36  C   UNL     1      28.112  45.279  55.618  1.00  0.00     0.039 A 
HETATM   37  C   UNL     1      28.066  46.651  55.861  1.00  0.00     0.003 A 
HETATM   38  C   UNL     1      27.401  47.485  54.971  1.00  0.00     0.002 A 
HETATM   39  C   UNL     1      26.795  46.946  53.834  1.00  0.00     0.032 A 
BRANCH  35  40
HETATM   40  O   UNL     1      27.460  43.372  54.350  1.00  0.00    -0.354 OA
HETATM   41  C   UNL     1      28.755  42.784  54.231  1.00  0.00     0.210 C 
ENDBRANCH  35  40
ENDBRANCH  31  34
ENDBRANCH   9  30
TORSDOF 8
ENDMDL
MODEL 9
REMARK VINA RESULT:      -9.0      2.544      4.849
REMARK  8 active torsions:
REMARK  status: ('A' for Active; 'I' for Inactive)
REMARK    1  A    between atoms: C_4  and  S_5 
REMARK    2  A    between atoms: S_5  and  C_6 
REMARK    3  A    between atoms: C_6  and  C_7 
REMARK       I    between atoms: C_7  and  N_8 
REMARK    4  A    between atoms: N_8  and  C_9 
REMARK    5  A    between atoms: C_20  and  C_21 
REMARK    6  A    between atoms: C_27  and  C_28 
REMARK       I    between atoms: C_28  and  N_29 
REMARK    7  A    between atoms: N_29  and  C_30 
REMARK    8  A    between atoms: C_31  and  O_32 
ROOT
HETATM    1  C   UNL     1      24.155  42.073  48.025  1.00  0.00     0.069 C 
HETATM    2  C   UNL     1      24.834  43.192  48.773  1.00  0.00     0.019 C 
HETATM    3  N   UNL     1      24.122  44.364  48.897  1.00  0.00    -0.353 N 
HETATM    4  C   UNL     1      24.572  45.514  49.518  1.00  0.00     0.088 C 
HETATM    5  C   UNL     1      25.758  45.504  50.180  1.00  0.00     0.069 C 
HETATM    6  C   UNL     1      26.237  46.639  50.907  1.00  0.00     0.099 C 
HETATM    7  N   UNL     1      26.615  47.573  51.484  1.00  0.00    -0.192 NA
HETATM    8  C   UNL     1      26.693  44.289  50.060  1.00  0.00     0.106 C 
HETATM    9  C   UNL     1      26.079  43.132  49.289  1.00  0.00     0.046 C 
HETATM   10  H   UNL     1      23.183  44.409  48.512  1.00  0.00     0.166 HD
ENDROOT
BRANCH   4  11
HETATM   11  S   UNL     1      23.564  46.942  49.368  1.00  0.00    -0.102 SA
BRANCH  11  12
HETATM   12  C   UNL     1      21.997  46.300  48.699  1.00  0.00     0.184 C 
BRANCH  12  13
HETATM   13  C   UNL     1      20.892  47.334  48.524  1.00  0.00     0.231 C 
HETATM   14  N   UNL     1      20.917  48.362  49.447  1.00  0.00    -0.325 N 
HETATM   15  H   UNL     1      21.554  48.282  50.234  1.00  0.00     0.169 HD
HETATM   16  O   UNL     1      20.072  47.234  47.612  1.00  0.00    -0.272 OA
BRANCH  14  17
HETATM   17  C   UNL     1      20.127  49.544  49.431  1.00  0.00     0.056 A 
HETATM   18  C   UNL     1      20.618  50.676  48.755  1.00  0.00     0.060 A 
HETATM   19 CL   UNL     1      22.170  50.648  47.987  1.00  0.00    -0.082 Cl
HETATM   20  C   UNL     1      19.867  51.854  48.677  1.00  0.00     0.026 A 
HETATM   21  C   UNL     1      18.610  51.919  49.276  1.00  0.00     0.002 A 
HETATM   22  C   UNL     1      18.110  50.809  49.949  1.00  0.00     0.002 A 
HETATM   23  C   UNL     1      18.862  49.630  50.025  1.00  0.00     0.031 A 
ENDBRANCH  14  17
ENDBRANCH  12  13
ENDBRANCH  11  12
ENDBRANCH   4  11
BRANCH   8  24
HETATM   24  C   UNL     1      27.280  43.872  51.406  1.00  0.00    -0.044 A 
HETATM   25  C   UNL     1      28.663  43.754  51.610  1.00  0.00     0.008 A 
HETATM   26  C   UNL     1      29.162  43.351  52.850  1.00  0.00     0.001 A 
HETATM   27  C   UNL     1      28.291  43.051  53.896  1.00  0.00     0.000 A 
HETATM   28  C   UNL     1      26.915  43.155  53.706  1.00  0.00     0.001 A 
HETATM   29  C   UNL     1      26.413  43.562  52.470  1.00  0.00     0.008 A 
ENDBRANCH   8  24
BRANCH   9  30
HETATM   30  C   UNL     1      26.943  41.972  48.953  1.00  0.00     0.255 C 
HETATM   31  N   UNL     1      26.947  41.076  50.005  1.00  0.00    -0.321 N 
HETATM   32  H   UNL     1      26.452  41.381  50.835  1.00  0.00     0.169 HD
HETATM   33  O   UNL     1      27.622  41.996  47.940  1.00  0.00    -0.268 OA
BRANCH  31  34
HETATM   34  C   UNL     1      27.705  39.894  50.166  1.00  0.00     0.068 A 
HETATM   35  C   UNL     1      27.573  38.709  49.430  1.00  0.00     0.095 A 
HETATM   36  C   UNL     1      28.408  37.614  49.704  1.00  0.00     0.039 A 
HETATM   37  C   UNL     1      29.387  37.695  50.693  1.00  0.00     0.003 A 
HETATM   38  C   UNL     1      29.517  38.860  51.439  1.00  0.00     0.002 A 
HETATM   39  C   UNL     1      28.676  39.945  51.184  1.00  0.00     0.032 A 
BRANCH  35  40
HETATM   40  O   UNL     1      26.531  38.532  48.562  1.00  0.00    -0.354 OA
HETATM   41  C   UNL     1      26.967  38.486  47.203  1.00  0.00     0.210 C 
ENDBRANCH  35  40
ENDBRANCH  31  34
ENDBRANCH   9  30
TORSDOF 8
ENDMDL
MODEL 10
REMARK VINA RESULT:      -8.7      3.066     10.294
REMARK  8 active torsions:
REMARK  status: ('A' for Active; 'I' for Inactive)
REMARK    1  A    between atoms: C_4  and  S_5 
REMARK    2  A    between atoms: S_5  and  C_6 
REMARK    3  A    between atoms: C_6  and  C_7 
REMARK       I    between atoms: C_7  and  N_8 
REMARK    4  A    between atoms: N_8  and  C_9 
REMARK    5  A    between atoms: C_20  and  C_21 
REMARK    6  A    between atoms: C_27  and  C_28 
REMARK       I    between atoms: C_28  and  N_29 
REMARK    7  A    between atoms: N_29  and  C_30 
REMARK    8  A    between atoms: C_31  and  O_32 
ROOT
HETATM    1  C   UNL     1      20.902  44.783  46.779  1.00  0.00     0.069 C 
HETATM    2  C   UNL     1      21.789  45.460  47.793  1.00  0.00     0.019 C 
HETATM    3  N   UNL     1      22.946  44.797  48.133  1.00  0.00    -0.353 N 
HETATM    4  C   UNL     1      23.878  45.231  49.058  1.00  0.00     0.088 C 
HETATM    5  C   UNL     1      23.748  46.460  49.620  1.00  0.00     0.069 C 
HETATM    6  C   UNL     1      24.721  46.994  50.523  1.00  0.00     0.099 C 
HETATM    7  N   UNL     1      25.516  47.407  51.262  1.00  0.00    -0.192 NA
HETATM    8  C   UNL     1      22.466  47.278  49.392  1.00  0.00     0.106 C 
HETATM    9  C   UNL     1      21.511  46.633  48.400  1.00  0.00     0.046 C 
HETATM   10  H   UNL     1      23.158  43.916  47.674  1.00  0.00     0.166 HD
ENDROOT
BRANCH   4  11
HETATM   11  S   UNL     1      25.166  44.114  49.470  1.00  0.00    -0.102 SA
BRANCH  11  12
HETATM   12  C   UNL     1      24.593  43.340  51.016  1.00  0.00     0.184 C 
BRANCH  12  13
HETATM   13  C   UNL     1      25.362  43.741  52.268  1.00  0.00     0.231 C 
HETATM   14  N   UNL     1      26.604  43.149  52.393  1.00  0.00    -0.325 N 
HETATM   15  H   UNL     1      26.848  42.408  51.743  1.00  0.00     0.169 HD
HETATM   16  O   UNL     1      24.886  44.542  53.072  1.00  0.00    -0.272 OA
BRANCH  14  17
HETATM   17  C   UNL     1      27.604  43.456  53.355  1.00  0.00     0.056 A 
HETATM   18  C   UNL     1      28.623  42.515  53.595  1.00  0.00     0.060 A 
HETATM   19 CL   UNL     1      28.641  40.995  52.766  1.00  0.00    -0.082 Cl
HETATM   20  C   UNL     1      29.652  42.780  54.506  1.00  0.00     0.026 A 
HETATM   21  C   UNL     1      29.679  43.993  55.191  1.00  0.00     0.002 A 
HETATM   22  C   UNL     1      28.681  44.934  54.965  1.00  0.00     0.002 A 
HETATM   23  C   UNL     1      27.651  44.668  54.054  1.00  0.00     0.031 A 
ENDBRANCH  14  17
ENDBRANCH  12  13
ENDBRANCH  11  12
ENDBRANCH   4  11
BRANCH   8  24
HETATM   24  C   UNL     1      22.757  48.744  49.082  1.00  0.00    -0.044 A 
HETATM   25  C   UNL     1      22.136  49.789  49.781  1.00  0.00     0.008 A 
HETATM   26  C   UNL     1      22.414  51.119  49.457  1.00  0.00     0.001 A 
HETATM   27  C   UNL     1      23.303  51.421  48.427  1.00  0.00     0.000 A 
HETATM   28  C   UNL     1      23.920  50.393  47.717  1.00  0.00     0.001 A 
HETATM   29  C   UNL     1      23.649  49.065  48.042  1.00  0.00     0.008 A 
ENDBRANCH   8  24
BRANCH   9  30
HETATM   30  C   UNL     1      20.164  47.233  48.228  1.00  0.00     0.255 C 
HETATM   31  N   UNL     1      20.185  48.130  47.177  1.00  0.00    -0.321 N 
HETATM   32  H   UNL     1      21.097  48.293  46.767  1.00  0.00     0.169 HD
HETATM   33  O   UNL     1      19.292  47.009  49.051  1.00  0.00    -0.268 OA
BRANCH  31  34
HETATM   34  C   UNL     1      19.166  49.000  46.727  1.00  0.00     0.068 A 
HETATM   35  C   UNL     1      18.052  48.652  45.952  1.00  0.00     0.095 A 
HETATM   36  C   UNL     1      17.116  49.633  45.586  1.00  0.00     0.039 A 
HETATM   37  C   UNL     1      17.272  50.954  46.000  1.00  0.00     0.003 A 
HETATM   38  C   UNL     1      18.381  51.314  46.756  1.00  0.00     0.002 A 
HETATM   39  C   UNL     1      19.325  50.346  47.106  1.00  0.00     0.032 A 
BRANCH  35  40
HETATM   40  O   UNL     1      17.940  47.407  45.397  1.00  0.00    -0.354 OA
HETATM   41  C   UNL     1      17.038  46.574  46.124  1.00  0.00     0.210 C 
ENDBRANCH  35  40
ENDBRANCH  31  34
ENDBRANCH   9  30
TORSDOF 8
ENDMDL
