MODEL 1
REMARK VINA RESULT:      -9.1      0.000      0.000
REMARK  5 active torsions:
REMARK  status: ('A' for Active; 'I' for Inactive)
REMARK    1  A    between atoms: C_3  and  N_4 
REMARK       I    between atoms: N_4  and  C_5 
REMARK       I    between atoms: C_5  and  N_6 
REMARK    2  A    between atoms: N_6  and  C_7 
REMARK    3  A    between atoms: C_7  and  C_8 
REMARK    4  A    between atoms: C_11  and  N_12 
REMARK       I    between atoms: N_12  and  C_13 
REMARK    5  A    between atoms: C_13  and  C_14 
ROOT
HETATM    1  C   UNL     1      26.561  43.567  51.348  1.00  0.00    -0.040 A 
HETATM    2  C   UNL     1      26.918  44.136  50.121  1.00  0.00     0.011 A 
HETATM    3  C   UNL     1      26.169  45.185  49.573  1.00  0.00     0.030 A 
HETATM    4  C   UNL     1      25.052  45.686  50.240  1.00  0.00     0.035 A 
HETATM    5  C   UNL     1      24.707  45.130  51.480  1.00  0.00     0.030 A 
HETATM    6  C   UNL     1      25.455  44.084  52.031  1.00  0.00     0.011 A 
ENDROOT
BRANCH   1   7
HETATM    7  C   UNL     1      27.371  42.441  51.931  1.00  0.00     0.162 C 
BRANCH   7   8
HETATM    8  N   UNL     1      28.595  42.933  52.519  1.00  0.00    -0.339 N 
HETATM    9  C   UNL     1      28.633  43.171  53.878  1.00  0.00     0.321 C 
HETATM   10  N   UNL     1      29.855  43.690  54.241  1.00  0.00    -0.307 N 
HETATM   11  O   UNL     1      27.701  42.901  54.621  1.00  0.00    -0.247 OA
HETATM   12  H   UNL     1      30.605  43.332  53.664  1.00  0.00     0.170 HD
HETATM   13  H   UNL     1      29.140  43.569  51.956  1.00  0.00     0.164 HD
BRANCH  10  14
HETATM   14  C   UNL     1      30.224  44.132  55.534  1.00  0.00     0.059 A 
HETATM   15  C   UNL     1      29.821  45.330  56.144  1.00  0.00    -0.032 A 
HETATM   16  C   UNL     1      28.978  46.384  55.488  1.00  0.00     0.050 C 
HETATM   17  C   UNL     1      30.255  45.584  57.458  1.00  0.00     0.028 A 
HETATM   18  C   UNL     1      31.110  44.691  58.084  1.00  0.00     0.117 A 
HETATM   19  N   UNL     1      31.569  43.570  57.501  1.00  0.00    -0.271 NA
HETATM   20  C   UNL     1      31.117  43.323  56.248  1.00  0.00     0.146 A 
ENDBRANCH  10  14
ENDBRANCH   7   8
ENDBRANCH   1   7
BRANCH   4  21
HETATM   21  N   UNL     1      24.236  46.730  49.752  1.00  0.00    -0.323 N 
HETATM   22  C   UNL     1      24.584  48.060  49.590  1.00  0.00     0.257 C 
HETATM   23  O   UNL     1      25.686  48.554  49.804  1.00  0.00    -0.267 OA
HETATM   24  H   UNL     1      23.321  46.445  49.437  1.00  0.00     0.169 HD
BRANCH  22  25
HETATM   25  C   UNL     1      23.511  48.955  49.081  1.00  0.00     0.049 A 
HETATM   26  C   UNL     1      22.251  48.413  48.848  1.00  0.00     0.133 A 
HETATM   27  N   UNL     1      21.191  49.124  48.385  1.00  0.00    -0.272 NA
HETATM   28  C   UNL     1      21.402  50.430  48.125  1.00  0.00     0.116 A 
HETATM   29  C   UNL     1      22.622  51.061  48.308  1.00  0.00     0.020 A 
HETATM   30  C   UNL     1      23.696  50.310  48.788  1.00  0.00     0.020 A 
ENDBRANCH  22  25
ENDBRANCH   4  21
TORSDOF 5
ENDMDL
MODEL 2
REMARK VINA RESULT:      -9.0      1.916     10.272
REMARK  5 active torsions:
REMARK  status: ('A' for Active; 'I' for Inactive)
REMARK    1  A    between atoms: C_3  and  N_4 
REMARK       I    between atoms: N_4  and  C_5 
REMARK       I    between atoms: C_5  and  N_6 
REMARK    2  A    between atoms: N_6  and  C_7 
REMARK    3  A    between atoms: C_7  and  C_8 
REMARK    4  A    between atoms: C_11  and  N_12 
REMARK       I    between atoms: N_12  and  C_13 
REMARK    5  A    between atoms: C_13  and  C_14 
ROOT
HETATM    1  C   UNL     1      24.328  45.114  49.759  1.00  0.00    -0.040 A 
HETATM    2  C   UNL     1      24.098  44.213  50.805  1.00  0.00     0.011 A 
HETATM    3  C   UNL     1      25.083  43.969  51.769  1.00  0.00     0.030 A 
HETATM    4  C   UNL     1      26.315  44.620  51.708  1.00  0.00     0.035 A 
HETATM    5  C   UNL     1      26.537  45.538  50.673  1.00  0.00     0.030 A 
HETATM    6  C   UNL     1      25.554  45.787  49.710  1.00  0.00     0.011 A 
ENDROOT
BRANCH   1   7
HETATM    7  C   UNL     1      23.264  45.373  48.727  1.00  0.00     0.162 C 
BRANCH   7   8
HETATM    8  N   UNL     1      22.222  46.222  49.258  1.00  0.00    -0.339 N 
HETATM    9  C   UNL     1      21.877  47.365  48.567  1.00  0.00     0.321 C 
HETATM   10  N   UNL     1      20.915  48.070  49.254  1.00  0.00    -0.307 N 
HETATM   11  O   UNL     1      22.355  47.647  47.478  1.00  0.00    -0.247 OA
HETATM   12  H   UNL     1      20.295  47.459  49.771  1.00  0.00     0.170 HD
HETATM   13  H   UNL     1      22.171  46.294  50.263  1.00  0.00     0.164 HD
BRANCH  10  14
HETATM   14  C   UNL     1      20.383  49.330  48.890  1.00  0.00     0.059 A 
HETATM   15  C   UNL     1      21.045  50.564  48.982  1.00  0.00    -0.032 A 
HETATM   16  C   UNL     1      22.420  50.758  49.555  1.00  0.00     0.050 C 
HETATM   17  C   UNL     1      20.372  51.714  48.532  1.00  0.00     0.028 A 
HETATM   18  C   UNL     1      19.067  51.612  48.077  1.00  0.00     0.117 A 
HETATM   19  N   UNL     1      18.382  50.456  48.042  1.00  0.00    -0.271 NA
HETATM   20  C   UNL     1      19.054  49.353  48.448  1.00  0.00     0.146 A 
ENDBRANCH  10  14
ENDBRANCH   7   8
ENDBRANCH   1   7
BRANCH   4  21
HETATM   21  N   UNL     1      27.366  44.421  52.631  1.00  0.00    -0.323 N 
HETATM   22  C   UNL     1      27.544  45.054  53.849  1.00  0.00     0.257 C 
HETATM   23  O   UNL     1      26.787  45.873  54.359  1.00  0.00    -0.267 OA
HETATM   24  H   UNL     1      28.018  43.690  52.384  1.00  0.00     0.169 HD
BRANCH  22  25
HETATM   25  C   UNL     1      28.763  44.671  54.608  1.00  0.00     0.049 A 
HETATM   26  C   UNL     1      29.248  45.550  55.571  1.00  0.00     0.133 A 
HETATM   27  N   UNL     1      30.351  45.316  56.328  1.00  0.00    -0.272 NA
HETATM   28  C   UNL     1      31.010  44.161  56.102  1.00  0.00     0.116 A 
HETATM   29  C   UNL     1      30.619  43.228  55.156  1.00  0.00     0.020 A 
HETATM   30  C   UNL     1      29.480  43.490  54.392  1.00  0.00     0.020 A 
ENDBRANCH  22  25
ENDBRANCH   4  21
TORSDOF 5
ENDMDL
MODEL 3
REMARK VINA RESULT:      -8.7      6.757     13.857
REMARK  5 active torsions:
REMARK  status: ('A' for Active; 'I' for Inactive)
REMARK    1  A    between atoms: C_3  and  N_4 
REMARK       I    between atoms: N_4  and  C_5 
REMARK       I    between atoms: C_5  and  N_6 
REMARK    2  A    between atoms: N_6  and  C_7 
REMARK    3  A    between atoms: C_7  and  C_8 
REMARK    4  A    between atoms: C_11  and  N_12 
REMARK       I    between atoms: N_12  and  C_13 
REMARK    5  A    between atoms: C_13  and  C_14 
ROOT
HETATM    1  C   UNL     1      18.238  51.305  49.506  1.00  0.00    -0.040 A 
HETATM    2  C   UNL     1      18.609  50.165  50.227  1.00  0.00     0.011 A 
HETATM    3  C   UNL     1      19.943  49.743  50.265  1.00  0.00     0.030 A 
HETATM    4  C   UNL     1      20.932  50.453  49.585  1.00  0.00     0.035 A 
HETATM    5  C   UNL     1      20.564  51.607  48.879  1.00  0.00     0.030 A 
HETATM    6  C   UNL     1      19.232  52.032  48.843  1.00  0.00     0.011 A 
ENDROOT
BRANCH   1   7
HETATM    7  C   UNL     1      16.801  51.753  49.471  1.00  0.00     0.162 C 
BRANCH   7   8
HETATM    8  N   UNL     1      16.621  52.975  50.219  1.00  0.00    -0.339 N 
HETATM    9  C   UNL     1      15.342  53.365  50.560  1.00  0.00     0.321 C 
HETATM   10  N   UNL     1      15.368  54.577  51.214  1.00  0.00    -0.307 N 
HETATM   11  O   UNL     1      14.359  52.676  50.331  1.00  0.00    -0.247 OA
HETATM   12  H   UNL     1      16.207  54.691  51.766  1.00  0.00     0.170 HD
HETATM   13  H   UNL     1      17.259  53.729  50.009  1.00  0.00     0.164 HD
BRANCH  10  14
HETATM   14  C   UNL     1      14.240  55.321  51.636  1.00  0.00     0.059 A 
HETATM   15  C   UNL     1      13.473  56.183  50.838  1.00  0.00    -0.032 A 
HETATM   16  C   UNL     1      13.769  56.513  49.404  1.00  0.00     0.050 C 
HETATM   17  C   UNL     1      12.356  56.809  51.421  1.00  0.00     0.028 A 
HETATM   18  C   UNL     1      12.084  56.616  52.766  1.00  0.00     0.117 A 
HETATM   19  N   UNL     1      12.841  55.852  53.573  1.00  0.00    -0.271 NA
HETATM   20  C   UNL     1      13.893  55.230  52.990  1.00  0.00     0.146 A 
ENDBRANCH  10  14
ENDBRANCH   7   8
ENDBRANCH   1   7
BRANCH   4  21
HETATM   21  N   UNL     1      22.297  50.090  49.560  1.00  0.00    -0.323 N 
HETATM   22  C   UNL     1      22.971  49.430  48.546  1.00  0.00     0.257 C 
HETATM   23  O   UNL     1      22.502  49.084  47.467  1.00  0.00    -0.267 OA
HETATM   24  H   UNL     1      22.838  50.406  50.351  1.00  0.00     0.169 HD
BRANCH  22  25
HETATM   25  C   UNL     1      24.408  49.146  48.799  1.00  0.00     0.049 A 
HETATM   26  C   UNL     1      24.736  48.082  49.632  1.00  0.00     0.133 A 
HETATM   27  N   UNL     1      26.009  47.723  49.942  1.00  0.00    -0.272 NA
HETATM   28  C   UNL     1      26.998  48.469  49.410  1.00  0.00     0.116 A 
HETATM   29  C   UNL     1      26.776  49.558  48.582  1.00  0.00     0.020 A 
HETATM   30  C   UNL     1      25.459  49.906  48.276  1.00  0.00     0.020 A 
ENDBRANCH  22  25
ENDBRANCH   4  21
TORSDOF 5
ENDMDL
MODEL 4
REMARK VINA RESULT:      -8.7      0.959      1.455
REMARK  5 active torsions:
REMARK  status: ('A' for Active; 'I' for Inactive)
REMARK    1  A    between atoms: C_3  and  N_4 
REMARK       I    between atoms: N_4  and  C_5 
REMARK       I    between atoms: C_5  and  N_6 
REMARK    2  A    between atoms: N_6  and  C_7 
REMARK    3  A    between atoms: C_7  and  C_8 
REMARK    4  A    between atoms: C_11  and  N_12 
REMARK       I    between atoms: N_12  and  C_13 
REMARK    5  A    between atoms: C_13  and  C_14 
ROOT
HETATM    1  C   UNL     1      26.661  43.720  51.300  1.00  0.00    -0.040 A 
HETATM    2  C   UNL     1      27.098  44.631  50.331  1.00  0.00     0.011 A 
HETATM    3  C   UNL     1      26.231  45.605  49.821  1.00  0.00     0.030 A 
HETATM    4  C   UNL     1      24.913  45.689  50.270  1.00  0.00     0.035 A 
HETATM    5  C   UNL     1      24.482  44.791  51.256  1.00  0.00     0.030 A 
HETATM    6  C   UNL     1      25.347  43.819  51.769  1.00  0.00     0.011 A 
ENDROOT
BRANCH   1   7
HETATM    7  C   UNL     1      27.599  42.676  51.844  1.00  0.00     0.162 C 
BRANCH   7   8
HETATM    8  N   UNL     1      28.687  43.287  52.573  1.00  0.00    -0.339 N 
HETATM    9  C   UNL     1      28.510  43.584  53.908  1.00  0.00     0.321 C 
HETATM   10  N   UNL     1      29.627  44.211  54.413  1.00  0.00    -0.307 N 
HETATM   11  O   UNL     1      27.501  43.274  54.525  1.00  0.00    -0.247 OA
HETATM   12  H   UNL     1      30.476  43.888  53.968  1.00  0.00     0.170 HD
HETATM   13  H   UNL     1      29.262  43.938  52.059  1.00  0.00     0.164 HD
BRANCH  10  14
HETATM   14  C   UNL     1      29.771  44.734  55.720  1.00  0.00     0.059 A 
HETATM   15  C   UNL     1      30.715  44.324  56.674  1.00  0.00    -0.032 A 
HETATM   16  C   UNL     1      31.694  43.201  56.484  1.00  0.00     0.050 C 
HETATM   17  C   UNL     1      30.739  44.990  57.913  1.00  0.00     0.028 A 
HETATM   18  C   UNL     1      29.801  45.974  58.183  1.00  0.00     0.117 A 
HETATM   19  N   UNL     1      28.840  46.340  57.316  1.00  0.00    -0.271 NA
HETATM   20  C   UNL     1      28.851  45.713  56.116  1.00  0.00     0.146 A 
ENDBRANCH  10  14
ENDBRANCH   7   8
ENDBRANCH   1   7
BRANCH   4  21
HETATM   21  N   UNL     1      23.971  46.631  49.800  1.00  0.00    -0.323 N 
HETATM   22  C   UNL     1      24.154  47.995  49.646  1.00  0.00     0.257 C 
HETATM   23  O   UNL     1      25.190  48.617  49.854  1.00  0.00    -0.267 OA
HETATM   24  H   UNL     1      23.094  46.239  49.491  1.00  0.00     0.169 HD
BRANCH  22  25
HETATM   25  C   UNL     1      22.975  48.757  49.157  1.00  0.00     0.049 A 
HETATM   26  C   UNL     1      21.832  48.050  48.796  1.00  0.00     0.133 A 
HETATM   27  N   UNL     1      20.694  48.629  48.335  1.00  0.00    -0.272 NA
HETATM   28  C   UNL     1      20.702  49.972  48.211  1.00  0.00     0.116 A 
HETATM   29  C   UNL     1      21.793  50.764  48.527  1.00  0.00     0.020 A 
HETATM   30  C   UNL     1      22.951  50.146  49.003  1.00  0.00     0.020 A 
ENDBRANCH  22  25
ENDBRANCH   4  21
TORSDOF 5
ENDMDL
MODEL 5
REMARK VINA RESULT:      -8.4      0.936      1.217
REMARK  5 active torsions:
REMARK  status: ('A' for Active; 'I' for Inactive)
REMARK    1  A    between atoms: C_3  and  N_4 
REMARK       I    between atoms: N_4  and  C_5 
REMARK       I    between atoms: C_5  and  N_6 
REMARK    2  A    between atoms: N_6  and  C_7 
REMARK    3  A    between atoms: C_7  and  C_8 
REMARK    4  A    between atoms: C_11  and  N_12 
REMARK       I    between atoms: N_12  and  C_13 
REMARK    5  A    between atoms: C_13  and  C_14 
ROOT
HETATM    1  C   UNL     1      26.042  43.517  51.154  1.00  0.00    -0.040 A 
HETATM    2  C   UNL     1      26.591  44.693  50.631  1.00  0.00     0.011 A 
HETATM    3  C   UNL     1      25.771  45.677  50.065  1.00  0.00     0.030 A 
HETATM    4  C   UNL     1      24.388  45.505  50.012  1.00  0.00     0.035 A 
HETATM    5  C   UNL     1      23.836  44.337  50.555  1.00  0.00     0.030 A 
HETATM    6  C   UNL     1      24.653  43.354  51.124  1.00  0.00     0.011 A 
ENDROOT
BRANCH   1   7
HETATM    7  C   UNL     1      26.930  42.465  51.762  1.00  0.00     0.162 C 
BRANCH   7   8
HETATM    8  N   UNL     1      28.151  43.047  52.270  1.00  0.00    -0.339 N 
HETATM    9  C   UNL     1      28.322  43.150  53.635  1.00  0.00     0.321 C 
HETATM   10  N   UNL     1      29.512  43.781  53.923  1.00  0.00    -0.307 N 
HETATM   11  O   UNL     1      27.522  42.691  54.437  1.00  0.00    -0.247 OA
HETATM   12  H   UNL     1      30.224  43.580  53.233  1.00  0.00     0.170 HD
HETATM   13  H   UNL     1      28.549  43.800  51.728  1.00  0.00     0.164 HD
BRANCH  10  14
HETATM   14  C   UNL     1      29.978  44.133  55.212  1.00  0.00     0.059 A 
HETATM   15  C   UNL     1      29.671  45.312  55.909  1.00  0.00    -0.032 A 
HETATM   16  C   UNL     1      28.841  46.438  55.362  1.00  0.00     0.050 C 
HETATM   17  C   UNL     1      30.194  45.474  57.204  1.00  0.00     0.028 A 
HETATM   18  C   UNL     1      31.042  44.510  57.728  1.00  0.00     0.117 A 
HETATM   19  N   UNL     1      31.411  43.404  57.058  1.00  0.00    -0.271 NA
HETATM   20  C   UNL     1      30.873  43.247  55.826  1.00  0.00     0.146 A 
ENDBRANCH  10  14
ENDBRANCH   7   8
ENDBRANCH   1   7
BRANCH   4  21
HETATM   21  N   UNL     1      23.492  46.440  49.448  1.00  0.00    -0.323 N 
HETATM   22  C   UNL     1      23.498  47.814  49.615  1.00  0.00     0.257 C 
HETATM   23  O   UNL     1      24.317  48.464  50.254  1.00  0.00    -0.267 OA
HETATM   24  H   UNL     1      22.816  46.050  48.807  1.00  0.00     0.169 HD
BRANCH  22  25
HETATM   25  C   UNL     1      22.412  48.557  48.923  1.00  0.00     0.049 A 
HETATM   26  C   UNL     1      22.110  49.845  49.355  1.00  0.00     0.133 A 
HETATM   27  N   UNL     1      21.142  50.623  48.808  1.00  0.00    -0.272 NA
HETATM   28  C   UNL     1      20.431  50.088  47.795  1.00  0.00     0.116 A 
HETATM   29  C   UNL     1      20.642  48.810  47.302  1.00  0.00     0.020 A 
HETATM   30  C   UNL     1      21.645  48.029  47.880  1.00  0.00     0.020 A 
ENDBRANCH  22  25
ENDBRANCH   4  21
TORSDOF 5
ENDMDL
MODEL 6
REMARK VINA RESULT:      -7.8      3.115     11.038
REMARK  5 active torsions:
REMARK  status: ('A' for Active; 'I' for Inactive)
REMARK    1  A    between atoms: C_3  and  N_4 
REMARK       I    between atoms: N_4  and  C_5 
REMARK       I    between atoms: C_5  and  N_6 
REMARK    2  A    between atoms: N_6  and  C_7 
REMARK    3  A    between atoms: C_7  and  C_8 
REMARK    4  A    between atoms: C_11  and  N_12 
REMARK       I    between atoms: N_12  and  C_13 
REMARK    5  A    between atoms: C_13  and  C_14 
ROOT
HETATM    1  C   UNL     1      23.310  46.610  49.163  1.00  0.00    -0.040 A 
HETATM    2  C   UNL     1      24.210  47.515  49.735  1.00  0.00     0.011 A 
HETATM    3  C   UNL     1      25.226  47.072  50.590  1.00  0.00     0.030 A 
HETATM    4  C   UNL     1      25.364  45.717  50.888  1.00  0.00     0.035 A 
HETATM    5  C   UNL     1      24.475  44.807  50.298  1.00  0.00     0.030 A 
HETATM    6  C   UNL     1      23.461  45.247  49.441  1.00  0.00     0.011 A 
ENDROOT
BRANCH   1   7
HETATM    7  C   UNL     1      22.220  47.094  48.244  1.00  0.00     0.162 C 
BRANCH   7   8
HETATM    8  N   UNL     1      21.012  47.385  48.981  1.00  0.00    -0.339 N 
HETATM    9  C   UNL     1      20.174  48.379  48.519  1.00  0.00     0.321 C 
HETATM   10  N   UNL     1      19.114  48.552  49.380  1.00  0.00    -0.307 N 
HETATM   11  O   UNL     1      20.366  48.967  47.465  1.00  0.00    -0.247 OA
HETATM   12  H   UNL     1      18.843  47.685  49.825  1.00  0.00     0.170 HD
HETATM   13  H   UNL     1      21.067  47.300  49.985  1.00  0.00     0.164 HD
BRANCH  10  14
HETATM   14  C   UNL     1      18.102  49.536  49.272  1.00  0.00     0.059 A 
HETATM   15  C   UNL     1      16.979  49.478  48.432  1.00  0.00    -0.032 A 
HETATM   16  C   UNL     1      16.701  48.379  47.448  1.00  0.00     0.050 C 
HETATM   17  C   UNL     1      16.052  50.535  48.490  1.00  0.00     0.028 A 
HETATM   18  C   UNL     1      16.300  51.622  49.312  1.00  0.00     0.117 A 
HETATM   19  N   UNL     1      17.401  51.739  50.076  1.00  0.00    -0.271 NA
HETATM   20  C   UNL     1      18.267  50.699  50.034  1.00  0.00     0.146 A 
ENDBRANCH  10  14
ENDBRANCH   7   8
ENDBRANCH   1   7
BRANCH   4  21
HETATM   21  N   UNL     1      26.351  45.188  51.749  1.00  0.00    -0.323 N 
HETATM   22  C   UNL     1      27.409  44.363  51.406  1.00  0.00     0.257 C 
HETATM   23  O   UNL     1      27.696  43.983  50.276  1.00  0.00    -0.267 OA
HETATM   24  H   UNL     1      26.297  45.505  52.706  1.00  0.00     0.169 HD
BRANCH  22  25
HETATM   25  C   UNL     1      28.284  43.929  52.527  1.00  0.00     0.049 A 
HETATM   26  C   UNL     1      28.035  44.439  53.797  1.00  0.00     0.133 A 
HETATM   27  N   UNL     1      28.762  44.121  54.899  1.00  0.00    -0.272 NA
HETATM   28  C   UNL     1      29.793  43.270  54.724  1.00  0.00     0.116 A 
HETATM   29  C   UNL     1      30.132  42.720  53.498  1.00  0.00     0.020 A 
HETATM   30  C   UNL     1      29.369  43.060  52.380  1.00  0.00     0.020 A 
ENDBRANCH  22  25
ENDBRANCH   4  21
TORSDOF 5
ENDMDL
MODEL 7
REMARK VINA RESULT:      -7.7      5.871     10.297
REMARK  5 active torsions:
REMARK  status: ('A' for Active; 'I' for Inactive)
REMARK    1  A    between atoms: C_3  and  N_4 
REMARK       I    between atoms: N_4  and  C_5 
REMARK       I    between atoms: C_5  and  N_6 
REMARK    2  A    between atoms: N_6  and  C_7 
REMARK    3  A    between atoms: C_7  and  C_8 
REMARK    4  A    between atoms: C_11  and  N_12 
REMARK       I    between atoms: N_12  and  C_13 
REMARK    5  A    between atoms: C_13  and  C_14 
ROOT
HETATM    1  C   UNL     1      18.914  49.829  48.573  1.00  0.00    -0.040 A 
HETATM    2  C   UNL     1      17.553  49.658  48.296  1.00  0.00     0.011 A 
HETATM    3  C   UNL     1      16.666  50.739  48.371  1.00  0.00     0.030 A 
HETATM    4  C   UNL     1      17.120  52.009  48.722  1.00  0.00     0.035 A 
HETATM    5  C   UNL     1      18.487  52.185  48.980  1.00  0.00     0.030 A 
HETATM    6  C   UNL     1      19.376  51.108  48.902  1.00  0.00     0.011 A 
ENDROOT
BRANCH   1   7
HETATM    7  C   UNL     1      19.862  48.663  48.490  1.00  0.00     0.162 C 
BRANCH   7   8
HETATM    8  N   UNL     1      21.038  48.893  49.296  1.00  0.00    -0.339 N 
HETATM    9  C   UNL     1      22.282  48.698  48.731  1.00  0.00     0.321 C 
HETATM   10  N   UNL     1      23.272  48.907  49.664  1.00  0.00    -0.307 N 
HETATM   11  O   UNL     1      22.434  48.422  47.550  1.00  0.00    -0.247 OA
HETATM   12  H   UNL     1      23.014  49.615  50.338  1.00  0.00     0.170 HD
HETATM   13  H   UNL     1      20.967  48.652  50.273  1.00  0.00     0.164 HD
BRANCH  10  14
HETATM   14  C   UNL     1      24.660  48.716  49.465  1.00  0.00     0.059 A 
HETATM   15  C   UNL     1      25.445  47.701  50.034  1.00  0.00    -0.032 A 
HETATM   16  C   UNL     1      24.945  46.680  51.014  1.00  0.00     0.050 C 
HETATM   17  C   UNL     1      26.807  47.642  49.687  1.00  0.00     0.028 A 
HETATM   18  C   UNL     1      27.348  48.612  48.858  1.00  0.00     0.117 A 
HETATM   19  N   UNL     1      26.638  49.637  48.354  1.00  0.00    -0.271 NA
HETATM   20  C   UNL     1      25.321  49.661  48.670  1.00  0.00     0.146 A 
ENDBRANCH  10  14
ENDBRANCH   7   8
ENDBRANCH   1   7
BRANCH   4  21
HETATM   21  N   UNL     1      16.292  53.148  48.834  1.00  0.00    -0.323 N 
HETATM   22  C   UNL     1      15.113  53.260  49.551  1.00  0.00     0.257 C 
HETATM   23  O   UNL     1      14.605  52.393  50.254  1.00  0.00    -0.267 OA
HETATM   24  H   UNL     1      16.645  53.979  48.383  1.00  0.00     0.169 HD
BRANCH  22  25
HETATM   25  C   UNL     1      14.425  54.576  49.468  1.00  0.00     0.049 A 
HETATM   26  C   UNL     1      15.060  55.691  50.006  1.00  0.00     0.133 A 
HETATM   27  N   UNL     1      14.536  56.943  49.994  1.00  0.00    -0.272 NA
HETATM   28  C   UNL     1      13.317  57.088  49.435  1.00  0.00     0.116 A 
HETATM   29  C   UNL     1      12.596  56.039  48.888  1.00  0.00     0.020 A 
HETATM   30  C   UNL     1      13.156  54.760  48.910  1.00  0.00     0.020 A 
ENDBRANCH  22  25
ENDBRANCH   4  21
TORSDOF 5
ENDMDL
MODEL 8
REMARK VINA RESULT:      -7.7      3.313     10.205
REMARK  5 active torsions:
REMARK  status: ('A' for Active; 'I' for Inactive)
REMARK    1  A    between atoms: C_3  and  N_4 
REMARK       I    between atoms: N_4  and  C_5 
REMARK       I    between atoms: C_5  and  N_6 
REMARK    2  A    between atoms: N_6  and  C_7 
REMARK    3  A    between atoms: C_7  and  C_8 
REMARK    4  A    between atoms: C_11  and  N_12 
REMARK       I    between atoms: N_12  and  C_13 
REMARK    5  A    between atoms: C_13  and  C_14 
ROOT
HETATM    1  C   UNL     1      25.867  42.674  49.602  1.00  0.00    -0.040 A 
HETATM    2  C   UNL     1      26.397  43.966  49.686  1.00  0.00     0.011 A 
HETATM    3  C   UNL     1      27.115  44.374  50.817  1.00  0.00     0.030 A 
HETATM    4  C   UNL     1      27.319  43.498  51.883  1.00  0.00     0.035 A 
HETATM    5  C   UNL     1      26.807  42.197  51.790  1.00  0.00     0.030 A 
HETATM    6  C   UNL     1      26.092  41.786  50.660  1.00  0.00     0.011 A 
ENDROOT
BRANCH   1   7
HETATM    7  C   UNL     1      25.097  42.243  48.383  1.00  0.00     0.162 C 
BRANCH   7   8
HETATM    8  N   UNL     1      24.312  43.334  47.853  1.00  0.00    -0.339 N 
HETATM    9  C   UNL     1      22.964  43.387  48.144  1.00  0.00     0.321 C 
HETATM   10  N   UNL     1      22.377  44.456  47.506  1.00  0.00    -0.307 N 
HETATM   11  O   UNL     1      22.421  42.597  48.902  1.00  0.00    -0.247 OA
HETATM   12  H   UNL     1      23.011  45.239  47.416  1.00  0.00     0.170 HD
HETATM   13  H   UNL     1      24.568  43.668  46.936  1.00  0.00     0.164 HD
BRANCH  10  14
HETATM   14  C   UNL     1      20.997  44.773  47.506  1.00  0.00     0.059 A 
HETATM   15  C   UNL     1      20.023  44.224  46.659  1.00  0.00    -0.032 A 
HETATM   16  C   UNL     1      20.302  43.248  45.552  1.00  0.00     0.050 C 
HETATM   17  C   UNL     1      18.687  44.629  46.832  1.00  0.00     0.028 A 
HETATM   18  C   UNL     1      18.380  45.596  47.776  1.00  0.00     0.117 A 
HETATM   19  N   UNL     1      19.300  46.192  48.555  1.00  0.00    -0.271 NA
HETATM   20  C   UNL     1      20.576  45.767  48.399  1.00  0.00     0.146 A 
ENDBRANCH  10  14
ENDBRANCH   7   8
ENDBRANCH   1   7
BRANCH   4  21
HETATM   21  N   UNL     1      28.019  43.832  53.064  1.00  0.00    -0.323 N 
HETATM   22  C   UNL     1      29.320  43.490  53.393  1.00  0.00     0.257 C 
HETATM   23  O   UNL     1      30.108  42.869  52.689  1.00  0.00    -0.267 OA
HETATM   24  H   UNL     1      27.520  44.437  53.699  1.00  0.00     0.169 HD
BRANCH  22  25
HETATM   25  C   UNL     1      29.796  43.953  54.724  1.00  0.00     0.049 A 
HETATM   26  C   UNL     1      29.221  45.095  55.273  1.00  0.00     0.133 A 
HETATM   27  N   UNL     1      29.569  45.617  56.477  1.00  0.00    -0.272 NA
HETATM   28  C   UNL     1      30.546  44.982  57.156  1.00  0.00     0.116 A 
HETATM   29  C   UNL     1      31.192  43.848  56.689  1.00  0.00     0.020 A 
HETATM   30  C   UNL     1      30.815  43.328  55.450  1.00  0.00     0.020 A 
ENDBRANCH  22  25
ENDBRANCH   4  21
TORSDOF 5
ENDMDL
MODEL 9
REMARK VINA RESULT:      -7.6      3.064      3.481
REMARK  5 active torsions:
REMARK  status: ('A' for Active; 'I' for Inactive)
REMARK    1  A    between atoms: C_3  and  N_4 
REMARK       I    between atoms: N_4  and  C_5 
REMARK       I    between atoms: C_5  and  N_6 
REMARK    2  A    between atoms: N_6  and  C_7 
REMARK    3  A    between atoms: C_7  and  C_8 
REMARK    4  A    between atoms: C_11  and  N_12 
REMARK       I    between atoms: N_12  and  C_13 
REMARK    5  A    between atoms: C_13  and  C_14 
ROOT
HETATM    1  C   UNL     1      25.462  42.933  50.171  1.00  0.00    -0.040 A 
HETATM    2  C   UNL     1      25.449  44.210  49.601  1.00  0.00     0.011 A 
HETATM    3  C   UNL     1      24.239  44.862  49.331  1.00  0.00     0.030 A 
HETATM    4  C   UNL     1      23.021  44.252  49.628  1.00  0.00     0.035 A 
HETATM    5  C   UNL     1      23.034  42.981  50.219  1.00  0.00     0.030 A 
HETATM    6  C   UNL     1      24.241  42.329  50.492  1.00  0.00     0.011 A 
ENDROOT
BRANCH   1   7
HETATM    7  C   UNL     1      26.765  42.238  50.459  1.00  0.00     0.162 C 
BRANCH   7   8
HETATM    8  N   UNL     1      27.034  42.208  51.878  1.00  0.00    -0.339 N 
HETATM    9  C   UNL     1      27.874  43.160  52.418  1.00  0.00     0.321 C 
HETATM   10  N   UNL     1      28.055  42.934  53.763  1.00  0.00    -0.307 N 
HETATM   11  O   UNL     1      28.334  44.082  51.761  1.00  0.00    -0.247 OA
HETATM   12  H   UNL     1      27.232  42.534  54.194  1.00  0.00     0.170 HD
HETATM   13  H   UNL     1      27.087  41.295  52.306  1.00  0.00     0.164 HD
BRANCH  10  14
HETATM   14  C   UNL     1      28.916  43.658  54.623  1.00  0.00     0.059 A 
HETATM   15  C   UNL     1      28.679  44.941  55.139  1.00  0.00    -0.032 A 
HETATM   16  C   UNL     1      27.491  45.795  54.802  1.00  0.00     0.050 C 
HETATM   17  C   UNL     1      29.632  45.490  56.017  1.00  0.00     0.028 A 
HETATM   18  C   UNL     1      30.794  44.788  56.295  1.00  0.00     0.117 A 
HETATM   19  N   UNL     1      31.081  43.587  55.762  1.00  0.00    -0.271 NA
HETATM   20  C   UNL     1      30.140  43.059  54.945  1.00  0.00     0.146 A 
ENDBRANCH  10  14
ENDBRANCH   7   8
ENDBRANCH   1   7
BRANCH   4  21
HETATM   21  N   UNL     1      21.758  44.834  49.376  1.00  0.00    -0.323 N 
HETATM   22  C   UNL     1      21.050  44.817  48.187  1.00  0.00     0.257 C 
HETATM   23  O   UNL     1      21.382  44.253  47.151  1.00  0.00    -0.267 OA
HETATM   24  H   UNL     1      21.313  45.251  50.180  1.00  0.00     0.169 HD
BRANCH  22  25
HETATM   25  C   UNL     1      19.750  45.540  48.196  1.00  0.00     0.049 A 
HETATM   26  C   UNL     1      18.643  44.920  47.625  1.00  0.00     0.133 A 
HETATM   27  N   UNL     1      17.405  45.475  47.569  1.00  0.00    -0.272 NA
HETATM   28  C   UNL     1      17.269  46.710  48.092  1.00  0.00     0.116 A 
HETATM   29  C   UNL     1      18.311  47.419  48.668  1.00  0.00     0.020 A 
HETATM   30  C   UNL     1      19.574  46.826  48.715  1.00  0.00     0.020 A 
ENDBRANCH  22  25
ENDBRANCH   4  21
TORSDOF 5
ENDMDL
MODEL 10
REMARK VINA RESULT:      -7.4      6.593     11.574
REMARK  5 active torsions:
REMARK  status: ('A' for Active; 'I' for Inactive)
REMARK    1  A    between atoms: C_3  and  N_4 
REMARK       I    between atoms: N_4  and  C_5 
REMARK       I    between atoms: C_5  and  N_6 
REMARK    2  A    between atoms: N_6  and  C_7 
REMARK    3  A    between atoms: C_7  and  C_8 
REMARK    4  A    between atoms: C_11  and  N_12 
REMARK       I    between atoms: N_12  and  C_13 
REMARK    5  A    between atoms: C_13  and  C_14 
ROOT
HETATM    1  C   UNL     1      17.120  50.518  48.385  1.00  0.00    -0.040 A 
HETATM    2  C   UNL     1      15.769  50.810  48.601  1.00  0.00     0.011 A 
HETATM    3  C   UNL     1      15.388  51.932  49.347  1.00  0.00     0.030 A 
HETATM    4  C   UNL     1      16.349  52.785  49.889  1.00  0.00     0.035 A 
HETATM    5  C   UNL     1      17.702  52.505  49.655  1.00  0.00     0.030 A 
HETATM    6  C   UNL     1      18.086  51.386  48.908  1.00  0.00     0.011 A 
ENDROOT
BRANCH   1   7
HETATM    7  C   UNL     1      17.522  49.311  47.582  1.00  0.00     0.162 C 
BRANCH   7   8
HETATM    8  N   UNL     1      18.948  49.292  47.352  1.00  0.00    -0.339 N 
HETATM    9  C   UNL     1      19.742  48.503  48.159  1.00  0.00     0.321 C 
HETATM   10  N   UNL     1      21.069  48.662  47.829  1.00  0.00    -0.307 N 
HETATM   11  O   UNL     1      19.282  47.751  49.005  1.00  0.00    -0.247 OA
HETATM   12  H   UNL     1      21.195  48.844  46.842  1.00  0.00     0.170 HD
HETATM   13  H   UNL     1      19.366  50.160  47.054  1.00  0.00     0.164 HD
BRANCH  10  14
HETATM   14  C   UNL     1      22.171  48.075  48.497  1.00  0.00     0.059 A 
HETATM   15  C   UNL     1      22.556  46.727  48.430  1.00  0.00    -0.032 A 
HETATM   16  C   UNL     1      21.809  45.659  47.685  1.00  0.00     0.050 C 
HETATM   17  C   UNL     1      23.709  46.331  49.131  1.00  0.00     0.028 A 
HETATM   18  C   UNL     1      24.390  47.252  49.911  1.00  0.00     0.117 A 
HETATM   19  N   UNL     1      24.006  48.533  50.050  1.00  0.00    -0.271 NA
HETATM   20  C   UNL     1      22.914  48.907  49.344  1.00  0.00     0.146 A 
ENDBRANCH  10  14
ENDBRANCH   7   8
ENDBRANCH   1   7
BRANCH   4  21
HETATM   21  N   UNL     1      16.052  53.928  50.663  1.00  0.00    -0.323 N 
HETATM   22  C   UNL     1      15.312  55.033  50.277  1.00  0.00     0.257 C 
HETATM   23  O   UNL     1      14.748  55.189  49.200  1.00  0.00    -0.267 OA
HETATM   24  H   UNL     1      16.372  53.891  51.620  1.00  0.00     0.169 HD
BRANCH  22  25
HETATM   25  C   UNL     1      15.181  56.113  51.291  1.00  0.00     0.049 A 
HETATM   26  C   UNL     1      15.266  57.435  50.866  1.00  0.00     0.133 A 
HETATM   27  N   UNL     1      15.164  58.507  51.692  1.00  0.00    -0.272 NA
HETATM   28  C   UNL     1      14.986  58.250  53.004  1.00  0.00     0.116 A 
HETATM   29  C   UNL     1      14.904  56.971  53.529  1.00  0.00     0.020 A 
HETATM   30  C   UNL     1      15.009  55.884  52.659  1.00  0.00     0.020 A 
ENDBRANCH  22  25
ENDBRANCH   4  21
TORSDOF 5
ENDMDL
