MODEL 1
REMARK VINA RESULT:      -9.5      0.000      0.000
REMARK  5 active torsions:
REMARK  status: ('A' for Active; 'I' for Inactive)
REMARK    1  A    between atoms: C_7  and  C_8 
REMARK    2  A    between atoms: C_16  and  C_17 
REMARK    3  A    between atoms: C_20  and  O_21 
REMARK    4  A    between atoms: C_24  and  C_25 
REMARK       I    between atoms: C_25  and  N_26 
REMARK    5  A    between atoms: N_26  and  C_27 
ROOT
HETATM    1  C   UNL     1      27.921  38.646  49.526  1.00  0.00     0.070 C 
HETATM    2  C   UNL     1      27.652  40.017  50.094  1.00  0.00     0.037 C 
HETATM    3  N   UNL     1      27.798  40.133  51.477  1.00  0.00    -0.192 N 
HETATM    4  C   UNL     1      27.954  41.328  52.085  1.00  0.00     0.726 A 
HETATM    5  N   UNL     1      27.685  42.474  51.393  1.00  0.00    -0.083 N 
HETATM    6  N   UNL     1      28.049  43.569  52.089  1.00  0.00    -0.135 NA
HETATM    7  C   UNL     1      28.495  43.019  53.233  1.00  0.00     0.199 A 
HETATM    8  N   UNL     1      28.422  41.635  53.267  1.00  0.00    -0.041 NA
HETATM    9  C   UNL     1      27.230  42.497  49.999  1.00  0.00     0.202 C 
HETATM   10  C   UNL     1      27.376  41.122  49.356  1.00  0.00     0.062 C 
HETATM   11  H   UNL     1      28.142  39.314  51.973  1.00  0.00     0.184 HD
ENDROOT
BRANCH  10  12
HETATM   12  C   UNL     1      27.334  41.162  47.870  1.00  0.00     0.256 C 
HETATM   13  N   UNL     1      26.118  40.807  47.332  1.00  0.00    -0.323 N 
HETATM   14  H   UNL     1      25.368  40.601  47.980  1.00  0.00     0.169 HD
HETATM   15  O   UNL     1      28.335  41.533  47.270  1.00  0.00    -0.267 OA
BRANCH  13  16
HETATM   16  C   UNL     1      25.802  40.675  45.963  1.00  0.00     0.035 A 
HETATM   17  C   UNL     1      26.518  39.872  45.072  1.00  0.00     0.029 A 
HETATM   18  C   UNL     1      26.129  39.774  43.731  1.00  0.00     0.002 A 
HETATM   19  C   UNL     1      25.017  40.474  43.272  1.00  0.00     0.000 A 
HETATM   20  C   UNL     1      24.296  41.277  44.151  1.00  0.00     0.002 A 
HETATM   21  C   UNL     1      24.689  41.381  45.488  1.00  0.00     0.029 A 
ENDBRANCH  13  16
ENDBRANCH  10  12
BRANCH   9  22
HETATM   22  C   UNL     1      25.795  43.012  49.911  1.00  0.00    -0.028 A 
HETATM   23  C   UNL     1      25.539  44.249  49.292  1.00  0.00     0.012 A 
HETATM   24  C   UNL     1      24.234  44.734  49.177  1.00  0.00     0.037 A 
HETATM   25  C   UNL     1      23.177  43.981  49.675  1.00  0.00     0.065 A 
HETATM   26  C   UNL     1      23.403  42.753  50.281  1.00  0.00     0.037 A 
HETATM   27  C   UNL     1      24.706  42.267  50.398  1.00  0.00     0.012 A 
BRANCH  25  28
HETATM   28  O   UNL     1      21.888  44.418  49.586  1.00  0.00    -0.361 OA
HETATM   29  H   UNL     1      21.897  45.370  49.392  1.00  0.00     0.217 HD
ENDBRANCH  25  28
ENDBRANCH   9  22
BRANCH   7  30
HETATM   30  C   UNL     1      29.086  43.790  54.325  1.00  0.00     0.014 A 
HETATM   31  C   UNL     1      30.258  43.354  54.963  1.00  0.00     0.017 A 
HETATM   32  C   UNL     1      30.796  44.072  56.035  1.00  0.00     0.025 A 
HETATM   33  C   UNL     1      30.166  45.234  56.475  1.00  0.00     0.034 A 
HETATM   34 CL   UNL     1      30.820  46.112  57.802  1.00  0.00    -0.084 Cl
HETATM   35  C   UNL     1      29.005  45.686  55.850  1.00  0.00     0.025 A 
HETATM   36  C   UNL     1      28.469  44.966  54.778  1.00  0.00     0.017 A 
ENDBRANCH   7  30
TORSDOF 5
ENDMDL
MODEL 2
REMARK VINA RESULT:      -9.2      6.301      9.416
REMARK  5 active torsions:
REMARK  status: ('A' for Active; 'I' for Inactive)
REMARK    1  A    between atoms: C_7  and  C_8 
REMARK    2  A    between atoms: C_16  and  C_17 
REMARK    3  A    between atoms: C_20  and  O_21 
REMARK    4  A    between atoms: C_24  and  C_25 
REMARK       I    between atoms: C_25  and  N_26 
REMARK    5  A    between atoms: N_26  and  C_27 
ROOT
HETATM    1  C   UNL     1      22.855  43.964  47.411  1.00  0.00     0.070 C 
HETATM    2  C   UNL     1      22.910  45.372  47.949  1.00  0.00     0.037 C 
HETATM    3  N   UNL     1      22.067  46.289  47.319  1.00  0.00    -0.192 N 
HETATM    4  C   UNL     1      21.727  47.463  47.892  1.00  0.00     0.726 A 
HETATM    5  N   UNL     1      22.426  47.910  48.977  1.00  0.00    -0.083 N 
HETATM    6  N   UNL     1      21.855  49.002  49.519  1.00  0.00    -0.135 NA
HETATM    7  C   UNL     1      20.822  49.204  48.680  1.00  0.00     0.199 A 
HETATM    8  N   UNL     1      20.737  48.281  47.649  1.00  0.00    -0.041 NA
HETATM    9  C   UNL     1      23.550  47.182  49.579  1.00  0.00     0.202 C 
HETATM   10  C   UNL     1      23.637  45.763  49.027  1.00  0.00     0.062 C 
HETATM   11  H   UNL     1      21.439  45.922  46.609  1.00  0.00     0.184 HD
ENDROOT
BRANCH  10  12
HETATM   12  C   UNL     1      24.461  44.856  49.870  1.00  0.00     0.256 C 
HETATM   13  N   UNL     1      25.538  44.303  49.214  1.00  0.00    -0.323 N 
HETATM   14  H   UNL     1      25.693  44.591  48.256  1.00  0.00     0.169 HD
HETATM   15  O   UNL     1      24.150  44.713  51.046  1.00  0.00    -0.267 OA
BRANCH  13  16
HETATM   16  C   UNL     1      26.445  43.350  49.726  1.00  0.00     0.035 A 
HETATM   17  C   UNL     1      27.181  43.526  50.899  1.00  0.00     0.029 A 
HETATM   18  C   UNL     1      28.044  42.524  51.355  1.00  0.00     0.002 A 
HETATM   19  C   UNL     1      28.175  41.335  50.643  1.00  0.00     0.000 A 
HETATM   20  C   UNL     1      27.446  41.149  49.472  1.00  0.00     0.002 A 
HETATM   21  C   UNL     1      26.589  42.153  49.013  1.00  0.00     0.029 A 
ENDBRANCH  13  16
ENDBRANCH  10  12
BRANCH   9  22
HETATM   22  C   UNL     1      24.856  47.948  49.377  1.00  0.00    -0.028 A 
HETATM   23  C   UNL     1      24.880  49.064  48.522  1.00  0.00     0.012 A 
HETATM   24  C   UNL     1      26.055  49.797  48.336  1.00  0.00     0.037 A 
HETATM   25  C   UNL     1      27.211  49.419  49.010  1.00  0.00     0.065 A 
HETATM   26  C   UNL     1      27.210  48.328  49.867  1.00  0.00     0.037 A 
HETATM   27  C   UNL     1      26.037  47.594  50.054  1.00  0.00     0.012 A 
BRANCH  25  28
HETATM   28  O   UNL     1      28.379  50.105  48.856  1.00  0.00    -0.361 OA
HETATM   29  H   UNL     1      28.660  50.034  47.929  1.00  0.00     0.217 HD
ENDBRANCH  25  28
ENDBRANCH   9  22
BRANCH   7  30
HETATM   30  C   UNL     1      19.819  50.250  48.869  1.00  0.00     0.014 A 
HETATM   31  C   UNL     1      19.976  51.513  48.276  1.00  0.00     0.017 A 
HETATM   32  C   UNL     1      19.036  52.525  48.494  1.00  0.00     0.025 A 
HETATM   33  C   UNL     1      17.931  52.279  49.305  1.00  0.00     0.034 A 
HETATM   34 CL   UNL     1      16.780  53.527  49.584  1.00  0.00    -0.084 Cl
HETATM   35  C   UNL     1      17.755  51.030  49.897  1.00  0.00     0.025 A 
HETATM   36  C   UNL     1      18.696  50.020  49.678  1.00  0.00     0.017 A 
ENDBRANCH   7  30
TORSDOF 5
ENDMDL
MODEL 3
REMARK VINA RESULT:      -9.2      6.325      9.871
REMARK  5 active torsions:
REMARK  status: ('A' for Active; 'I' for Inactive)
REMARK    1  A    between atoms: C_7  and  C_8 
REMARK    2  A    between atoms: C_16  and  C_17 
REMARK    3  A    between atoms: C_20  and  O_21 
REMARK    4  A    between atoms: C_24  and  C_25 
REMARK       I    between atoms: C_25  and  N_26 
REMARK    5  A    between atoms: N_26  and  C_27 
ROOT
HETATM    1  C   UNL     1      23.189  43.860  47.904  1.00  0.00     0.070 C 
HETATM    2  C   UNL     1      23.213  45.307  48.327  1.00  0.00     0.037 C 
HETATM    3  N   UNL     1      22.314  46.142  47.661  1.00  0.00    -0.192 N 
HETATM    4  C   UNL     1      21.952  47.345  48.153  1.00  0.00     0.726 A 
HETATM    5  N   UNL     1      22.673  47.901  49.171  1.00  0.00    -0.083 N 
HETATM    6  N   UNL     1      22.082  49.013  49.647  1.00  0.00    -0.135 NA
HETATM    7  C   UNL     1      21.013  49.112  48.836  1.00  0.00     0.199 A 
HETATM    8  N   UNL     1      20.923  48.107  47.886  1.00  0.00    -0.041 NA
HETATM    9  C   UNL     1      23.844  47.262  49.783  1.00  0.00     0.202 C 
HETATM   10  C   UNL     1      23.964  45.807  49.341  1.00  0.00     0.062 C 
HETATM   11  H   UNL     1      21.674  45.698  47.007  1.00  0.00     0.184 HD
ENDROOT
BRANCH  10  12
HETATM   12  C   UNL     1      24.850  44.999  50.220  1.00  0.00     0.256 C 
HETATM   13  N   UNL     1      24.798  45.352  51.549  1.00  0.00    -0.323 N 
HETATM   14  H   UNL     1      24.144  46.081  51.809  1.00  0.00     0.169 HD
HETATM   15  O   UNL     1      25.499  44.092  49.714  1.00  0.00    -0.267 OA
BRANCH  13  16
HETATM   16  C   UNL     1      25.579  44.824  52.599  1.00  0.00     0.035 A 
HETATM   17  C   UNL     1      25.049  44.328  53.792  1.00  0.00     0.029 A 
HETATM   18  C   UNL     1      25.889  43.798  54.778  1.00  0.00     0.002 A 
HETATM   19  C   UNL     1      27.265  43.755  54.577  1.00  0.00     0.000 A 
HETATM   20  C   UNL     1      27.805  44.247  53.392  1.00  0.00     0.002 A 
HETATM   21  C   UNL     1      26.967  44.783  52.410  1.00  0.00     0.029 A 
ENDBRANCH  13  16
ENDBRANCH  10  12
BRANCH   9  22
HETATM   22  C   UNL     1      25.112  48.053  49.470  1.00  0.00    -0.028 A 
HETATM   23  C   UNL     1      25.043  49.164  48.612  1.00  0.00     0.012 A 
HETATM   24  C   UNL     1      26.183  49.920  48.326  1.00  0.00     0.037 A 
HETATM   25  C   UNL     1      27.398  49.570  48.904  1.00  0.00     0.065 A 
HETATM   26  C   UNL     1      27.490  48.484  49.762  1.00  0.00     0.037 A 
HETATM   27  C   UNL     1      26.353  47.727  50.049  1.00  0.00     0.012 A 
BRANCH  25  28
HETATM   28  O   UNL     1      28.535  50.278  48.651  1.00  0.00    -0.361 OA
HETATM   29  H   UNL     1      29.236  49.657  48.390  1.00  0.00     0.217 HD
ENDBRANCH  25  28
ENDBRANCH   9  22
BRANCH   7  30
HETATM   30  C   UNL     1      19.979  50.135  48.982  1.00  0.00     0.014 A 
HETATM   31  C   UNL     1      20.125  51.396  48.381  1.00  0.00     0.017 A 
HETATM   32  C   UNL     1      19.155  52.387  48.558  1.00  0.00     0.025 A 
HETATM   33  C   UNL     1      18.030  52.122  49.336  1.00  0.00     0.034 A 
HETATM   34 CL   UNL     1      16.841  53.345  49.564  1.00  0.00    -0.084 Cl
HETATM   35  C   UNL     1      17.865  50.875  49.934  1.00  0.00     0.025 A 
HETATM   36  C   UNL     1      18.836  49.885  49.757  1.00  0.00     0.017 A 
ENDBRANCH   7  30
TORSDOF 5
ENDMDL
MODEL 4
REMARK VINA RESULT:      -8.7      1.591      2.248
REMARK  5 active torsions:
REMARK  status: ('A' for Active; 'I' for Inactive)
REMARK    1  A    between atoms: C_7  and  C_8 
REMARK    2  A    between atoms: C_16  and  C_17 
REMARK    3  A    between atoms: C_20  and  O_21 
REMARK    4  A    between atoms: C_24  and  C_25 
REMARK       I    between atoms: C_25  and  N_26 
REMARK    5  A    between atoms: N_26  and  C_27 
ROOT
HETATM    1  C   UNL     1      26.667  38.284  48.678  1.00  0.00     0.070 C 
HETATM    2  C   UNL     1      26.563  39.665  49.276  1.00  0.00     0.037 C 
HETATM    3  N   UNL     1      26.780  39.740  50.653  1.00  0.00    -0.192 N 
HETATM    4  C   UNL     1      27.082  40.903  51.269  1.00  0.00     0.726 A 
HETATM    5  N   UNL     1      26.901  42.083  50.605  1.00  0.00    -0.083 N 
HETATM    6  N   UNL     1      27.403  43.122  51.298  1.00  0.00    -0.135 NA
HETATM    7  C   UNL     1      27.841  42.510  52.414  1.00  0.00     0.199 A 
HETATM    8  N   UNL     1      27.629  41.140  52.432  1.00  0.00    -0.041 NA
HETATM    9  C   UNL     1      26.391  42.176  49.233  1.00  0.00     0.202 C 
HETATM   10  C   UNL     1      26.368  40.805  48.566  1.00  0.00     0.062 C 
HETATM   11  H   UNL     1      27.060  38.882  51.121  1.00  0.00     0.184 HD
ENDROOT
BRANCH  10  12
HETATM   12  C   UNL     1      26.267  40.876  47.083  1.00  0.00     0.256 C 
HETATM   13  N   UNL     1      27.480  40.986  46.442  1.00  0.00    -0.323 N 
HETATM   14  H   UNL     1      28.312  40.965  47.019  1.00  0.00     0.169 HD
HETATM   15  O   UNL     1      25.158  40.791  46.572  1.00  0.00    -0.267 OA
BRANCH  13  16
HETATM   16  C   UNL     1      27.695  41.153  45.057  1.00  0.00     0.035 A 
HETATM   17  C   UNL     1      26.767  41.730  44.188  1.00  0.00     0.029 A 
HETATM   18  C   UNL     1      27.063  41.882  42.829  1.00  0.00     0.002 A 
HETATM   19  C   UNL     1      28.293  41.462  42.329  1.00  0.00     0.000 A 
HETATM   20  C   UNL     1      29.225  40.885  43.186  1.00  0.00     0.002 A 
HETATM   21  C   UNL     1      28.926  40.727  44.542  1.00  0.00     0.029 A 
ENDBRANCH  13  16
ENDBRANCH  10  12
BRANCH   9  22
HETATM   22  C   UNL     1      25.013  42.835  49.216  1.00  0.00    -0.028 A 
HETATM   23  C   UNL     1      23.886  42.094  49.613  1.00  0.00     0.012 A 
HETATM   24  C   UNL     1      22.616  42.678  49.629  1.00  0.00     0.037 A 
HETATM   25  C   UNL     1      22.469  44.008  49.253  1.00  0.00     0.065 A 
HETATM   26  C   UNL     1      23.568  44.762  48.867  1.00  0.00     0.037 A 
HETATM   27  C   UNL     1      24.837  44.182  48.850  1.00  0.00     0.012 A 
BRANCH  25  28
HETATM   28  O   UNL     1      21.249  44.616  49.252  1.00  0.00    -0.361 OA
HETATM   29  H   UNL     1      20.621  44.050  49.732  1.00  0.00     0.217 HD
ENDBRANCH  25  28
ENDBRANCH   9  22
BRANCH   7  30
HETATM   30  C   UNL     1      28.554  43.198  53.488  1.00  0.00     0.014 A 
HETATM   31  C   UNL     1      28.046  44.382  54.046  1.00  0.00     0.017 A 
HETATM   32  C   UNL     1      28.752  45.061  55.044  1.00  0.00     0.025 A 
HETATM   33  C   UNL     1      29.970  44.558  55.493  1.00  0.00     0.034 A 
HETATM   34 CL   UNL     1      30.846  45.398  56.712  1.00  0.00    -0.084 Cl
HETATM   35  C   UNL     1      30.487  43.380  54.956  1.00  0.00     0.025 A 
HETATM   36  C   UNL     1      29.780  42.703  53.958  1.00  0.00     0.017 A 
ENDBRANCH   7  30
TORSDOF 5
ENDMDL
MODEL 5
REMARK VINA RESULT:      -8.6      2.113      4.331
REMARK  5 active torsions:
REMARK  status: ('A' for Active; 'I' for Inactive)
REMARK    1  A    between atoms: C_7  and  C_8 
REMARK    2  A    between atoms: C_16  and  C_17 
REMARK    3  A    between atoms: C_20  and  O_21 
REMARK    4  A    between atoms: C_24  and  C_25 
REMARK       I    between atoms: C_25  and  N_26 
REMARK    5  A    between atoms: N_26  and  C_27 
ROOT
HETATM    1  C   UNL     1      23.992  45.463  48.806  1.00  0.00     0.070 C 
HETATM    2  C   UNL     1      24.935  44.503  49.488  1.00  0.00     0.037 C 
HETATM    3  N   UNL     1      26.074  45.080  50.052  1.00  0.00    -0.192 N 
HETATM    4  C   UNL     1      26.811  44.446  50.988  1.00  0.00     0.726 A 
HETATM    5  N   UNL     1      26.627  43.110  51.198  1.00  0.00    -0.083 N 
HETATM    6  N   UNL     1      27.318  42.677  52.270  1.00  0.00    -0.135 NA
HETATM    7  C   UNL     1      27.951  43.803  52.648  1.00  0.00     0.199 A 
HETATM    8  N   UNL     1      27.676  44.905  51.855  1.00  0.00    -0.041 NA
HETATM    9  C   UNL     1      25.656  42.295  50.460  1.00  0.00     0.202 C 
HETATM   10  C   UNL     1      24.704  43.176  49.656  1.00  0.00     0.062 C 
HETATM   11  H   UNL     1      26.137  46.095  50.023  1.00  0.00     0.184 HD
ENDROOT
BRANCH  10  12
HETATM   12  C   UNL     1      23.468  42.468  49.231  1.00  0.00     0.256 C 
HETATM   13  N   UNL     1      23.503  42.007  47.934  1.00  0.00    -0.323 N 
HETATM   14  H   UNL     1      24.362  42.147  47.416  1.00  0.00     0.169 HD
HETATM   15  O   UNL     1      22.569  42.323  50.050  1.00  0.00    -0.267 OA
BRANCH  13  16
HETATM   16  C   UNL     1      22.455  41.374  47.231  1.00  0.00     0.035 A 
HETATM   17  C   UNL     1      22.130  40.023  47.366  1.00  0.00     0.029 A 
HETATM   18  C   UNL     1      21.061  39.473  46.650  1.00  0.00     0.002 A 
HETATM   19  C   UNL     1      20.305  40.271  45.796  1.00  0.00     0.000 A 
HETATM   20  C   UNL     1      20.621  41.619  45.653  1.00  0.00     0.002 A 
HETATM   21  C   UNL     1      21.693  42.167  46.362  1.00  0.00     0.029 A 
ENDBRANCH  13  16
ENDBRANCH  10  12
BRANCH   9  22
HETATM   22  C   UNL     1      26.371  41.280  49.570  1.00  0.00    -0.028 A 
HETATM   23  C   UNL     1      26.250  39.907  49.849  1.00  0.00     0.012 A 
HETATM   24  C   UNL     1      26.875  38.956  49.038  1.00  0.00     0.037 A 
HETATM   25  C   UNL     1      27.621  39.374  47.942  1.00  0.00     0.065 A 
HETATM   26  C   UNL     1      27.747  40.722  47.642  1.00  0.00     0.037 A 
HETATM   27  C   UNL     1      27.124  41.675  48.449  1.00  0.00     0.012 A 
BRANCH  25  28
HETATM   28  O   UNL     1      28.249  38.479  47.127  1.00  0.00    -0.361 OA
HETATM   29  H   UNL     1      28.517  38.936  46.314  1.00  0.00     0.217 HD
ENDBRANCH  25  28
ENDBRANCH   9  22
BRANCH   7  30
HETATM   30  C   UNL     1      28.795  43.895  53.838  1.00  0.00     0.014 A 
HETATM   31  C   UNL     1      28.685  44.985  54.716  1.00  0.00     0.017 A 
HETATM   32  C   UNL     1      29.525  45.091  55.829  1.00  0.00     0.025 A 
HETATM   33  C   UNL     1      30.478  44.106  56.073  1.00  0.00     0.034 A 
HETATM   34 CL   UNL     1      31.520  44.241  57.436  1.00  0.00    -0.084 Cl
HETATM   35  C   UNL     1      30.598  43.013  55.216  1.00  0.00     0.025 A 
HETATM   36  C   UNL     1      29.758  42.909  54.103  1.00  0.00     0.017 A 
ENDBRANCH   7  30
TORSDOF 5
ENDMDL
MODEL 6
REMARK VINA RESULT:      -8.2      3.933      9.298
REMARK  5 active torsions:
REMARK  status: ('A' for Active; 'I' for Inactive)
REMARK    1  A    between atoms: C_7  and  C_8 
REMARK    2  A    between atoms: C_16  and  C_17 
REMARK    3  A    between atoms: C_20  and  O_21 
REMARK    4  A    between atoms: C_24  and  C_25 
REMARK       I    between atoms: C_25  and  N_26 
REMARK    5  A    between atoms: N_26  and  C_27 
ROOT
HETATM    1  C   UNL     1      24.599  42.517  50.723  1.00  0.00     0.070 C 
HETATM    2  C   UNL     1      25.579  41.716  49.904  1.00  0.00     0.037 C 
HETATM    3  N   UNL     1      25.212  41.496  48.575  1.00  0.00    -0.192 N 
HETATM    4  C   UNL     1      26.108  41.132  47.634  1.00  0.00     0.726 A 
HETATM    5  N   UNL     1      27.343  40.690  48.015  1.00  0.00    -0.083 N 
HETATM    6  N   UNL     1      28.160  40.529  46.957  1.00  0.00    -0.135 NA
HETATM    7  C   UNL     1      27.339  40.847  45.939  1.00  0.00     0.199 A 
HETATM    8  N   UNL     1      26.057  41.197  46.329  1.00  0.00    -0.041 NA
HETATM    9  C   UNL     1      27.774  40.584  49.414  1.00  0.00     0.202 C 
HETATM   10  C   UNL     1      26.792  41.290  50.342  1.00  0.00     0.062 C 
HETATM   11  H   UNL     1      24.362  41.951  48.252  1.00  0.00     0.184 HD
ENDROOT
BRANCH  10  12
HETATM   12  C   UNL     1      27.359  41.582  51.685  1.00  0.00     0.256 C 
HETATM   13  N   UNL     1      27.948  42.822  51.789  1.00  0.00    -0.323 N 
HETATM   14  H   UNL     1      27.903  43.425  50.976  1.00  0.00     0.169 HD
HETATM   15  O   UNL     1      27.225  40.744  52.568  1.00  0.00    -0.267 OA
BRANCH  13  16
HETATM   16  C   UNL     1      28.637  43.343  52.905  1.00  0.00     0.035 A 
HETATM   17  C   UNL     1      28.169  44.402  53.686  1.00  0.00     0.029 A 
HETATM   18  C   UNL     1      28.899  44.848  54.792  1.00  0.00     0.002 A 
HETATM   19  C   UNL     1      30.102  44.235  55.131  1.00  0.00     0.000 A 
HETATM   20  C   UNL     1      30.579  43.179  54.360  1.00  0.00     0.002 A 
HETATM   21  C   UNL     1      29.853  42.738  53.250  1.00  0.00     0.029 A 
ENDBRANCH  13  16
ENDBRANCH  10  12
BRANCH   9  22
HETATM   22  C   UNL     1      27.970  39.121  49.806  1.00  0.00    -0.028 A 
HETATM   23  C   UNL     1      29.184  38.716  50.388  1.00  0.00     0.012 A 
HETATM   24  C   UNL     1      29.381  37.388  50.778  1.00  0.00     0.037 A 
HETATM   25  C   UNL     1      28.363  36.461  50.592  1.00  0.00     0.065 A 
HETATM   26  C   UNL     1      27.152  36.839  50.028  1.00  0.00     0.037 A 
HETATM   27  C   UNL     1      26.952  38.164  49.638  1.00  0.00     0.012 A 
BRANCH  25  28
HETATM   28  O   UNL     1      28.515  35.156  50.956  1.00  0.00    -0.361 OA
HETATM   29  H   UNL     1      27.875  34.953  51.658  1.00  0.00     0.217 HD
ENDBRANCH  25  28
ENDBRANCH   9  22
BRANCH   7  30
HETATM   30  C   UNL     1      27.767  40.903  44.543  1.00  0.00     0.014 A 
HETATM   31  C   UNL     1      27.053  41.659  43.600  1.00  0.00     0.017 A 
HETATM   32  C   UNL     1      27.440  41.676  42.257  1.00  0.00     0.025 A 
HETATM   33  C   UNL     1      28.548  40.938  41.847  1.00  0.00     0.034 A 
HETATM   34 CL   UNL     1      29.019  40.948  40.193  1.00  0.00    -0.084 Cl
HETATM   35  C   UNL     1      29.274  40.186  42.769  1.00  0.00     0.025 A 
HETATM   36  C   UNL     1      28.884  40.170  44.112  1.00  0.00     0.017 A 
ENDBRANCH   7  30
TORSDOF 5
ENDMDL
MODEL 7
REMARK VINA RESULT:      -7.8     13.671     15.034
REMARK  5 active torsions:
REMARK  status: ('A' for Active; 'I' for Inactive)
REMARK    1  A    between atoms: C_7  and  C_8 
REMARK    2  A    between atoms: C_16  and  C_17 
REMARK    3  A    between atoms: C_20  and  O_21 
REMARK    4  A    between atoms: C_24  and  C_25 
REMARK       I    between atoms: C_25  and  N_26 
REMARK    5  A    between atoms: N_26  and  C_27 
ROOT
HETATM    1  C   UNL     1      33.158  47.408  41.623  1.00  0.00     0.070 C 
HETATM    2  C   UNL     1      32.916  48.797  41.087  1.00  0.00     0.037 C 
HETATM    3  N   UNL     1      33.874  49.751  41.437  1.00  0.00    -0.192 N 
HETATM    4  C   UNL     1      34.009  50.913  40.764  1.00  0.00     0.726 A 
HETATM    5  N   UNL     1      33.025  51.311  39.905  1.00  0.00    -0.083 N 
HETATM    6  N   UNL     1      33.393  52.397  39.200  1.00  0.00    -0.135 NA
HETATM    7  C   UNL     1      34.612  52.647  39.715  1.00  0.00     0.199 A 
HETATM    8  N   UNL     1      35.004  51.759  40.703  1.00  0.00    -0.041 NA
HETATM    9  C   UNL     1      31.801  50.542  39.655  1.00  0.00     0.202 C 
HETATM   10  C   UNL     1      31.909  49.139  40.244  1.00  0.00     0.062 C 
HETATM   11  H   UNL     1      34.684  49.419  41.954  1.00  0.00     0.184 HD
ENDROOT
BRANCH  10  12
HETATM   12  C   UNL     1      30.911  48.189  39.684  1.00  0.00     0.256 C 
HETATM   13  N   UNL     1      29.894  47.866  40.554  1.00  0.00    -0.323 N 
HETATM   14  H   UNL     1      29.893  48.326  41.456  1.00  0.00     0.169 HD
HETATM   15  O   UNL     1      31.047  47.819  38.525  1.00  0.00    -0.267 OA
BRANCH  13  16
HETATM   16  C   UNL     1      28.855  46.936  40.336  1.00  0.00     0.035 A 
HETATM   17  C   UNL     1      29.041  45.683  39.748  1.00  0.00     0.029 A 
HETATM   18  C   UNL     1      27.964  44.805  39.586  1.00  0.00     0.002 A 
HETATM   19  C   UNL     1      26.692  45.171  40.016  1.00  0.00     0.000 A 
HETATM   20  C   UNL     1      26.494  46.418  40.603  1.00  0.00     0.002 A 
HETATM   21  C   UNL     1      27.569  47.297  40.758  1.00  0.00     0.029 A 
ENDBRANCH  13  16
ENDBRANCH  10  12
BRANCH   9  22
HETATM   22  C   UNL     1      30.580  51.287  40.192  1.00  0.00    -0.028 A 
HETATM   23  C   UNL     1      29.505  51.566  39.330  1.00  0.00     0.012 A 
HETATM   24  C   UNL     1      28.366  52.226  39.799  1.00  0.00     0.037 A 
HETATM   25  C   UNL     1      28.294  52.603  41.135  1.00  0.00     0.065 A 
HETATM   26  C   UNL     1      29.338  52.330  42.007  1.00  0.00     0.037 A 
HETATM   27  C   UNL     1      30.477  51.671  41.542  1.00  0.00     0.012 A 
BRANCH  25  28
HETATM   28  O   UNL     1      27.203  53.250  41.634  1.00  0.00    -0.361 OA
HETATM   29  H   UNL     1      26.484  52.606  41.744  1.00  0.00     0.217 HD
ENDBRANCH  25  28
ENDBRANCH   9  22
BRANCH   7  30
HETATM   30  C   UNL     1      35.493  53.707  39.231  1.00  0.00     0.014 A 
HETATM   31  C   UNL     1      35.046  55.036  39.153  1.00  0.00     0.017 A 
HETATM   32  C   UNL     1      35.878  56.040  38.649  1.00  0.00     0.025 A 
HETATM   33  C   UNL     1      37.165  55.722  38.221  1.00  0.00     0.034 A 
HETATM   34 CL   UNL     1      38.185  56.955  37.590  1.00  0.00    -0.084 Cl
HETATM   35  C   UNL     1      37.629  54.410  38.297  1.00  0.00     0.025 A 
HETATM   36  C   UNL     1      36.795  53.407  38.801  1.00  0.00     0.017 A 
ENDBRANCH   7  30
TORSDOF 5
ENDMDL
MODEL 8
REMARK VINA RESULT:      -7.7      4.173      9.114
REMARK  5 active torsions:
REMARK  status: ('A' for Active; 'I' for Inactive)
REMARK    1  A    between atoms: C_7  and  C_8 
REMARK    2  A    between atoms: C_16  and  C_17 
REMARK    3  A    between atoms: C_20  and  O_21 
REMARK    4  A    between atoms: C_24  and  C_25 
REMARK       I    between atoms: C_25  and  N_26 
REMARK    5  A    between atoms: N_26  and  C_27 
ROOT
HETATM    1  C   UNL     1      25.016  44.943  53.769  1.00  0.00     0.070 C 
HETATM    2  C   UNL     1      25.065  44.401  52.362  1.00  0.00     0.037 C 
HETATM    3  N   UNL     1      23.849  44.401  51.676  1.00  0.00    -0.192 N 
HETATM    4  C   UNL     1      23.783  44.301  50.332  1.00  0.00     0.726 A 
HETATM    5  N   UNL     1      24.888  43.910  49.632  1.00  0.00    -0.083 N 
HETATM    6  N   UNL     1      24.698  44.023  48.303  1.00  0.00    -0.135 NA
HETATM    7  C   UNL     1      23.423  44.450  48.254  1.00  0.00     0.199 A 
HETATM    8  N   UNL     1      22.826  44.604  49.495  1.00  0.00    -0.041 NA
HETATM    9  C   UNL     1      26.176  43.584  50.255  1.00  0.00     0.202 C 
HETATM   10  C   UNL     1      26.196  44.012  51.719  1.00  0.00     0.062 C 
HETATM   11  H   UNL     1      23.056  44.830  52.148  1.00  0.00     0.184 HD
ENDROOT
BRANCH  10  12
HETATM   12  C   UNL     1      27.568  44.099  52.286  1.00  0.00     0.256 C 
HETATM   13  N   UNL     1      27.626  43.903  53.648  1.00  0.00    -0.323 N 
HETATM   14  H   UNL     1      26.758  43.680  54.121  1.00  0.00     0.169 HD
HETATM   15  O   UNL     1      28.503  44.287  51.519  1.00  0.00    -0.267 OA
BRANCH  13  16
HETATM   16  C   UNL     1      28.768  44.005  54.471  1.00  0.00     0.035 A 
HETATM   17  C   UNL     1      29.734  43.004  54.591  1.00  0.00     0.029 A 
HETATM   18  C   UNL     1      30.852  43.189  55.411  1.00  0.00     0.002 A 
HETATM   19  C   UNL     1      31.015  44.378  56.115  1.00  0.00     0.000 A 
HETATM   20  C   UNL     1      30.058  45.382  56.005  1.00  0.00     0.002 A 
HETATM   21  C   UNL     1      28.938  45.195  55.191  1.00  0.00     0.029 A 
ENDBRANCH  13  16
ENDBRANCH  10  12
BRANCH   9  22
HETATM   22  C   UNL     1      26.488  42.097  50.098  1.00  0.00    -0.028 A 
HETATM   23  C   UNL     1      27.534  41.694  49.249  1.00  0.00     0.012 A 
HETATM   24  C   UNL     1      27.856  40.342  49.104  1.00  0.00     0.037 A 
HETATM   25  C   UNL     1      27.137  39.387  49.813  1.00  0.00     0.065 A 
HETATM   26  C   UNL     1      26.107  39.760  50.664  1.00  0.00     0.037 A 
HETATM   27  C   UNL     1      25.782  41.110  50.811  1.00  0.00     0.012 A 
BRANCH  25  28
HETATM   28  O   UNL     1      27.417  38.057  49.699  1.00  0.00    -0.361 OA
HETATM   29  H   UNL     1      27.452  37.828  48.756  1.00  0.00     0.217 HD
ENDBRANCH  25  28
ENDBRANCH   9  22
BRANCH   7  30
HETATM   30  C   UNL     1      22.736  44.804  47.014  1.00  0.00     0.014 A 
HETATM   31  C   UNL     1      23.094  44.205  45.796  1.00  0.00     0.017 A 
HETATM   32  C   UNL     1      22.464  44.578  44.604  1.00  0.00     0.025 A 
HETATM   33  C   UNL     1      21.468  45.552  44.625  1.00  0.00     0.034 A 
HETATM   34 CL   UNL     1      20.700  46.020  43.158  1.00  0.00    -0.084 Cl
HETATM   35  C   UNL     1      21.094  46.153  45.825  1.00  0.00     0.025 A 
HETATM   36  C   UNL     1      21.726  45.779  47.015  1.00  0.00     0.017 A 
ENDBRANCH   7  30
TORSDOF 5
ENDMDL
MODEL 9
REMARK VINA RESULT:      -7.7     15.786     17.896
REMARK  5 active torsions:
REMARK  status: ('A' for Active; 'I' for Inactive)
REMARK    1  A    between atoms: C_7  and  C_8 
REMARK    2  A    between atoms: C_16  and  C_17 
REMARK    3  A    between atoms: C_20  and  O_21 
REMARK    4  A    between atoms: C_24  and  C_25 
REMARK       I    between atoms: C_25  and  N_26 
REMARK    5  A    between atoms: N_26  and  C_27 
ROOT
HETATM    1  C   UNL     1      40.673  49.919  42.180  1.00  0.00     0.070 C 
HETATM    2  C   UNL     1      39.431  50.668  42.594  1.00  0.00     0.037 C 
HETATM    3  N   UNL     1      38.435  50.763  41.622  1.00  0.00    -0.192 N 
HETATM    4  C   UNL     1      37.156  51.064  41.931  1.00  0.00     0.726 A 
HETATM    5  N   UNL     1      36.864  51.566  43.167  1.00  0.00    -0.083 N 
HETATM    6  N   UNL     1      35.534  51.654  43.363  1.00  0.00    -0.135 NA
HETATM    7  C   UNL     1      35.063  51.230  42.177  1.00  0.00     0.199 A 
HETATM    8  N   UNL     1      36.046  50.884  41.263  1.00  0.00    -0.041 NA
HETATM    9  C   UNL     1      37.868  51.804  44.209  1.00  0.00     0.202 C 
HETATM   10  C   UNL     1      39.200  51.159  43.839  1.00  0.00     0.062 C 
HETATM   11  H   UNL     1      38.594  50.261  40.751  1.00  0.00     0.184 HD
ENDROOT
BRANCH  10  12
HETATM   12  C   UNL     1      40.117  50.999  44.999  1.00  0.00     0.256 C 
HETATM   13  N   UNL     1      41.057  51.998  45.114  1.00  0.00    -0.323 N 
HETATM   14  H   UNL     1      41.012  52.755  44.443  1.00  0.00     0.169 HD
HETATM   15  O   UNL     1      39.941  50.049  45.752  1.00  0.00    -0.267 OA
BRANCH  13  16
HETATM   16  C   UNL     1      42.103  52.073  46.058  1.00  0.00     0.035 A 
HETATM   17  C   UNL     1      43.126  51.128  46.166  1.00  0.00     0.029 A 
HETATM   18  C   UNL     1      44.142  51.284  47.114  1.00  0.00     0.002 A 
HETATM   19  C   UNL     1      44.148  52.390  47.959  1.00  0.00     0.000 A 
HETATM   20  C   UNL     1      43.134  53.338  47.862  1.00  0.00     0.002 A 
HETATM   21  C   UNL     1      42.114  53.178  46.919  1.00  0.00     0.029 A 
ENDBRANCH  13  16
ENDBRANCH  10  12
BRANCH   9  22
HETATM   22  C   UNL     1      38.022  53.300  44.477  1.00  0.00    -0.028 A 
HETATM   23  C   UNL     1      38.249  54.177  43.401  1.00  0.00     0.012 A 
HETATM   24  C   UNL     1      38.370  55.553  43.614  1.00  0.00     0.037 A 
HETATM   25  C   UNL     1      38.259  56.058  44.904  1.00  0.00     0.065 A 
HETATM   26  C   UNL     1      38.025  55.214  45.980  1.00  0.00     0.037 A 
HETATM   27  C   UNL     1      37.903  53.840  45.771  1.00  0.00     0.012 A 
BRANCH  25  28
HETATM   28  O   UNL     1      38.373  57.393  45.157  1.00  0.00    -0.361 OA
HETATM   29  H   UNL     1      39.052  57.523  45.839  1.00  0.00     0.217 HD
ENDBRANCH  25  28
ENDBRANCH   9  22
BRANCH   7  30
HETATM   30  C   UNL     1      33.641  51.062  41.884  1.00  0.00     0.014 A 
HETATM   31  C   UNL     1      33.098  51.506  40.668  1.00  0.00     0.017 A 
HETATM   32  C   UNL     1      31.730  51.383  40.410  1.00  0.00     0.025 A 
HETATM   33  C   UNL     1      30.894  50.812  41.367  1.00  0.00     0.034 A 
HETATM   34 CL   UNL     1      29.208  50.670  41.055  1.00  0.00    -0.084 Cl
HETATM   35  C   UNL     1      31.415  50.359  42.577  1.00  0.00     0.025 A 
HETATM   36  C   UNL     1      32.784  50.484  42.833  1.00  0.00     0.017 A 
ENDBRANCH   7  30
TORSDOF 5
ENDMDL
MODEL 10
REMARK VINA RESULT:      -7.7     11.678     14.362
REMARK  5 active torsions:
REMARK  status: ('A' for Active; 'I' for Inactive)
REMARK    1  A    between atoms: C_7  and  C_8 
REMARK    2  A    between atoms: C_16  and  C_17 
REMARK    3  A    between atoms: C_20  and  O_21 
REMARK    4  A    between atoms: C_24  and  C_25 
REMARK       I    between atoms: C_25  and  N_26 
REMARK    5  A    between atoms: N_26  and  C_27 
ROOT
HETATM    1  C   UNL     1      31.368  46.841  39.876  1.00  0.00     0.070 C 
HETATM    2  C   UNL     1      30.158  47.712  40.104  1.00  0.00     0.037 C 
HETATM    3  N   UNL     1      29.022  47.364  39.371  1.00  0.00    -0.192 N 
HETATM    4  C   UNL     1      27.788  47.789  39.715  1.00  0.00     0.726 A 
HETATM    5  N   UNL     1      27.654  48.803  40.620  1.00  0.00    -0.083 N 
HETATM    6  N   UNL     1      26.367  48.987  40.970  1.00  0.00    -0.135 NA
HETATM    7  C   UNL     1      25.750  48.073  40.199  1.00  0.00     0.199 A 
HETATM    8  N   UNL     1      26.604  47.338  39.393  1.00  0.00    -0.041 NA
HETATM    9  C   UNL     1      28.787  49.478  41.262  1.00  0.00     0.202 C 
HETATM   10  C   UNL     1      30.086  48.718  41.011  1.00  0.00     0.062 C 
HETATM   11  H   UNL     1      29.079  46.519  38.808  1.00  0.00     0.184 HD
ENDROOT
BRANCH  10  12
HETATM   12  C   UNL     1      31.176  49.094  41.951  1.00  0.00     0.256 C 
HETATM   13  N   UNL     1      31.990  50.105  41.492  1.00  0.00    -0.323 N 
HETATM   14  H   UNL     1      31.752  50.522  40.600  1.00  0.00     0.169 HD
HETATM   15  O   UNL     1      31.233  48.523  43.033  1.00  0.00    -0.267 OA
BRANCH  13  16
HETATM   16  C   UNL     1      33.146  50.616  42.121  1.00  0.00     0.035 A 
HETATM   17  C   UNL     1      34.446  50.392  41.663  1.00  0.00     0.029 A 
HETATM   18  C   UNL     1      35.541  50.952  42.330  1.00  0.00     0.002 A 
HETATM   19  C   UNL     1      35.345  51.744  43.457  1.00  0.00     0.000 A 
HETATM   20  C   UNL     1      34.054  51.974  43.923  1.00  0.00     0.002 A 
HETATM   21  C   UNL     1      32.960  51.408  43.261  1.00  0.00     0.029 A 
ENDBRANCH  13  16
ENDBRANCH  10  12
BRANCH   9  22
HETATM   22  C   UNL     1      28.883  50.929  40.796  1.00  0.00    -0.028 A 
HETATM   23  C   UNL     1      28.924  51.214  39.420  1.00  0.00     0.012 A 
HETATM   24  C   UNL     1      28.988  52.533  38.965  1.00  0.00     0.037 A 
HETATM   25  C   UNL     1      29.006  53.575  39.885  1.00  0.00     0.065 A 
HETATM   26  C   UNL     1      28.957  53.320  41.248  1.00  0.00     0.037 A 
HETATM   27  C   UNL     1      28.893  52.003  41.705  1.00  0.00     0.012 A 
BRANCH  25  28
HETATM   28  O   UNL     1      29.071  54.877  39.484  1.00  0.00    -0.361 OA
HETATM   29  H   UNL     1      28.214  55.125  39.099  1.00  0.00     0.217 HD
ENDBRANCH  25  28
ENDBRANCH   9  22
BRANCH   7  30
HETATM   30  C   UNL     1      24.313  47.808  40.251  1.00  0.00     0.014 A 
HETATM   31  C   UNL     1      23.400  48.655  39.603  1.00  0.00     0.017 A 
HETATM   32  C   UNL     1      22.024  48.422  39.691  1.00  0.00     0.025 A 
HETATM   33  C   UNL     1      21.553  47.338  40.427  1.00  0.00     0.034 A 
HETATM   34 CL   UNL     1      19.859  47.057  40.546  1.00  0.00    -0.084 Cl
HETATM   35  C   UNL     1      22.443  46.482  41.071  1.00  0.00     0.025 A 
HETATM   36  C   UNL     1      23.819  46.717  40.982  1.00  0.00     0.017 A 
ENDBRANCH   7  30
TORSDOF 5
ENDMDL
