MODEL 1
REMARK VINA RESULT:      -8.3      0.000      0.000
REMARK  3 active torsions:
REMARK  status: ('A' for Active; 'I' for Inactive)
REMARK    1  A    between atoms: C_6  and  N_7 
REMARK       I    between atoms: N_7  and  C_8 
REMARK    2  A    between atoms: C_8  and  C_9 
REMARK    3  A    between atoms: C_9  and  C_10 
ROOT
HETATM    1  C   UNL     1      26.974  41.329  51.382  1.00  0.00     0.286 C 
HETATM    2  N   UNL     1      27.903  40.115  51.496  1.00  0.00    -0.056 N 
HETATM    3  H   UNL     1      28.627  40.290  52.206  1.00  0.00     0.278 HD
HETATM    4  H   UNL     1      27.345  39.323  51.844  1.00  0.00     0.278 HD
HETATM    5  C   UNL     1      28.564  39.708  50.206  1.00  0.00     0.209 C 
HETATM    6  C   UNL     1      27.492  39.534  49.110  1.00  0.00     0.115 C 
HETATM    7  N   UNL     1      26.617  40.690  48.996  1.00  0.00    -0.353 N 
HETATM    8  C   UNL     1      26.152  41.388  50.080  1.00  0.00     0.249 C 
HETATM    9  O   UNL     1      25.174  42.124  49.980  1.00  0.00    -0.271 OA
HETATM   10  C   UNL     1      29.338  38.408  50.405  1.00  0.00     0.035 C 
HETATM   11  C   UNL     1      30.018  38.003  49.095  1.00  0.00     0.002 C 
HETATM   12  C   UNL     1      29.036  37.934  47.923  1.00  0.00     0.002 C 
HETATM   13  C   UNL     1      28.181  39.197  47.787  1.00  0.00     0.027 C 
HETATM   14  H   UNL     1      26.017  40.765  48.176  1.00  0.00     0.163 HD
ENDROOT
BRANCH   1  15
HETATM   15  C   UNL     1      27.710  42.650  51.642  1.00  0.00     0.146 C 
BRANCH  15  16
HETATM   16  C   UNL     1      27.885  42.909  53.123  1.00  0.00     0.224 C 
HETATM   17  N   UNL     1      28.537  44.089  53.412  1.00  0.00    -0.327 N 
HETATM   18  H   UNL     1      28.641  44.778  52.672  1.00  0.00     0.169 HD
HETATM   19  O   UNL     1      27.543  42.040  53.917  1.00  0.00    -0.273 OA
BRANCH  17  20
HETATM   20  C   UNL     1      29.160  44.440  54.631  1.00  0.00     0.036 A 
HETATM   21  C   UNL     1      30.190  43.705  55.219  1.00  0.00     0.053 A 
HETATM   22  C   UNL     1      30.807  44.175  56.383  1.00  0.00     0.036 A 
HETATM   23  C   UNL     1      30.397  45.366  56.977  1.00  0.00     0.024 A 
HETATM   24 CL   UNL     1      32.111  43.284  57.069  1.00  0.00    -0.084 Cl
HETATM   25  C   UNL     1      29.360  46.096  56.403  1.00  0.00     0.004 A 
HETATM   26  C   UNL     1      28.749  45.638  55.233  1.00  0.00     0.029 A 
ENDBRANCH  17  20
ENDBRANCH  15  16
ENDBRANCH   1  15
TORSDOF 3
ENDMDL
MODEL 2
REMARK VINA RESULT:      -8.3      6.701      8.702
REMARK  3 active torsions:
REMARK  status: ('A' for Active; 'I' for Inactive)
REMARK    1  A    between atoms: C_6  and  N_7 
REMARK       I    between atoms: N_7  and  C_8 
REMARK    2  A    between atoms: C_8  and  C_9 
REMARK    3  A    between atoms: C_9  and  C_10 
ROOT
HETATM    1  C   UNL     1      24.654  44.891  51.657  1.00  0.00     0.286 C 
HETATM    2  N   UNL     1      25.280  45.640  52.839  1.00  0.00    -0.056 N 
HETATM    3  H   UNL     1      25.258  46.654  52.666  1.00  0.00     0.278 HD
HETATM    4  H   UNL     1      24.687  45.477  53.665  1.00  0.00     0.278 HD
HETATM    5  C   UNL     1      26.689  45.224  53.169  1.00  0.00     0.209 C 
HETATM    6  C   UNL     1      26.748  43.692  53.339  1.00  0.00     0.115 C 
HETATM    7  N   UNL     1      26.164  42.982  52.212  1.00  0.00    -0.353 N 
HETATM    8  C   UNL     1      25.022  43.397  51.577  1.00  0.00     0.249 C 
HETATM    9  O   UNL     1      24.378  42.622  50.874  1.00  0.00    -0.271 OA
HETATM   10  C   UNL     1      27.152  45.920  54.446  1.00  0.00     0.035 C 
HETATM   11  C   UNL     1      28.588  45.504  54.772  1.00  0.00     0.002 C 
HETATM   12  C   UNL     1      28.759  43.984  54.830  1.00  0.00     0.002 C 
HETATM   13  C   UNL     1      28.197  43.274  53.596  1.00  0.00     0.027 C 
HETATM   14  H   UNL     1      26.336  41.982  52.126  1.00  0.00     0.163 HD
ENDROOT
BRANCH   1  15
HETATM   15  C   UNL     1      24.902  45.603  50.321  1.00  0.00     0.146 C 
BRANCH  15  16
HETATM   16  C   UNL     1      24.486  47.058  50.378  1.00  0.00     0.224 C 
HETATM   17  N   UNL     1      23.409  47.364  49.573  1.00  0.00    -0.327 N 
HETATM   18  H   UNL     1      22.851  46.600  49.200  1.00  0.00     0.169 HD
HETATM   19  O   UNL     1      25.170  47.841  51.026  1.00  0.00    -0.273 OA
BRANCH  17  20
HETATM   20  C   UNL     1      23.015  48.648  49.132  1.00  0.00     0.036 A 
HETATM   21  C   UNL     1      21.819  49.265  49.502  1.00  0.00     0.053 A 
HETATM   22  C   UNL     1      21.551  50.573  49.088  1.00  0.00     0.036 A 
HETATM   23  C   UNL     1      22.457  51.269  48.292  1.00  0.00     0.024 A 
HETATM   24 CL   UNL     1      20.095  51.340  49.594  1.00  0.00    -0.084 Cl
HETATM   25  C   UNL     1      23.645  50.654  47.908  1.00  0.00     0.004 A 
HETATM   26  C   UNL     1      23.924  49.352  48.331  1.00  0.00     0.029 A 
ENDBRANCH  17  20
ENDBRANCH  15  16
ENDBRANCH   1  15
TORSDOF 3
ENDMDL
MODEL 3
REMARK VINA RESULT:      -8.3      4.384      6.179
REMARK  3 active torsions:
REMARK  status: ('A' for Active; 'I' for Inactive)
REMARK    1  A    between atoms: C_6  and  N_7 
REMARK       I    between atoms: N_7  and  C_8 
REMARK    2  A    between atoms: C_8  and  C_9 
REMARK    3  A    between atoms: C_9  and  C_10 
ROOT
HETATM    1  C   UNL     1      25.716  45.153  50.805  1.00  0.00     0.286 C 
HETATM    2  N   UNL     1      26.734  46.087  50.140  1.00  0.00    -0.056 N 
HETATM    3  H   UNL     1      27.604  46.108  50.689  1.00  0.00     0.278 HD
HETATM    4  H   UNL     1      26.982  45.683  49.226  1.00  0.00     0.278 HD
HETATM    5  C   UNL     1      26.248  47.495  49.928  1.00  0.00     0.209 C 
HETATM    6  C   UNL     1      24.896  47.468  49.186  1.00  0.00     0.115 C 
HETATM    7  N   UNL     1      23.927  46.590  49.822  1.00  0.00    -0.353 N 
HETATM    8  C   UNL     1      24.257  45.372  50.357  1.00  0.00     0.249 C 
HETATM    9  O   UNL     1      23.394  44.527  50.576  1.00  0.00    -0.271 OA
HETATM   10  C   UNL     1      27.279  48.287  49.128  1.00  0.00     0.035 C 
HETATM   11  C   UNL     1      26.786  49.722  48.924  1.00  0.00     0.002 C 
HETATM   12  C   UNL     1      25.387  49.779  48.307  1.00  0.00     0.002 C 
HETATM   13  C   UNL     1      24.374  48.899  49.045  1.00  0.00     0.027 C 
HETATM   14  H   UNL     1      22.951  46.657  49.539  1.00  0.00     0.163 HD
ENDROOT
BRANCH   1  15
HETATM   15  C   UNL     1      25.840  45.151  52.334  1.00  0.00     0.146 C 
BRANCH  15  16
HETATM   16  C   UNL     1      27.170  44.585  52.785  1.00  0.00     0.224 C 
HETATM   17  N   UNL     1      27.372  44.647  54.147  1.00  0.00    -0.327 N 
HETATM   18  H   UNL     1      26.572  44.838  54.747  1.00  0.00     0.169 HD
HETATM   19  O   UNL     1      27.975  44.225  51.935  1.00  0.00    -0.273 OA
BRANCH  17  20
HETATM   20  C   UNL     1      28.605  44.544  54.830  1.00  0.00     0.036 A 
HETATM   21  C   UNL     1      28.991  45.390  55.871  1.00  0.00     0.053 A 
HETATM   22  C   UNL     1      30.193  45.159  56.548  1.00  0.00     0.036 A 
HETATM   23  C   UNL     1      31.024  44.102  56.187  1.00  0.00     0.024 A 
HETATM   24 CL   UNL     1      30.633  46.180  57.863  1.00  0.00    -0.084 Cl
HETATM   25  C   UNL     1      30.651  43.264  55.140  1.00  0.00     0.004 A 
HETATM   26  C   UNL     1      29.444  43.481  54.470  1.00  0.00     0.029 A 
ENDBRANCH  17  20
ENDBRANCH  15  16
ENDBRANCH   1  15
TORSDOF 3
ENDMDL
MODEL 4
REMARK VINA RESULT:      -8.2      5.826      8.207
REMARK  3 active torsions:
REMARK  status: ('A' for Active; 'I' for Inactive)
REMARK    1  A    between atoms: C_6  and  N_7 
REMARK       I    between atoms: N_7  and  C_8 
REMARK    2  A    between atoms: C_8  and  C_9 
REMARK    3  A    between atoms: C_9  and  C_10 
ROOT
HETATM    1  C   UNL     1      26.498  44.949  52.796  1.00  0.00     0.286 C 
HETATM    2  N   UNL     1      27.128  45.550  54.057  1.00  0.00    -0.056 N 
HETATM    3  H   UNL     1      27.116  46.578  54.002  1.00  0.00     0.278 HD
HETATM    4  H   UNL     1      26.532  45.298  54.857  1.00  0.00     0.278 HD
HETATM    5  C   UNL     1      28.532  45.086  54.338  1.00  0.00     0.209 C 
HETATM    6  C   UNL     1      28.578  43.545  54.329  1.00  0.00     0.115 C 
HETATM    7  N   UNL     1      27.989  42.975  53.127  1.00  0.00    -0.353 N 
HETATM    8  C   UNL     1      26.852  43.471  52.543  1.00  0.00     0.249 C 
HETATM    9  O   UNL     1      26.203  42.789  51.754  1.00  0.00    -0.271 OA
HETATM   10  C   UNL     1      28.999  45.626  55.687  1.00  0.00     0.035 C 
HETATM   11  C   UNL     1      30.431  45.162  55.964  1.00  0.00     0.002 C 
HETATM   12  C   UNL     1      30.589  43.644  55.846  1.00  0.00     0.002 C 
HETATM   13  C   UNL     1      30.023  43.086  54.537  1.00  0.00     0.027 C 
HETATM   14  H   UNL     1      28.152  41.990  52.926  1.00  0.00     0.163 HD
ENDROOT
BRANCH   1  15
HETATM   15  C   UNL     1      26.754  45.809  51.551  1.00  0.00     0.146 C 
BRANCH  15  16
HETATM   16  C   UNL     1      25.641  46.810  51.325  1.00  0.00     0.224 C 
HETATM   17  N   UNL     1      25.303  46.981  50.000  1.00  0.00    -0.327 N 
HETATM   18  H   UNL     1      25.634  46.298  49.323  1.00  0.00     0.169 HD
HETATM   19  O   UNL     1      25.215  47.442  52.284  1.00  0.00    -0.273 OA
BRANCH  17  20
HETATM   20  C   UNL     1      24.587  48.063  49.437  1.00  0.00     0.036 A 
HETATM   21  C   UNL     1      23.196  48.168  49.453  1.00  0.00     0.053 A 
HETATM   22  C   UNL     1      22.577  49.316  48.950  1.00  0.00     0.036 A 
HETATM   23  C   UNL     1      23.331  50.357  48.415  1.00  0.00     0.024 A 
HETATM   24 CL   UNL     1      20.862  49.455  49.022  1.00  0.00    -0.084 Cl
HETATM   25  C   UNL     1      24.719  50.252  48.383  1.00  0.00     0.004 A 
HETATM   26  C   UNL     1      25.343  49.113  48.897  1.00  0.00     0.029 A 
ENDBRANCH  17  20
ENDBRANCH  15  16
ENDBRANCH   1  15
TORSDOF 3
ENDMDL
MODEL 5
REMARK VINA RESULT:      -8.1      5.300      8.019
REMARK  3 active torsions:
REMARK  status: ('A' for Active; 'I' for Inactive)
REMARK    1  A    between atoms: C_6  and  N_7 
REMARK       I    between atoms: N_7  and  C_8 
REMARK    2  A    between atoms: C_8  and  C_9 
REMARK    3  A    between atoms: C_9  and  C_10 
ROOT
HETATM    1  C   UNL     1      28.052  44.715  54.068  1.00  0.00     0.286 C 
HETATM    2  N   UNL     1      29.377  44.008  54.373  1.00  0.00    -0.056 N 
HETATM    3  H   UNL     1      29.329  43.025  54.072  1.00  0.00     0.278 HD
HETATM    4  H   UNL     1      30.109  44.449  53.799  1.00  0.00     0.278 HD
HETATM    5  C   UNL     1      29.799  44.063  55.816  1.00  0.00     0.209 C 
HETATM    6  C   UNL     1      29.783  45.527  56.302  1.00  0.00     0.115 C 
HETATM    7  N   UNL     1      28.522  46.195  56.022  1.00  0.00    -0.353 N 
HETATM    8  C   UNL     1      27.826  46.021  54.854  1.00  0.00     0.249 C 
HETATM    9  O   UNL     1      26.968  46.829  54.508  1.00  0.00    -0.271 OA
HETATM   10  C   UNL     1      31.194  43.465  55.974  1.00  0.00     0.035 C 
HETATM   11  C   UNL     1      31.616  43.513  57.445  1.00  0.00     0.002 C 
HETATM   12  C   UNL     1      31.503  44.918  58.041  1.00  0.00     0.002 C 
HETATM   13  C   UNL     1      30.138  45.564  57.790  1.00  0.00     0.027 C 
HETATM   14  H   UNL     1      28.331  47.085  56.480  1.00  0.00     0.163 HD
ENDROOT
BRANCH   1  15
HETATM   15  C   UNL     1      26.848  43.772  54.188  1.00  0.00     0.146 C 
BRANCH  15  16
HETATM   16  C   UNL     1      25.720  44.186  53.267  1.00  0.00     0.224 C 
HETATM   17  N   UNL     1      26.142  44.654  52.041  1.00  0.00    -0.327 N 
HETATM   18  H   UNL     1      27.104  44.481  51.761  1.00  0.00     0.169 HD
HETATM   19  O   UNL     1      24.573  44.174  53.699  1.00  0.00    -0.273 OA
BRANCH  17  20
HETATM   20  C   UNL     1      25.397  45.431  51.125  1.00  0.00     0.036 A 
HETATM   21  C   UNL     1      24.488  44.897  50.210  1.00  0.00     0.053 A 
HETATM   22  C   UNL     1      23.730  45.749  49.401  1.00  0.00     0.036 A 
HETATM   23  C   UNL     1      23.880  47.131  49.482  1.00  0.00     0.024 A 
HETATM   24 CL   UNL     1      22.577  45.079  48.313  1.00  0.00    -0.084 Cl
HETATM   25  C   UNL     1      24.795  47.669  50.382  1.00  0.00     0.004 A 
HETATM   26  C   UNL     1      25.545  46.823  51.203  1.00  0.00     0.029 A 
ENDBRANCH  17  20
ENDBRANCH  15  16
ENDBRANCH   1  15
TORSDOF 3
ENDMDL
MODEL 6
REMARK VINA RESULT:      -8.1      2.743      7.789
REMARK  3 active torsions:
REMARK  status: ('A' for Active; 'I' for Inactive)
REMARK    1  A    between atoms: C_6  and  N_7 
REMARK       I    between atoms: N_7  and  C_8 
REMARK    2  A    between atoms: C_8  and  C_9 
REMARK    3  A    between atoms: C_9  and  C_10 
ROOT
HETATM    1  C   UNL     1      28.031  45.287  54.191  1.00  0.00     0.286 C 
HETATM    2  N   UNL     1      29.374  44.588  54.430  1.00  0.00    -0.056 N 
HETATM    3  H   UNL     1      29.378  43.666  53.973  1.00  0.00     0.278 HD
HETATM    4  H   UNL     1      30.105  45.143  53.963  1.00  0.00     0.278 HD
HETATM    5  C   UNL     1      29.746  44.425  55.879  1.00  0.00     0.209 C 
HETATM    6  C   UNL     1      29.652  45.789  56.593  1.00  0.00     0.115 C 
HETATM    7  N   UNL     1      28.374  46.447  56.375  1.00  0.00    -0.353 N 
HETATM    8  C   UNL     1      27.724  46.439  55.168  1.00  0.00     0.249 C 
HETATM    9  O   UNL     1      26.845  47.261  54.922  1.00  0.00    -0.271 OA
HETATM   10  C   UNL     1      31.159  43.860  55.993  1.00  0.00     0.035 C 
HETATM   11  C   UNL     1      31.531  43.684  57.468  1.00  0.00     0.002 C 
HETATM   12  C   UNL     1      31.339  44.969  58.278  1.00  0.00     0.002 C 
HETATM   13  C   UNL     1      29.956  45.597  58.080  1.00  0.00     0.027 C 
HETATM   14  H   UNL     1      28.131  47.243  56.962  1.00  0.00     0.163 HD
ENDROOT
BRANCH   1  15
HETATM   15  C   UNL     1      26.865  44.294  54.111  1.00  0.00     0.146 C 
BRANCH  15  16
HETATM   16  C   UNL     1      27.276  43.004  53.432  1.00  0.00     0.224 C 
HETATM   17  N   UNL     1      27.140  43.026  52.060  1.00  0.00    -0.327 N 
HETATM   18  H   UNL     1      27.008  43.924  51.601  1.00  0.00     0.169 HD
HETATM   19  O   UNL     1      27.585  42.045  54.128  1.00  0.00    -0.273 OA
BRANCH  17  20
HETATM   20  C   UNL     1      27.091  41.912  51.192  1.00  0.00     0.036 A 
HETATM   21  C   UNL     1      28.128  40.988  51.051  1.00  0.00     0.053 A 
HETATM   22  C   UNL     1      27.957  39.867  50.233  1.00  0.00     0.036 A 
HETATM   23  C   UNL     1      26.767  39.663  49.541  1.00  0.00     0.024 A 
HETATM   24 CL   UNL     1      29.226  38.710  50.108  1.00  0.00    -0.084 Cl
HETATM   25  C   UNL     1      25.734  40.587  49.666  1.00  0.00     0.004 A 
HETATM   26  C   UNL     1      25.894  41.703  50.493  1.00  0.00     0.029 A 
ENDBRANCH  17  20
ENDBRANCH  15  16
ENDBRANCH   1  15
TORSDOF 3
ENDMDL
MODEL 7
REMARK VINA RESULT:      -8.0      4.140      6.530
REMARK  3 active torsions:
REMARK  status: ('A' for Active; 'I' for Inactive)
REMARK    1  A    between atoms: C_6  and  N_7 
REMARK       I    between atoms: N_7  and  C_8 
REMARK    2  A    between atoms: C_8  and  C_9 
REMARK    3  A    between atoms: C_9  and  C_10 
ROOT
HETATM    1  C   UNL     1      26.926  40.844  50.952  1.00  0.00     0.286 C 
HETATM    2  N   UNL     1      26.586  41.798  52.103  1.00  0.00    -0.056 N 
HETATM    3  H   UNL     1      25.809  42.415  51.832  1.00  0.00     0.278 HD
HETATM    4  H   UNL     1      26.242  41.231  52.890  1.00  0.00     0.278 HD
HETATM    5  C   UNL     1      27.740  42.637  52.583  1.00  0.00     0.209 C 
HETATM    6  C   UNL     1      28.942  41.726  52.903  1.00  0.00     0.115 C 
HETATM    7  N   UNL     1      29.271  40.828  51.808  1.00  0.00    -0.353 N 
HETATM    8  C   UNL     1      28.322  40.197  51.046  1.00  0.00     0.249 C 
HETATM    9  O   UNL     1      28.611  39.212  50.371  1.00  0.00    -0.271 OA
HETATM   10  C   UNL     1      27.327  43.430  53.820  1.00  0.00     0.035 C 
HETATM   11  C   UNL     1      28.499  44.292  54.298  1.00  0.00     0.002 C 
HETATM   12  C   UNL     1      29.775  43.475  54.516  1.00  0.00     0.002 C 
HETATM   13  C   UNL     1      30.132  42.595  53.315  1.00  0.00     0.027 C 
HETATM   14  H   UNL     1      30.164  40.338  51.832  1.00  0.00     0.163 HD
ENDROOT
BRANCH   1  15
HETATM   15  C   UNL     1      26.695  41.485  49.578  1.00  0.00     0.146 C 
BRANCH  15  16
HETATM   16  C   UNL     1      25.679  42.605  49.648  1.00  0.00     0.224 C 
HETATM   17  N   UNL     1      26.171  43.833  49.260  1.00  0.00    -0.327 N 
HETATM   18  H   UNL     1      27.056  43.864  48.760  1.00  0.00     0.169 HD
HETATM   19  O   UNL     1      24.574  42.368  50.122  1.00  0.00    -0.273 OA
BRANCH  17  20
HETATM   20  C   UNL     1      25.613  45.101  49.543  1.00  0.00     0.036 A 
HETATM   21  C   UNL     1      24.400  45.552  49.020  1.00  0.00     0.053 A 
HETATM   22  C   UNL     1      23.882  46.786  49.424  1.00  0.00     0.036 A 
HETATM   23  C   UNL     1      24.569  47.586  50.334  1.00  0.00     0.024 A 
HETATM   24 CL   UNL     1      22.361  47.308  48.809  1.00  0.00    -0.084 Cl
HETATM   25  C   UNL     1      25.786  47.148  50.848  1.00  0.00     0.004 A 
HETATM   26  C   UNL     1      26.302  45.908  50.459  1.00  0.00     0.029 A 
ENDBRANCH  17  20
ENDBRANCH  15  16
ENDBRANCH   1  15
TORSDOF 3
ENDMDL
MODEL 8
REMARK VINA RESULT:      -7.9      2.194      2.940
REMARK  3 active torsions:
REMARK  status: ('A' for Active; 'I' for Inactive)
REMARK    1  A    between atoms: C_6  and  N_7 
REMARK       I    between atoms: N_7  and  C_8 
REMARK    2  A    between atoms: C_8  and  C_9 
REMARK    3  A    between atoms: C_9  and  C_10 
ROOT
HETATM    1  C   UNL     1      24.366  43.445  50.906  1.00  0.00     0.286 C 
HETATM    2  N   UNL     1      25.220  42.288  51.435  1.00  0.00    -0.056 N 
HETATM    3  H   UNL     1      25.521  42.483  52.399  1.00  0.00     0.278 HD
HETATM    4  H   UNL     1      24.622  41.452  51.484  1.00  0.00     0.278 HD
HETATM    5  C   UNL     1      26.427  41.966  50.595  1.00  0.00     0.209 C 
HETATM    6  C   UNL     1      25.997  41.764  49.128  1.00  0.00     0.115 C 
HETATM    7  N   UNL     1      25.195  42.867  48.624  1.00  0.00    -0.353 N 
HETATM    8  C   UNL     1      24.234  43.497  49.371  1.00  0.00     0.249 C 
HETATM    9  O   UNL     1      23.363  44.176  48.833  1.00  0.00    -0.271 OA
HETATM   10  C   UNL     1      27.112  40.710  51.128  1.00  0.00     0.035 C 
HETATM   11  C   UNL     1      28.346  40.393  50.279  1.00  0.00     0.002 C 
HETATM   12  C   UNL     1      28.023  40.303  48.786  1.00  0.00     0.002 C 
HETATM   13  C   UNL     1      27.240  41.515  48.272  1.00  0.00     0.027 C 
HETATM   14  H   UNL     1      25.036  42.933  47.620  1.00  0.00     0.163 HD
ENDROOT
BRANCH   1  15
HETATM   15  C   UNL     1      24.803  44.799  51.479  1.00  0.00     0.146 C 
BRANCH  15  16
HETATM   16  C   UNL     1      25.609  44.634  52.750  1.00  0.00     0.224 C 
HETATM   17  N   UNL     1      26.933  44.997  52.625  1.00  0.00    -0.327 N 
HETATM   18  H   UNL     1      27.212  45.539  51.811  1.00  0.00     0.169 HD
HETATM   19  O   UNL     1      25.074  44.115  53.722  1.00  0.00    -0.273 OA
BRANCH  17  20
HETATM   20  C   UNL     1      27.999  44.636  53.481  1.00  0.00     0.036 A 
HETATM   21  C   UNL     1      28.344  45.343  54.634  1.00  0.00     0.053 A 
HETATM   22  C   UNL     1      29.358  44.863  55.469  1.00  0.00     0.036 A 
HETATM   23  C   UNL     1      30.044  43.692  55.158  1.00  0.00     0.024 A 
HETATM   24 CL   UNL     1      29.739  45.718  56.914  1.00  0.00    -0.084 Cl
HETATM   25  C   UNL     1      29.714  42.991  54.002  1.00  0.00     0.004 A 
HETATM   26  C   UNL     1      28.692  43.458  53.171  1.00  0.00     0.029 A 
ENDBRANCH  17  20
ENDBRANCH  15  16
ENDBRANCH   1  15
TORSDOF 3
ENDMDL
MODEL 9
REMARK VINA RESULT:      -7.8      5.226      7.091
REMARK  3 active torsions:
REMARK  status: ('A' for Active; 'I' for Inactive)
REMARK    1  A    between atoms: C_6  and  N_7 
REMARK       I    between atoms: N_7  and  C_8 
REMARK    2  A    between atoms: C_8  and  C_9 
REMARK    3  A    between atoms: C_9  and  C_10 
ROOT
HETATM    1  C   UNL     1      24.587  45.466  49.817  1.00  0.00     0.286 C 
HETATM    2  N   UNL     1      25.044  46.857  49.367  1.00  0.00    -0.056 N 
HETATM    3  H   UNL     1      25.852  47.162  49.927  1.00  0.00     0.278 HD
HETATM    4  H   UNL     1      25.380  46.780  48.397  1.00  0.00     0.278 HD
HETATM    5  C   UNL     1      23.976  47.917  49.423  1.00  0.00     0.209 C 
HETATM    6  C   UNL     1      22.726  47.429  48.663  1.00  0.00     0.115 C 
HETATM    7  N   UNL     1      22.286  46.113  49.098  1.00  0.00    -0.353 N 
HETATM    8  C   UNL     1      23.152  45.093  49.393  1.00  0.00     0.249 C 
HETATM    9  O   UNL     1      22.764  43.928  49.426  1.00  0.00    -0.271 OA
HETATM   10  C   UNL     1      24.498  49.215  48.813  1.00  0.00     0.035 C 
HETATM   11  C   UNL     1      23.414  50.293  48.882  1.00  0.00     0.002 C 
HETATM   12  C   UNL     1      22.092  49.835  48.260  1.00  0.00     0.002 C 
HETATM   13  C   UNL     1      21.621  48.480  48.793  1.00  0.00     0.027 C 
HETATM   14  H   UNL     1      21.362  45.791  48.814  1.00  0.00     0.163 HD
ENDROOT
BRANCH   1  15
HETATM   15  C   UNL     1      24.804  45.240  51.319  1.00  0.00     0.146 C 
BRANCH  15  16
HETATM   16  C   UNL     1      26.215  44.779  51.615  1.00  0.00     0.224 C 
HETATM   17  N   UNL     1      26.386  44.280  52.889  1.00  0.00    -0.327 N 
HETATM   18  H   UNL     1      25.558  44.047  53.433  1.00  0.00     0.169 HD
HETATM   19  O   UNL     1      27.086  44.972  50.775  1.00  0.00    -0.273 OA
BRANCH  17  20
HETATM   20  C   UNL     1      27.607  44.112  53.581  1.00  0.00     0.036 A 
HETATM   21  C   UNL     1      28.130  45.046  54.476  1.00  0.00     0.053 A 
HETATM   22  C   UNL     1      29.302  44.757  55.181  1.00  0.00     0.036 A 
HETATM   23  C   UNL     1      29.969  43.549  54.992  1.00  0.00     0.024 A 
HETATM   24 CL   UNL     1      29.908  45.897  56.319  1.00  0.00    -0.084 Cl
HETATM   25  C   UNL     1      29.460  42.619  54.091  1.00  0.00     0.004 A 
HETATM   26  C   UNL     1      28.281  42.897  53.393  1.00  0.00     0.029 A 
ENDBRANCH  17  20
ENDBRANCH  15  16
ENDBRANCH   1  15
TORSDOF 3
ENDMDL
MODEL 10
REMARK VINA RESULT:      -7.8      8.419     10.609
REMARK  3 active torsions:
REMARK  status: ('A' for Active; 'I' for Inactive)
REMARK    1  A    between atoms: C_6  and  N_7 
REMARK       I    between atoms: N_7  and  C_8 
REMARK    2  A    between atoms: C_8  and  C_9 
REMARK    3  A    between atoms: C_9  and  C_10 
ROOT
HETATM    1  C   UNL     1      22.526  48.783  48.927  1.00  0.00     0.286 C 
HETATM    2  N   UNL     1      21.387  49.053  49.916  1.00  0.00    -0.056 N 
HETATM    3  H   UNL     1      21.020  48.164  50.283  1.00  0.00     0.278 HD
HETATM    4  H   UNL     1      21.782  49.556  50.722  1.00  0.00     0.278 HD
HETATM    5  C   UNL     1      20.249  49.863  49.355  1.00  0.00     0.209 C 
HETATM    6  C   UNL     1      20.800  51.156  48.718  1.00  0.00     0.115 C 
HETATM    7  N   UNL     1      21.874  50.898  47.772  1.00  0.00    -0.353 N 
HETATM    8  C   UNL     1      22.850  49.959  47.984  1.00  0.00     0.249 C 
HETATM    9  O   UNL     1      23.904  49.995  47.355  1.00  0.00    -0.271 OA
HETATM   10  C   UNL     1      19.253  50.197  50.462  1.00  0.00     0.035 C 
HETATM   11  C   UNL     1      18.091  51.011  49.886  1.00  0.00     0.002 C 
HETATM   12  C   UNL     1      18.566  52.250  49.122  1.00  0.00     0.002 C 
HETATM   13  C   UNL     1      19.645  51.932  48.084  1.00  0.00     0.027 C 
HETATM   14  H   UNL     1      22.164  51.651  47.149  1.00  0.00     0.163 HD
ENDROOT
BRANCH   1  15
HETATM   15  C   UNL     1      22.322  47.478  48.146  1.00  0.00     0.146 C 
BRANCH  15  16
HETATM   16  C   UNL     1      23.060  46.323  48.789  1.00  0.00     0.224 C 
HETATM   17  N   UNL     1      23.842  46.686  49.865  1.00  0.00    -0.327 N 
HETATM   18  H   UNL     1      23.699  47.604  50.279  1.00  0.00     0.169 HD
HETATM   19  O   UNL     1      22.992  45.217  48.265  1.00  0.00    -0.273 OA
BRANCH  17  20
HETATM   20  C   UNL     1      24.899  45.944  50.437  1.00  0.00     0.036 A 
HETATM   21  C   UNL     1      24.887  45.451  51.743  1.00  0.00     0.053 A 
HETATM   22  C   UNL     1      25.940  44.652  52.197  1.00  0.00     0.036 A 
HETATM   23  C   UNL     1      27.016  44.349  51.367  1.00  0.00     0.024 A 
HETATM   24 CL   UNL     1      25.887  44.009  53.794  1.00  0.00    -0.084 Cl
HETATM   25  C   UNL     1      27.041  44.849  50.069  1.00  0.00     0.004 A 
HETATM   26  C   UNL     1      25.984  45.637  49.605  1.00  0.00     0.029 A 
ENDBRANCH  17  20
ENDBRANCH  15  16
ENDBRANCH   1  15
TORSDOF 3
ENDMDL
