MODEL 1
REMARK VINA RESULT:      -9.1      0.000      0.000
REMARK  6 active torsions:
REMARK  status: ('A' for Active; 'I' for Inactive)
REMARK    1  A    between atoms: C_4  and  N_5 
REMARK       I    between atoms: N_5  and  C_6 
REMARK       I    between atoms: C_6  and  N_7 
REMARK    2  A    between atoms: N_7  and  C_8 
REMARK    3  A    between atoms: N_11  and  C_13 
REMARK    4  A    between atoms: C_13  and  C_14 
REMARK       I    between atoms: C_14  and  N_15 
REMARK    5  A    between atoms: N_15  and  C_16 
REMARK    6  A    between atoms: C_16  and  C_17 
ROOT
HETATM    1  C   UNL     1      25.954  45.799  51.741  1.00  0.00     0.090 C 
HETATM    2  C   UNL     1      24.621  45.073  51.984  1.00  0.00     0.058 C 
HETATM    3  C   UNL     1      23.839  44.688  50.722  1.00  0.00     0.191 C 
HETATM    4  N   UNL     1      24.222  45.564  49.562  1.00  0.00    -0.054 N 
HETATM    5  H   UNL     1      23.617  45.254  48.777  1.00  0.00     0.281 HD
HETATM    6  C   UNL     1      25.616  45.108  49.257  1.00  0.00     0.191 C 
HETATM    7  C   UNL     1      26.581  45.560  50.353  1.00  0.00     0.058 C 
HETATM    8  C   UNL     1      24.271  43.311  50.203  1.00  0.00     0.035 C 
HETATM    9  C   UNL     1      25.440  43.585  49.256  1.00  0.00     0.035 C 
ENDROOT
BRANCH   1  10
HETATM   10  N   UNL     1      26.889  45.561  52.839  1.00  0.00    -0.338 N 
HETATM   11  C   UNL     1      26.853  46.353  53.955  1.00  0.00     0.321 C 
HETATM   12  N   UNL     1      27.615  45.991  55.017  1.00  0.00    -0.309 N 
HETATM   13  O   UNL     1      26.109  47.327  54.042  1.00  0.00    -0.247 OA
HETATM   14  H   UNL     1      27.366  46.530  55.838  1.00  0.00     0.170 HD
HETATM   15  H   UNL     1      27.039  44.594  53.103  1.00  0.00     0.164 HD
BRANCH  12  16
HETATM   16  C   UNL     1      28.661  45.065  55.190  1.00  0.00     0.036 A 
HETATM   17  C   UNL     1      28.751  43.835  54.536  1.00  0.00     0.029 A 
HETATM   18  C   UNL     1      29.836  42.983  54.777  1.00  0.00     0.002 A 
HETATM   19  C   UNL     1      30.845  43.361  55.660  1.00  0.00     0.000 A 
HETATM   20  C   UNL     1      30.780  44.598  56.293  1.00  0.00     0.002 A 
HETATM   21  C   UNL     1      29.697  45.447  56.054  1.00  0.00     0.029 A 
ENDBRANCH  12  16
ENDBRANCH   1  10
BRANCH   4  22
HETATM   22  C   UNL     1      23.903  47.047  49.611  1.00  0.00     0.338 C 
BRANCH  22  23
HETATM   23  C   UNL     1      22.660  47.334  48.767  1.00  0.00     0.243 C 
HETATM   24  N   UNL     1      21.683  48.067  49.375  1.00  0.00    -0.354 N 
HETATM   25  H   UNL     1      21.757  48.385  50.336  1.00  0.00     0.162 HD
HETATM   26  O   UNL     1      22.581  46.876  47.628  1.00  0.00    -0.272 OA
BRANCH  24  27
HETATM   27  C   UNL     1      20.415  48.338  48.726  1.00  0.00     0.187 C 
BRANCH  27  28
HETATM   28  C   UNL     1      20.106  49.787  48.837  1.00  0.00     0.070 A 
HETATM   29  O   UNL     1      19.365  50.189  49.917  1.00  0.00    -0.325 OA
HETATM   30  C   UNL     1      19.198  51.532  49.806  1.00  0.00     0.142 A 
HETATM   31  C   UNL     1      19.821  52.001  48.674  1.00  0.00     0.027 A 
HETATM   32  C   UNL     1      20.408  50.876  48.048  1.00  0.00     0.036 A 
ENDBRANCH  27  28
ENDBRANCH  24  27
ENDBRANCH  22  23
ENDBRANCH   4  22
TORSDOF 6
ENDMDL
MODEL 2
REMARK VINA RESULT:      -8.7      2.502      9.698
REMARK  6 active torsions:
REMARK  status: ('A' for Active; 'I' for Inactive)
REMARK    1  A    between atoms: C_4  and  N_5 
REMARK       I    between atoms: N_5  and  C_6 
REMARK       I    between atoms: C_6  and  N_7 
REMARK    2  A    between atoms: N_7  and  C_8 
REMARK    3  A    between atoms: N_11  and  C_13 
REMARK    4  A    between atoms: C_13  and  C_14 
REMARK       I    between atoms: C_14  and  N_15 
REMARK    5  A    between atoms: N_15  and  C_16 
REMARK    6  A    between atoms: C_16  and  C_17 
ROOT
HETATM    1  C   UNL     1      25.514  46.322  50.609  1.00  0.00     0.090 C 
HETATM    2  C   UNL     1      26.282  45.484  49.574  1.00  0.00     0.058 C 
HETATM    3  C   UNL     1      26.528  44.020  49.960  1.00  0.00     0.191 C 
HETATM    4  N   UNL     1      26.487  43.843  51.452  1.00  0.00    -0.054 N 
HETATM    5  H   UNL     1      26.702  42.839  51.612  1.00  0.00     0.281 HD
HETATM    6  C   UNL     1      25.034  44.041  51.762  1.00  0.00     0.191 C 
HETATM    7  C   UNL     1      24.643  45.508  51.588  1.00  0.00     0.058 C 
HETATM    8  C   UNL     1      25.358  43.129  49.527  1.00  0.00     0.035 C 
HETATM    9  C   UNL     1      24.376  43.153  50.699  1.00  0.00     0.035 C 
ENDROOT
BRANCH   1  10
HETATM   10  N   UNL     1      24.784  47.412  49.966  1.00  0.00    -0.338 N 
HETATM   11  C   UNL     1      25.464  48.482  49.450  1.00  0.00     0.321 C 
HETATM   12  N   UNL     1      24.768  49.382  48.711  1.00  0.00    -0.309 N 
HETATM   13  O   UNL     1      26.680  48.609  49.577  1.00  0.00    -0.247 OA
HETATM   14  H   UNL     1      25.396  50.013  48.227  1.00  0.00     0.170 HD
HETATM   15  H   UNL     1      24.030  47.145  49.343  1.00  0.00     0.164 HD
BRANCH  12  16
HETATM   16  C   UNL     1      23.395  49.617  48.510  1.00  0.00     0.036 A 
HETATM   17  C   UNL     1      22.479  48.658  48.074  1.00  0.00     0.029 A 
HETATM   18  C   UNL     1      21.130  48.993  47.906  1.00  0.00     0.002 A 
HETATM   19  C   UNL     1      20.684  50.283  48.186  1.00  0.00     0.000 A 
HETATM   20  C   UNL     1      21.583  51.238  48.650  1.00  0.00     0.002 A 
HETATM   21  C   UNL     1      22.930  50.903  48.817  1.00  0.00     0.029 A 
ENDBRANCH  12  16
ENDBRANCH   1  10
BRANCH   4  22
HETATM   22  C   UNL     1      27.544  44.510  52.312  1.00  0.00     0.338 C 
BRANCH  22  23
HETATM   23  C   UNL     1      28.406  43.443  52.988  1.00  0.00     0.243 C 
HETATM   24  N   UNL     1      29.308  43.897  53.905  1.00  0.00    -0.354 N 
HETATM   25  H   UNL     1      29.424  44.884  54.114  1.00  0.00     0.162 HD
HETATM   26  O   UNL     1      28.280  42.263  52.660  1.00  0.00    -0.272 OA
BRANCH  24  27
HETATM   27  C   UNL     1      30.251  43.009  54.557  1.00  0.00     0.187 C 
BRANCH  27  28
HETATM   28  C   UNL     1      30.644  43.585  55.868  1.00  0.00     0.070 A 
HETATM   29  O   UNL     1      30.188  44.843  56.161  1.00  0.00    -0.325 OA
HETATM   30  C   UNL     1      30.675  45.166  57.388  1.00  0.00     0.142 A 
HETATM   31  C   UNL     1      31.435  44.135  57.889  1.00  0.00     0.027 A 
HETATM   32  C   UNL     1      31.416  43.115  56.909  1.00  0.00     0.036 A 
ENDBRANCH  27  28
ENDBRANCH  24  27
ENDBRANCH  22  23
ENDBRANCH   4  22
TORSDOF 6
ENDMDL
MODEL 3
REMARK VINA RESULT:      -8.6      2.527      9.701
REMARK  6 active torsions:
REMARK  status: ('A' for Active; 'I' for Inactive)
REMARK    1  A    between atoms: C_4  and  N_5 
REMARK       I    between atoms: N_5  and  C_6 
REMARK       I    between atoms: C_6  and  N_7 
REMARK    2  A    between atoms: N_7  and  C_8 
REMARK    3  A    between atoms: N_11  and  C_13 
REMARK    4  A    between atoms: C_13  and  C_14 
REMARK       I    between atoms: C_14  and  N_15 
REMARK    5  A    between atoms: N_15  and  C_16 
REMARK    6  A    between atoms: C_16  and  C_17 
ROOT
HETATM    1  C   UNL     1      25.788  46.310  51.416  1.00  0.00     0.090 C 
HETATM    2  C   UNL     1      25.014  45.037  51.796  1.00  0.00     0.058 C 
HETATM    3  C   UNL     1      25.534  44.291  53.030  1.00  0.00     0.191 C 
HETATM    4  N   UNL     1      26.983  44.606  53.279  1.00  0.00    -0.054 N 
HETATM    5  H   UNL     1      27.248  44.028  54.101  1.00  0.00     0.281 HD
HETATM    6  C   UNL     1      26.931  46.032  53.735  1.00  0.00     0.191 C 
HETATM    7  C   UNL     1      26.582  46.957  52.570  1.00  0.00     0.058 C 
HETATM    8  C   UNL     1      24.893  44.830  54.314  1.00  0.00     0.035 C 
HETATM    9  C   UNL     1      25.799  45.976  54.767  1.00  0.00     0.035 C 
ENDROOT
BRANCH   1  10
HETATM   10  N   UNL     1      24.927  47.259  50.713  1.00  0.00    -0.338 N 
HETATM   11  C   UNL     1      25.397  47.931  49.617  1.00  0.00     0.321 C 
HETATM   12  N   UNL     1      24.515  48.666  48.895  1.00  0.00    -0.309 N 
HETATM   13  O   UNL     1      26.562  47.831  49.238  1.00  0.00    -0.247 OA
HETATM   14  H   UNL     1      24.925  48.956  48.014  1.00  0.00     0.170 HD
HETATM   15  H   UNL     1      23.967  46.970  50.560  1.00  0.00     0.164 HD
BRANCH  12  16
HETATM   16  C   UNL     1      23.200  49.109  49.129  1.00  0.00     0.036 A 
HETATM   17  C   UNL     1      22.853  50.410  49.497  1.00  0.00     0.029 A 
HETATM   18  C   UNL     1      21.511  50.751  49.706  1.00  0.00     0.002 A 
HETATM   19  C   UNL     1      20.507  49.801  49.534  1.00  0.00     0.000 A 
HETATM   20  C   UNL     1      20.840  48.510  49.137  1.00  0.00     0.002 A 
HETATM   21  C   UNL     1      22.179  48.169  48.930  1.00  0.00     0.029 A 
ENDBRANCH  12  16
ENDBRANCH   1  10
BRANCH   4  22
HETATM   22  C   UNL     1      28.025  44.171  52.265  1.00  0.00     0.338 C 
BRANCH  22  23
HETATM   23  C   UNL     1      29.152  43.420  52.976  1.00  0.00     0.243 C 
HETATM   24  N   UNL     1      29.408  43.805  54.260  1.00  0.00    -0.354 N 
HETATM   25  H   UNL     1      28.904  44.559  54.715  1.00  0.00     0.162 HD
HETATM   26  O   UNL     1      29.783  42.556  52.369  1.00  0.00    -0.272 OA
BRANCH  24  27
HETATM   27  C   UNL     1      30.505  43.241  55.023  1.00  0.00     0.187 C 
BRANCH  27  28
HETATM   28  C   UNL     1      30.686  44.023  56.273  1.00  0.00     0.070 A 
HETATM   29  O   UNL     1      30.003  45.206  56.377  1.00  0.00    -0.325 OA
HETATM   30  C   UNL     1      30.327  45.746  57.581  1.00  0.00     0.142 A 
HETATM   31  C   UNL     1      31.205  44.930  58.253  1.00  0.00     0.027 A 
HETATM   32  C   UNL     1      31.438  43.817  57.410  1.00  0.00     0.036 A 
ENDBRANCH  27  28
ENDBRANCH  24  27
ENDBRANCH  22  23
ENDBRANCH   4  22
TORSDOF 6
ENDMDL
MODEL 4
REMARK VINA RESULT:      -8.5      4.274      8.912
REMARK  6 active torsions:
REMARK  status: ('A' for Active; 'I' for Inactive)
REMARK    1  A    between atoms: C_4  and  N_5 
REMARK       I    between atoms: N_5  and  C_6 
REMARK       I    between atoms: C_6  and  N_7 
REMARK    2  A    between atoms: N_7  and  C_8 
REMARK    3  A    between atoms: N_11  and  C_13 
REMARK    4  A    between atoms: C_13  and  C_14 
REMARK       I    between atoms: C_14  and  N_15 
REMARK    5  A    between atoms: N_15  and  C_16 
REMARK    6  A    between atoms: C_16  and  C_17 
ROOT
HETATM    1  C   UNL     1      26.686  42.673  51.553  1.00  0.00     0.090 C 
HETATM    2  C   UNL     1      25.184  42.899  51.311  1.00  0.00     0.058 C 
HETATM    3  C   UNL     1      24.715  44.356  51.384  1.00  0.00     0.191 C 
HETATM    4  N   UNL     1      25.656  45.185  52.214  1.00  0.00    -0.054 N 
HETATM    5  H   UNL     1      25.234  46.134  52.235  1.00  0.00     0.281 HD
HETATM    6  C   UNL     1      26.874  45.259  51.344  1.00  0.00     0.191 C 
HETATM    7  C   UNL     1      27.578  43.903  51.290  1.00  0.00     0.058 C 
HETATM    8  C   UNL     1      24.840  45.047  50.021  1.00  0.00     0.035 C 
HETATM    9  C   UNL     1      26.256  45.626  49.990  1.00  0.00     0.035 C 
ENDROOT
BRANCH   1  10
HETATM   10  N   UNL     1      27.154  41.470  50.868  1.00  0.00    -0.338 N 
HETATM   11  C   UNL     1      28.129  40.695  51.434  1.00  0.00     0.321 C 
HETATM   12  N   UNL     1      28.409  39.501  50.853  1.00  0.00    -0.309 N 
HETATM   13  O   UNL     1      28.699  41.015  52.475  1.00  0.00    -0.247 OA
HETATM   14  H   UNL     1      28.998  38.937  51.456  1.00  0.00     0.170 HD
HETATM   15  H   UNL     1      26.441  40.884  50.449  1.00  0.00     0.164 HD
BRANCH  12  16
HETATM   16  C   UNL     1      28.074  38.922  49.615  1.00  0.00     0.036 A 
HETATM   17  C   UNL     1      28.773  39.131  48.424  1.00  0.00     0.029 A 
HETATM   18  C   UNL     1      28.359  38.506  47.242  1.00  0.00     0.002 A 
HETATM   19  C   UNL     1      27.254  37.656  47.244  1.00  0.00     0.000 A 
HETATM   20  C   UNL     1      26.570  37.417  48.431  1.00  0.00     0.002 A 
HETATM   21  C   UNL     1      26.983  38.042  49.611  1.00  0.00     0.029 A 
ENDBRANCH  12  16
ENDBRANCH   1  10
BRANCH   4  22
HETATM   22  C   UNL     1      25.798  44.893  53.696  1.00  0.00     0.338 C 
BRANCH  22  23
HETATM   23  C   UNL     1      26.841  45.831  54.307  1.00  0.00     0.243 C 
HETATM   24  N   UNL     1      28.010  45.249  54.701  1.00  0.00    -0.354 N 
HETATM   25  H   UNL     1      28.177  44.250  54.620  1.00  0.00     0.162 HD
HETATM   26  O   UNL     1      26.575  47.024  54.447  1.00  0.00    -0.272 OA
BRANCH  24  27
HETATM   27  C   UNL     1      29.049  46.000  55.376  1.00  0.00     0.187 C 
BRANCH  27  28
HETATM   28  C   UNL     1      29.982  45.057  56.045  1.00  0.00     0.070 A 
HETATM   29  O   UNL     1      30.346  45.344  57.334  1.00  0.00    -0.325 OA
HETATM   30  C   UNL     1      31.201  44.365  57.731  1.00  0.00     0.142 A 
HETATM   31  C   UNL     1      31.391  43.454  56.720  1.00  0.00     0.027 A 
HETATM   32  C   UNL     1      30.605  43.899  55.631  1.00  0.00     0.036 A 
ENDBRANCH  27  28
ENDBRANCH  24  27
ENDBRANCH  22  23
ENDBRANCH   4  22
TORSDOF 6
ENDMDL
MODEL 5
REMARK VINA RESULT:      -8.4      1.868      2.726
REMARK  6 active torsions:
REMARK  status: ('A' for Active; 'I' for Inactive)
REMARK    1  A    between atoms: C_4  and  N_5 
REMARK       I    between atoms: N_5  and  C_6 
REMARK       I    between atoms: C_6  and  N_7 
REMARK    2  A    between atoms: N_7  and  C_8 
REMARK    3  A    between atoms: N_11  and  C_13 
REMARK    4  A    between atoms: C_13  and  C_14 
REMARK       I    between atoms: C_14  and  N_15 
REMARK    5  A    between atoms: N_15  and  C_16 
REMARK    6  A    between atoms: C_16  and  C_17 
ROOT
HETATM    1  C   UNL     1      26.406  44.571  51.991  1.00  0.00     0.090 C 
HETATM    2  C   UNL     1      27.040  44.613  50.591  1.00  0.00     0.058 C 
HETATM    3  C   UNL     1      26.318  45.494  49.565  1.00  0.00     0.191 C 
HETATM    4  N   UNL     1      24.873  45.680  49.936  1.00  0.00    -0.054 N 
HETATM    5  H   UNL     1      24.467  46.250  49.168  1.00  0.00     0.281 HD
HETATM    6  C   UNL     1      24.959  46.560  51.145  1.00  0.00     0.191 C 
HETATM    7  C   UNL     1      25.515  45.782  52.337  1.00  0.00     0.058 C 
HETATM    8  C   UNL     1      26.823  46.941  49.624  1.00  0.00     0.035 C 
HETATM    9  C   UNL     1      25.944  47.633  50.666  1.00  0.00     0.035 C 
ENDROOT
BRANCH   1  10
HETATM   10  N   UNL     1      27.411  44.290  53.015  1.00  0.00    -0.338 N 
HETATM   11  C   UNL     1      27.897  43.020  53.167  1.00  0.00     0.321 C 
HETATM   12  N   UNL     1      28.949  42.838  54.005  1.00  0.00    -0.309 N 
HETATM   13  O   UNL     1      27.459  42.070  52.523  1.00  0.00    -0.247 OA
HETATM   14  H   UNL     1      29.341  41.910  53.893  1.00  0.00     0.170 HD
HETATM   15  H   UNL     1      28.161  44.965  53.108  1.00  0.00     0.164 HD
BRANCH  12  16
HETATM   16  C   UNL     1      29.564  43.646  54.980  1.00  0.00     0.036 A 
HETATM   17  C   UNL     1      29.125  44.919  55.350  1.00  0.00     0.029 A 
HETATM   18  C   UNL     1      29.808  45.643  56.334  1.00  0.00     0.002 A 
HETATM   19  C   UNL     1      30.923  45.095  56.966  1.00  0.00     0.000 A 
HETATM   20  C   UNL     1      31.349  43.815  56.626  1.00  0.00     0.002 A 
HETATM   21  C   UNL     1      30.668  43.093  55.643  1.00  0.00     0.029 A 
ENDBRANCH  12  16
ENDBRANCH   1  10
BRANCH   4  22
HETATM   22  C   UNL     1      23.943  44.481  49.936  1.00  0.00     0.338 C 
BRANCH  22  23
HETATM   23  C   UNL     1      22.621  44.855  49.262  1.00  0.00     0.243 C 
HETATM   24  N   UNL     1      22.470  46.171  48.934  1.00  0.00    -0.354 N 
HETATM   25  H   UNL     1      23.177  46.870  49.143  1.00  0.00     0.162 HD
HETATM   26  O   UNL     1      21.763  43.991  49.085  1.00  0.00    -0.272 OA
BRANCH  24  27
HETATM   27  C   UNL     1      21.236  46.683  48.373  1.00  0.00     0.187 C 
BRANCH  27  28
HETATM   28  C   UNL     1      21.199  48.160  48.531  1.00  0.00     0.070 A 
HETATM   29  O   UNL     1      20.320  48.671  49.450  1.00  0.00    -0.325 OA
HETATM   30  C   UNL     1      20.451  50.022  49.414  1.00  0.00     0.142 A 
HETATM   31  C   UNL     1      21.400  50.389  48.490  1.00  0.00     0.027 A 
HETATM   32  C   UNL     1      21.884  49.188  47.920  1.00  0.00     0.036 A 
ENDBRANCH  27  28
ENDBRANCH  24  27
ENDBRANCH  22  23
ENDBRANCH   4  22
TORSDOF 6
ENDMDL
MODEL 6
REMARK VINA RESULT:      -8.3      1.551      1.965
REMARK  6 active torsions:
REMARK  status: ('A' for Active; 'I' for Inactive)
REMARK    1  A    between atoms: C_4  and  N_5 
REMARK       I    between atoms: N_5  and  C_6 
REMARK       I    between atoms: C_6  and  N_7 
REMARK    2  A    between atoms: N_7  and  C_8 
REMARK    3  A    between atoms: N_11  and  C_13 
REMARK    4  A    between atoms: C_13  and  C_14 
REMARK       I    between atoms: C_14  and  N_15 
REMARK    5  A    between atoms: N_15  and  C_16 
REMARK    6  A    between atoms: C_16  and  C_17 
ROOT
HETATM    1  C   UNL     1      26.477  45.373  51.896  1.00  0.00     0.090 C 
HETATM    2  C   UNL     1      25.041  44.921  52.208  1.00  0.00     0.058 C 
HETATM    3  C   UNL     1      24.096  44.843  51.003  1.00  0.00     0.191 C 
HETATM    4  N   UNL     1      24.567  45.739  49.891  1.00  0.00    -0.054 N 
HETATM    5  H   UNL     1      23.848  45.647  49.146  1.00  0.00     0.281 HD
HETATM    6  C   UNL     1      25.799  45.035  49.408  1.00  0.00     0.191 C 
HETATM    7  C   UNL     1      26.924  45.156  50.436  1.00  0.00     0.058 C 
HETATM    8  C   UNL     1      24.174  43.470  50.325  1.00  0.00     0.035 C 
HETATM    9  C   UNL     1      25.295  43.592  49.293  1.00  0.00     0.035 C 
ENDROOT
BRANCH   1  10
HETATM   10  N   UNL     1      27.422  44.829  52.869  1.00  0.00    -0.338 N 
HETATM   11  C   UNL     1      27.737  43.497  52.850  1.00  0.00     0.321 C 
HETATM   12  N   UNL     1      28.743  43.070  53.653  1.00  0.00    -0.309 N 
HETATM   13  O   UNL     1      27.187  42.706  52.087  1.00  0.00    -0.247 OA
HETATM   14  H   UNL     1      29.013  42.122  53.417  1.00  0.00     0.170 HD
HETATM   15  H   UNL     1      28.253  45.382  53.049  1.00  0.00     0.164 HD
BRANCH  12  16
HETATM   16  C   UNL     1      29.445  43.654  54.724  1.00  0.00     0.036 A 
HETATM   17  C   UNL     1      30.603  43.126  55.299  1.00  0.00     0.029 A 
HETATM   18  C   UNL     1      31.228  43.786  56.363  1.00  0.00     0.002 A 
HETATM   19  C   UNL     1      30.712  44.985  56.850  1.00  0.00     0.000 A 
HETATM   20  C   UNL     1      29.577  45.535  56.263  1.00  0.00     0.002 A 
HETATM   21  C   UNL     1      28.952  44.876  55.202  1.00  0.00     0.029 A 
ENDBRANCH  12  16
ENDBRANCH   1  10
BRANCH   4  22
HETATM   22  C   UNL     1      24.584  47.242  50.100  1.00  0.00     0.338 C 
BRANCH  22  23
HETATM   23  C   UNL     1      23.539  47.899  49.197  1.00  0.00     0.243 C 
HETATM   24  N   UNL     1      22.258  47.453  49.345  1.00  0.00    -0.354 N 
HETATM   25  H   UNL     1      22.009  46.714  49.995  1.00  0.00     0.162 HD
HETATM   26  O   UNL     1      23.891  48.745  48.376  1.00  0.00    -0.272 OA
BRANCH  24  27
HETATM   27  C   UNL     1      21.181  47.923  48.495  1.00  0.00     0.187 C 
BRANCH  27  28
HETATM   28  C   UNL     1      20.201  48.678  49.316  1.00  0.00     0.070 A 
HETATM   29  O   UNL     1      20.502  49.982  49.611  1.00  0.00    -0.325 OA
HETATM   30  C   UNL     1      19.484  50.463  50.370  1.00  0.00     0.142 A 
HETATM   31  C   UNL     1      18.532  49.491  50.567  1.00  0.00     0.027 A 
HETATM   32  C   UNL     1      18.993  48.339  49.888  1.00  0.00     0.036 A 
ENDBRANCH  27  28
ENDBRANCH  24  27
ENDBRANCH  22  23
ENDBRANCH   4  22
TORSDOF 6
ENDMDL
MODEL 7
REMARK VINA RESULT:      -8.2      4.334      7.460
REMARK  6 active torsions:
REMARK  status: ('A' for Active; 'I' for Inactive)
REMARK    1  A    between atoms: C_4  and  N_5 
REMARK       I    between atoms: N_5  and  C_6 
REMARK       I    between atoms: C_6  and  N_7 
REMARK    2  A    between atoms: N_7  and  C_8 
REMARK    3  A    between atoms: N_11  and  C_13 
REMARK    4  A    between atoms: C_13  and  C_14 
REMARK       I    between atoms: C_14  and  N_15 
REMARK    5  A    between atoms: N_15  and  C_16 
REMARK    6  A    between atoms: C_16  and  C_17 
ROOT
HETATM    1  C   UNL     1      26.978  43.517  52.629  1.00  0.00     0.090 C 
HETATM    2  C   UNL     1      27.488  43.814  51.210  1.00  0.00     0.058 C 
HETATM    3  C   UNL     1      26.446  44.381  50.238  1.00  0.00     0.191 C 
HETATM    4  N   UNL     1      25.053  44.011  50.666  1.00  0.00    -0.054 N 
HETATM    5  H   UNL     1      24.431  44.402  49.931  1.00  0.00     0.281 HD
HETATM    6  C   UNL     1      24.862  44.841  51.899  1.00  0.00     0.191 C 
HETATM    7  C   UNL     1      25.719  44.305  53.045  1.00  0.00     0.058 C 
HETATM    8  C   UNL     1      26.383  45.911  50.326  1.00  0.00     0.035 C 
HETATM    9  C   UNL     1      25.357  46.210  51.420  1.00  0.00     0.035 C 
ENDROOT
BRANCH   1  10
HETATM   10  N   UNL     1      28.060  43.612  53.607  1.00  0.00    -0.338 N 
HETATM   11  C   UNL     1      29.173  42.827  53.476  1.00  0.00     0.321 C 
HETATM   12  N   UNL     1      30.223  43.070  54.300  1.00  0.00    -0.309 N 
HETATM   13  O   UNL     1      29.271  41.970  52.601  1.00  0.00    -0.247 OA
HETATM   14  H   UNL     1      31.047  42.567  53.990  1.00  0.00     0.170 HD
HETATM   15  H   UNL     1      28.324  44.546  53.899  1.00  0.00     0.164 HD
BRANCH  12  16
HETATM   16  C   UNL     1      30.381  43.834  55.472  1.00  0.00     0.036 A 
HETATM   17  C   UNL     1      29.749  45.055  55.716  1.00  0.00     0.029 A 
HETATM   18  C   UNL     1      29.972  45.739  56.916  1.00  0.00     0.002 A 
HETATM   19  C   UNL     1      30.815  45.202  57.887  1.00  0.00     0.000 A 
HETATM   20  C   UNL     1      31.426  43.972  57.666  1.00  0.00     0.002 A 
HETATM   21  C   UNL     1      31.204  43.290  56.467  1.00  0.00     0.029 A 
ENDBRANCH  12  16
ENDBRANCH   1  10
BRANCH   4  22
HETATM   22  C   UNL     1      24.634  42.553  50.660  1.00  0.00     0.338 C 
BRANCH  22  23
HETATM   23  C   UNL     1      24.930  41.937  49.291  1.00  0.00     0.243 C 
HETATM   24  N   UNL     1      25.715  40.822  49.296  1.00  0.00    -0.354 N 
HETATM   25  H   UNL     1      26.104  40.431  50.149  1.00  0.00     0.162 HD
HETATM   26  O   UNL     1      24.493  42.478  48.276  1.00  0.00    -0.272 OA
BRANCH  24  27
HETATM   27  C   UNL     1      26.148  40.186  48.067  1.00  0.00     0.187 C 
BRANCH  27  28
HETATM   28  C   UNL     1      27.257  39.244  48.365  1.00  0.00     0.070 A 
HETATM   29  O   UNL     1      27.237  38.618  49.584  1.00  0.00    -0.325 OA
HETATM   30  C   UNL     1      28.338  37.825  49.640  1.00  0.00     0.142 A 
HETATM   31  C   UNL     1      29.065  37.929  48.478  1.00  0.00     0.027 A 
HETATM   32  C   UNL     1      28.368  38.844  47.654  1.00  0.00     0.036 A 
ENDBRANCH  27  28
ENDBRANCH  24  27
ENDBRANCH  22  23
ENDBRANCH   4  22
TORSDOF 6
ENDMDL
MODEL 8
REMARK VINA RESULT:      -8.2      3.066      4.013
REMARK  6 active torsions:
REMARK  status: ('A' for Active; 'I' for Inactive)
REMARK    1  A    between atoms: C_4  and  N_5 
REMARK       I    between atoms: N_5  and  C_6 
REMARK       I    between atoms: C_6  and  N_7 
REMARK    2  A    between atoms: N_7  and  C_8 
REMARK    3  A    between atoms: N_11  and  C_13 
REMARK    4  A    between atoms: C_13  and  C_14 
REMARK       I    between atoms: C_14  and  N_15 
REMARK    5  A    between atoms: N_15  and  C_16 
REMARK    6  A    between atoms: C_16  and  C_17 
ROOT
HETATM    1  C   UNL     1      26.643  43.635  51.650  1.00  0.00     0.090 C 
HETATM    2  C   UNL     1      27.238  44.324  50.411  1.00  0.00     0.058 C 
HETATM    3  C   UNL     1      26.221  44.972  49.463  1.00  0.00     0.191 C 
HETATM    4  N   UNL     1      24.866  44.339  49.613  1.00  0.00    -0.054 N 
HETATM    5  H   UNL     1      24.266  44.813  48.909  1.00  0.00     0.281 HD
HETATM    6  C   UNL     1      24.432  44.820  50.964  1.00  0.00     0.191 C 
HETATM    7  C   UNL     1      25.245  44.137  52.064  1.00  0.00     0.058 C 
HETATM    8  C   UNL     1      25.918  46.416  49.880  1.00  0.00     0.035 C 
HETATM    9  C   UNL     1      24.758  46.315  50.870  1.00  0.00     0.035 C 
ENDROOT
BRANCH   1  10
HETATM   10  N   UNL     1      27.598  43.628  52.756  1.00  0.00    -0.338 N 
HETATM   11  C   UNL     1      28.250  42.473  53.092  1.00  0.00     0.321 C 
HETATM   12  N   UNL     1      29.251  42.550  54.005  1.00  0.00    -0.309 N 
HETATM   13  O   UNL     1      28.004  41.400  52.546  1.00  0.00    -0.247 OA
HETATM   14  H   UNL     1      29.781  41.686  54.031  1.00  0.00     0.170 HD
HETATM   15  H   UNL     1      28.234  44.416  52.809  1.00  0.00     0.164 HD
BRANCH  12  16
HETATM   16  C   UNL     1      29.668  43.547  54.906  1.00  0.00     0.036 A 
HETATM   17  C   UNL     1      29.050  44.790  55.059  1.00  0.00     0.029 A 
HETATM   18  C   UNL     1      29.542  45.715  55.987  1.00  0.00     0.002 A 
HETATM   19  C   UNL     1      30.645  45.400  56.779  1.00  0.00     0.000 A 
HETATM   20  C   UNL     1      31.248  44.153  56.656  1.00  0.00     0.002 A 
HETATM   21  C   UNL     1      30.758  43.230  55.729  1.00  0.00     0.029 A 
ENDBRANCH  12  16
ENDBRANCH   1  10
BRANCH   4  22
HETATM   22  C   UNL     1      24.675  42.884  49.228  1.00  0.00     0.338 C 
BRANCH  22  23
HETATM   23  C   UNL     1      23.309  42.702  48.564  1.00  0.00     0.243 C 
HETATM   24  N   UNL     1      23.020  43.567  47.550  1.00  0.00    -0.354 N 
HETATM   25  H   UNL     1      23.656  44.306  47.264  1.00  0.00     0.162 HD
HETATM   26  O   UNL     1      22.541  41.837  48.983  1.00  0.00    -0.272 OA
BRANCH  24  27
HETATM   27  C   UNL     1      21.728  43.568  46.890  1.00  0.00     0.187 C 
BRANCH  27  28
HETATM   28  C   UNL     1      20.856  44.593  47.520  1.00  0.00     0.070 A 
HETATM   29  O   UNL     1      19.516  44.318  47.589  1.00  0.00    -0.325 OA
HETATM   30  C   UNL     1      18.923  45.386  48.183  1.00  0.00     0.142 A 
HETATM   31  C   UNL     1      19.859  46.341  48.500  1.00  0.00     0.027 A 
HETATM   32  C   UNL     1      21.108  45.831  48.072  1.00  0.00     0.036 A 
ENDBRANCH  27  28
ENDBRANCH  24  27
ENDBRANCH  22  23
ENDBRANCH   4  22
TORSDOF 6
ENDMDL
MODEL 9
REMARK VINA RESULT:      -8.0     11.808     13.197
REMARK  6 active torsions:
REMARK  status: ('A' for Active; 'I' for Inactive)
REMARK    1  A    between atoms: C_4  and  N_5 
REMARK       I    between atoms: N_5  and  C_6 
REMARK       I    between atoms: C_6  and  N_7 
REMARK    2  A    between atoms: N_7  and  C_8 
REMARK    3  A    between atoms: N_11  and  C_13 
REMARK    4  A    between atoms: C_13  and  C_14 
REMARK       I    between atoms: C_14  and  N_15 
REMARK    5  A    between atoms: N_15  and  C_16 
REMARK    6  A    between atoms: C_16  and  C_17 
ROOT
HETATM    1  C   UNL     1      30.361  50.678  40.793  1.00  0.00     0.090 C 
HETATM    2  C   UNL     1      30.249  50.274  39.314  1.00  0.00     0.058 C 
HETATM    3  C   UNL     1      29.034  50.836  38.566  1.00  0.00     0.191 C 
HETATM    4  N   UNL     1      27.926  51.182  39.521  1.00  0.00    -0.054 N 
HETATM    5  H   UNL     1      27.144  51.512  38.921  1.00  0.00     0.281 HD
HETATM    6  C   UNL     1      28.475  52.379  40.235  1.00  0.00     0.191 C 
HETATM    7  C   UNL     1      29.610  51.971  41.173  1.00  0.00     0.058 C 
HETATM    8  C   UNL     1      29.343  52.213  37.965  1.00  0.00     0.035 C 
HETATM    9  C   UNL     1      28.989  53.220  39.061  1.00  0.00     0.035 C 
ENDROOT
BRANCH   1  10
HETATM   10  N   UNL     1      31.754  50.675  41.235  1.00  0.00    -0.338 N 
HETATM   11  C   UNL     1      32.148  49.855  42.257  1.00  0.00     0.321 C 
HETATM   12  N   UNL     1      33.476  49.756  42.517  1.00  0.00    -0.309 N 
HETATM   13  O   UNL     1      31.350  49.166  42.888  1.00  0.00    -0.247 OA
HETATM   14  H   UNL     1      33.661  48.989  43.153  1.00  0.00     0.170 HD
HETATM   15  H   UNL     1      32.458  50.688  40.506  1.00  0.00     0.164 HD
BRANCH  12  16
HETATM   16  C   UNL     1      34.602  50.496  42.111  1.00  0.00     0.036 A 
HETATM   17  C   UNL     1      35.134  51.582  42.810  1.00  0.00     0.029 A 
HETATM   18  C   UNL     1      36.262  52.252  42.322  1.00  0.00     0.002 A 
HETATM   19  C   UNL     1      36.874  51.835  41.142  1.00  0.00     0.000 A 
HETATM   20  C   UNL     1      36.370  50.736  40.455  1.00  0.00     0.002 A 
HETATM   21  C   UNL     1      35.244  50.067  40.941  1.00  0.00     0.029 A 
ENDBRANCH  12  16
ENDBRANCH   1  10
BRANCH   4  22
HETATM   22  C   UNL     1      27.246  50.076  40.306  1.00  0.00     0.338 C 
BRANCH  22  23
HETATM   23  C   UNL     1      26.152  49.434  39.451  1.00  0.00     0.243 C 
HETATM   24  N   UNL     1      25.022  50.179  39.271  1.00  0.00    -0.354 N 
HETATM   25  H   UNL     1      24.897  51.093  39.696  1.00  0.00     0.162 HD
HETATM   26  O   UNL     1      26.315  48.298  39.007  1.00  0.00    -0.272 OA
BRANCH  24  27
HETATM   27  C   UNL     1      23.871  49.661  38.558  1.00  0.00     0.187 C 
BRANCH  27  28
HETATM   28  C   UNL     1      22.634  50.019  39.298  1.00  0.00     0.070 A 
HETATM   29  O   UNL     1      22.075  51.241  39.031  1.00  0.00    -0.325 OA
HETATM   30  C   UNL     1      20.976  51.355  39.822  1.00  0.00     0.142 A 
HETATM   31  C   UNL     1      20.817  50.227  40.590  1.00  0.00     0.027 A 
HETATM   32  C   UNL     1      21.886  49.363  40.253  1.00  0.00     0.036 A 
ENDBRANCH  27  28
ENDBRANCH  24  27
ENDBRANCH  22  23
ENDBRANCH   4  22
TORSDOF 6
ENDMDL
MODEL 10
REMARK VINA RESULT:      -7.9      3.627     11.678
REMARK  6 active torsions:
REMARK  status: ('A' for Active; 'I' for Inactive)
REMARK    1  A    between atoms: C_4  and  N_5 
REMARK       I    between atoms: N_5  and  C_6 
REMARK       I    between atoms: C_6  and  N_7 
REMARK    2  A    between atoms: N_7  and  C_8 
REMARK    3  A    between atoms: N_11  and  C_13 
REMARK    4  A    between atoms: C_13  and  C_14 
REMARK       I    between atoms: C_14  and  N_15 
REMARK    5  A    between atoms: N_15  and  C_16 
REMARK    6  A    between atoms: C_16  and  C_17 
ROOT
HETATM    1  C   UNL     1      19.846  50.724  47.533  1.00  0.00     0.090 C 
HETATM    2  C   UNL     1      19.959  49.192  47.611  1.00  0.00     0.058 C 
HETATM    3  C   UNL     1      20.269  48.622  49.000  1.00  0.00     0.191 C 
HETATM    4  N   UNL     1      20.947  49.649  49.864  1.00  0.00    -0.054 N 
HETATM    5  H   UNL     1      21.149  49.159  50.759  1.00  0.00     0.281 HD
HETATM    6  C   UNL     1      19.843  50.627  50.132  1.00  0.00     0.191 C 
HETATM    7  C   UNL     1      19.510  51.419  48.868  1.00  0.00     0.058 C 
HETATM    8  C   UNL     1      18.982  48.373  49.796  1.00  0.00     0.035 C 
HETATM    9  C   UNL     1      18.698  49.687  50.525  1.00  0.00     0.035 C 
ENDROOT
BRANCH   1  10
HETATM   10  N   UNL     1      18.965  51.131  46.440  1.00  0.00    -0.338 N 
HETATM   11  C   UNL     1      17.644  50.775  46.454  1.00  0.00     0.321 C 
HETATM   12  N   UNL     1      16.829  51.318  45.515  1.00  0.00    -0.309 N 
HETATM   13  O   UNL     1      17.172  50.045  47.323  1.00  0.00    -0.247 OA
HETATM   14  H   UNL     1      15.856  51.139  45.737  1.00  0.00     0.170 HD
HETATM   15  H   UNL     1      19.067  52.084  46.110  1.00  0.00     0.164 HD
BRANCH  12  16
HETATM   16  C   UNL     1      17.061  52.033  44.325  1.00  0.00     0.036 A 
HETATM   17  C   UNL     1      16.816  53.397  44.157  1.00  0.00     0.029 A 
HETATM   18  C   UNL     1      17.082  54.017  42.931  1.00  0.00     0.002 A 
HETATM   19  C   UNL     1      17.608  53.283  41.869  1.00  0.00     0.000 A 
HETATM   20  C   UNL     1      17.884  51.930  42.037  1.00  0.00     0.002 A 
HETATM   21  C   UNL     1      17.617  51.311  43.261  1.00  0.00     0.029 A 
ENDBRANCH  12  16
ENDBRANCH   1  10
BRANCH   4  22
HETATM   22  C   UNL     1      22.328  50.149  49.485  1.00  0.00     0.338 C 
BRANCH  22  23
HETATM   23  C   UNL     1      23.221  48.964  49.114  1.00  0.00     0.243 C 
HETATM   24  N   UNL     1      23.511  48.096  50.126  1.00  0.00    -0.354 N 
HETATM   25  H   UNL     1      23.180  48.235  51.076  1.00  0.00     0.162 HD
HETATM   26  O   UNL     1      23.656  48.866  47.967  1.00  0.00    -0.272 OA
BRANCH  24  27
HETATM   27  C   UNL     1      24.417  46.979  49.941  1.00  0.00     0.187 C 
BRANCH  27  28
HETATM   28  C   UNL     1      24.944  46.550  51.261  1.00  0.00     0.070 A 
HETATM   29  O   UNL     1      25.381  47.531  52.111  1.00  0.00    -0.325 OA
HETATM   30  C   UNL     1      25.825  46.913  53.236  1.00  0.00     0.142 A 
HETATM   31  C   UNL     1      25.679  45.550  53.125  1.00  0.00     0.027 A 
HETATM   32  C   UNL     1      25.111  45.314  51.850  1.00  0.00     0.036 A 
ENDBRANCH  27  28
ENDBRANCH  24  27
ENDBRANCH  22  23
ENDBRANCH   4  22
TORSDOF 6
ENDMDL
