MODEL 1
REMARK VINA RESULT:     -10.1      0.000      0.000
REMARK  3 active torsions:
REMARK  status: ('A' for Active; 'I' for Inactive)
REMARK    1  A    between atoms: C_2  and  C_3 
REMARK    2  A    between atoms: C_8  and  C_9 
REMARK       I    between atoms: C_9  and  N_10 
REMARK    3  A    between atoms: N_10  and  C_11 
ROOT
HETATM    1  C   UNL     1      27.229  41.991  49.803  1.00  0.00     0.104 A 
HETATM    2  N   UNL     1      27.412  41.248  48.696  1.00  0.00    -0.174 NA
HETATM    3  N   UNL     1      28.132  40.198  49.102  1.00  0.00    -0.288 N 
HETATM    4  H   UNL     1      28.364  39.480  48.423  1.00  0.00     0.188 HD
HETATM    5  C   UNL     1      28.466  40.251  50.414  1.00  0.00     0.128 A 
HETATM    6  C   UNL     1      27.930  41.424  50.917  1.00  0.00     0.080 A 
ENDROOT
BRANCH   6   7
HETATM    7  C   UNL     1      28.114  41.843  52.304  1.00  0.00     0.260 C 
HETATM    8  N   UNL     1      28.868  42.990  52.468  1.00  0.00    -0.323 N 
HETATM    9  H   UNL     1      29.235  43.419  51.629  1.00  0.00     0.169 HD
HETATM   10  O   UNL     1      27.656  41.156  53.211  1.00  0.00    -0.267 OA
BRANCH   8  11
HETATM   11  C   UNL     1      29.231  43.613  53.683  1.00  0.00     0.035 A 
HETATM   12  C   UNL     1      30.255  43.159  54.518  1.00  0.00     0.037 A 
HETATM   13  C   UNL     1      30.530  43.860  55.684  1.00  0.00    -0.050 A 
HETATM   14  C   UNL     1      29.812  45.006  56.031  1.00  0.00    -0.052 A 
HETATM   15  C   UNL     1      31.610  43.582  56.685  1.00  0.00     0.039 C 
HETATM   16  C   UNL     1      30.341  45.603  57.296  1.00  0.00     0.039 C 
HETATM   17  C   UNL     1      28.800  45.476  55.217  1.00  0.00     0.010 A 
HETATM   18  C   UNL     1      31.134  44.423  57.878  1.00  0.00     0.009 C 
HETATM   19  C   UNL     1      28.508  44.772  54.043  1.00  0.00     0.030 A 
ENDBRANCH   8  11
ENDBRANCH   6   7
BRANCH   1  20
HETATM   20  C   UNL     1      26.383  43.186  49.719  1.00  0.00    -0.002 A 
HETATM   21  C   UNL     1      25.002  43.044  49.501  1.00  0.00     0.017 A 
HETATM   22  C   UNL     1      24.166  44.162  49.449  1.00  0.00     0.040 A 
HETATM   23  C   UNL     1      24.705  45.433  49.620  1.00  0.00     0.102 A 
HETATM   24  C   UNL     1      26.081  45.589  49.816  1.00  0.00     0.103 A 
HETATM   25  O   UNL     1      23.826  46.485  49.585  1.00  0.00    -0.346 OA
HETATM   26  C   UNL     1      26.915  44.471  49.890  1.00  0.00     0.053 A 
HETATM   27  O   UNL     1      26.683  46.814  49.958  1.00  0.00    -0.346 OA
HETATM   28  C   UNL     1      25.811  47.877  49.554  1.00  0.00     0.202 C 
HETATM   29  C   UNL     1      24.418  47.673  50.124  1.00  0.00     0.202 C 
ENDBRANCH   1  20
TORSDOF 3
ENDMDL
MODEL 2
REMARK VINA RESULT:     -10.0      1.642      2.551
REMARK  3 active torsions:
REMARK  status: ('A' for Active; 'I' for Inactive)
REMARK    1  A    between atoms: C_2  and  C_3 
REMARK    2  A    between atoms: C_8  and  C_9 
REMARK       I    between atoms: C_9  and  N_10 
REMARK    3  A    between atoms: N_10  and  C_11 
ROOT
HETATM    1  C   UNL     1      25.907  44.124  50.206  1.00  0.00     0.104 A 
HETATM    2  N   UNL     1      25.789  43.250  49.189  1.00  0.00    -0.174 NA
HETATM    3  N   UNL     1      26.062  42.058  49.727  1.00  0.00    -0.288 N 
HETATM    4  H   UNL     1      26.001  41.235  49.134  1.00  0.00     0.188 HD
HETATM    5  C   UNL     1      26.397  42.124  51.038  1.00  0.00     0.128 A 
HETATM    6  C   UNL     1      26.347  43.459  51.398  1.00  0.00     0.080 A 
ENDROOT
BRANCH   6   7
HETATM    7  C   UNL     1      26.683  43.927  52.740  1.00  0.00     0.260 C 
HETATM    8  N   UNL     1      28.034  44.113  52.968  1.00  0.00    -0.323 N 
HETATM    9  H   UNL     1      28.660  43.895  52.204  1.00  0.00     0.169 HD
HETATM   10  O   UNL     1      25.794  44.071  53.573  1.00  0.00    -0.267 OA
BRANCH   8  11
HETATM   11  C   UNL     1      28.654  44.530  54.166  1.00  0.00     0.035 A 
HETATM   12  C   UNL     1      29.696  43.837  54.790  1.00  0.00     0.037 A 
HETATM   13  C   UNL     1      30.236  44.349  55.961  1.00  0.00    -0.050 A 
HETATM   14  C   UNL     1      29.766  45.539  56.520  1.00  0.00    -0.052 A 
HETATM   15  C   UNL     1      31.383  43.801  56.754  1.00  0.00     0.039 C 
HETATM   16  C   UNL     1      30.551  45.899  57.741  1.00  0.00     0.039 C 
HETATM   17  C   UNL     1      28.742  46.243  55.918  1.00  0.00     0.010 A 
HETATM   18  C   UNL     1      31.215  44.556  58.080  1.00  0.00     0.009 C 
HETATM   19  C   UNL     1      28.183  45.731  54.741  1.00  0.00     0.030 A 
ENDBRANCH   8  11
ENDBRANCH   6   7
BRANCH   1  20
HETATM   20  C   UNL     1      25.575  45.532  49.969  1.00  0.00    -0.002 A 
HETATM   21  C   UNL     1      26.590  46.502  50.020  1.00  0.00     0.017 A 
HETATM   22  C   UNL     1      26.310  47.847  49.764  1.00  0.00     0.040 A 
HETATM   23  C   UNL     1      25.011  48.233  49.451  1.00  0.00     0.102 A 
HETATM   24  C   UNL     1      23.987  47.280  49.419  1.00  0.00     0.103 A 
HETATM   25  O   UNL     1      24.810  49.562  49.186  1.00  0.00    -0.346 OA
HETATM   26  C   UNL     1      24.270  45.932  49.652  1.00  0.00     0.053 A 
HETATM   27  O   UNL     1      22.679  47.595  49.150  1.00  0.00    -0.346 OA
HETATM   28  C   UNL     1      22.450  49.006  49.243  1.00  0.00     0.202 C 
HETATM   29  C   UNL     1      23.552  49.776  48.534  1.00  0.00     0.202 C 
ENDBRANCH   1  20
TORSDOF 3
ENDMDL
MODEL 3
REMARK VINA RESULT:      -9.6      2.110      3.259
REMARK  3 active torsions:
REMARK  status: ('A' for Active; 'I' for Inactive)
REMARK    1  A    between atoms: C_2  and  C_3 
REMARK    2  A    between atoms: C_8  and  C_9 
REMARK       I    between atoms: C_9  and  N_10 
REMARK    3  A    between atoms: N_10  and  C_11 
ROOT
HETATM    1  C   UNL     1      24.784  44.359  49.779  1.00  0.00     0.104 A 
HETATM    2  N   UNL     1      24.290  43.605  48.779  1.00  0.00    -0.174 NA
HETATM    3  N   UNL     1      24.386  42.347  49.219  1.00  0.00    -0.288 N 
HETATM    4  H   UNL     1      24.036  41.601  48.625  1.00  0.00     0.188 HD
HETATM    5  C   UNL     1      24.964  42.246  50.439  1.00  0.00     0.128 A 
HETATM    6  C   UNL     1      25.279  43.532  50.841  1.00  0.00     0.080 A 
ENDROOT
BRANCH   6   7
HETATM    7  C   UNL     1      25.953  43.821  52.105  1.00  0.00     0.260 C 
HETATM    8  N   UNL     1      27.324  43.646  52.083  1.00  0.00    -0.323 N 
HETATM    9  H   UNL     1      27.730  43.322  51.215  1.00  0.00     0.169 HD
HETATM   10  O   UNL     1      25.290  44.136  53.087  1.00  0.00    -0.267 OA
BRANCH   8  11
HETATM   11  C   UNL     1      28.230  43.823  53.153  1.00  0.00     0.035 A 
HETATM   12  C   UNL     1      28.092  44.805  54.139  1.00  0.00     0.037 A 
HETATM   13  C   UNL     1      29.039  44.877  55.150  1.00  0.00    -0.050 A 
HETATM   14  C   UNL     1      30.116  43.990  55.204  1.00  0.00    -0.052 A 
HETATM   15  C   UNL     1      29.052  45.807  56.325  1.00  0.00     0.039 C 
HETATM   16  C   UNL     1      30.953  44.242  56.417  1.00  0.00     0.039 C 
HETATM   17  C   UNL     1      30.268  43.008  54.244  1.00  0.00     0.010 A 
HETATM   18  C   UNL     1      30.503  45.659  56.804  1.00  0.00     0.009 C 
HETATM   19  C   UNL     1      29.324  42.932  53.214  1.00  0.00     0.030 A 
ENDBRANCH   8  11
ENDBRANCH   6   7
BRANCH   1  20
HETATM   20  C   UNL     1      24.735  45.819  49.653  1.00  0.00    -0.002 A 
HETATM   21  C   UNL     1      25.918  46.566  49.777  1.00  0.00     0.017 A 
HETATM   22  C   UNL     1      25.908  47.955  49.628  1.00  0.00     0.040 A 
HETATM   23  C   UNL     1      24.712  48.609  49.349  1.00  0.00     0.102 A 
HETATM   24  C   UNL     1      23.523  47.879  49.244  1.00  0.00     0.103 A 
HETATM   25  O   UNL     1      24.776  49.969  49.188  1.00  0.00    -0.346 OA
HETATM   26  C   UNL     1      23.536  46.488  49.371  1.00  0.00     0.053 A 
HETATM   27  O   UNL     1      22.305  48.462  49.003  1.00  0.00    -0.346 OA
HETATM   28  C   UNL     1      22.353  49.880  49.207  1.00  0.00     0.202 C 
HETATM   29  C   UNL     1      23.593  50.472  48.557  1.00  0.00     0.202 C 
ENDBRANCH   1  20
TORSDOF 3
ENDMDL
MODEL 4
REMARK VINA RESULT:      -9.6      5.120     10.096
REMARK  3 active torsions:
REMARK  status: ('A' for Active; 'I' for Inactive)
REMARK    1  A    between atoms: C_2  and  C_3 
REMARK    2  A    between atoms: C_8  and  C_9 
REMARK       I    between atoms: C_9  and  N_10 
REMARK    3  A    between atoms: N_10  and  C_11 
ROOT
HETATM    1  C   UNL     1      25.722  48.423  49.226  1.00  0.00     0.104 A 
HETATM    2  N   UNL     1      27.007  48.713  48.945  1.00  0.00    -0.174 NA
HETATM    3  N   UNL     1      26.951  49.785  48.149  1.00  0.00    -0.288 N 
HETATM    4  H   UNL     1      27.824  50.199  47.835  1.00  0.00     0.188 HD
HETATM    5  C   UNL     1      25.686  50.176  47.862  1.00  0.00     0.128 A 
HETATM    6  C   UNL     1      24.838  49.297  48.512  1.00  0.00     0.080 A 
ENDROOT
BRANCH   6   7
HETATM    7  C   UNL     1      23.383  49.383  48.408  1.00  0.00     0.260 C 
HETATM    8  N   UNL     1      22.797  50.320  49.238  1.00  0.00    -0.323 N 
HETATM    9  H   UNL     1      23.414  50.841  49.847  1.00  0.00     0.169 HD
HETATM   10  O   UNL     1      22.782  48.616  47.662  1.00  0.00    -0.267 OA
BRANCH   8  11
HETATM   11  C   UNL     1      21.421  50.607  49.372  1.00  0.00     0.035 A 
HETATM   12  C   UNL     1      20.760  51.616  48.664  1.00  0.00     0.037 A 
HETATM   13  C   UNL     1      19.401  51.800  48.870  1.00  0.00    -0.050 A 
HETATM   14  C   UNL     1      18.684  50.998  49.761  1.00  0.00    -0.052 A 
HETATM   15  C   UNL     1      18.496  52.776  48.181  1.00  0.00     0.039 C 
HETATM   16  C   UNL     1      17.233  51.362  49.755  1.00  0.00     0.039 C 
HETATM   17  C   UNL     1      19.314  49.992  50.467  1.00  0.00     0.010 A 
HETATM   18  C   UNL     1      17.274  52.756  49.112  1.00  0.00     0.009 C 
HETATM   19  C   UNL     1      20.688  49.803  50.273  1.00  0.00     0.030 A 
ENDBRANCH   8  11
ENDBRANCH   6   7
BRANCH   1  20
HETATM   20  C   UNL     1      25.434  47.339  50.169  1.00  0.00    -0.002 A 
HETATM   21  C   UNL     1      24.569  46.299  49.787  1.00  0.00     0.017 A 
HETATM   22  C   UNL     1      24.302  45.235  50.652  1.00  0.00     0.040 A 
HETATM   23  C   UNL     1      24.901  45.199  51.906  1.00  0.00     0.102 A 
HETATM   24  C   UNL     1      25.748  46.239  52.307  1.00  0.00     0.103 A 
HETATM   25  O   UNL     1      24.618  44.114  52.695  1.00  0.00    -0.346 OA
HETATM   26  C   UNL     1      26.033  47.292  51.435  1.00  0.00     0.053 A 
HETATM   27  O   UNL     1      26.346  46.284  53.541  1.00  0.00    -0.346 OA
HETATM   28  C   UNL     1      25.748  45.351  54.449  1.00  0.00     0.202 C 
HETATM   29  C   UNL     1      25.550  44.002  53.776  1.00  0.00     0.202 C 
ENDBRANCH   1  20
TORSDOF 3
ENDMDL
MODEL 5
REMARK VINA RESULT:      -9.4      2.630      4.520
REMARK  3 active torsions:
REMARK  status: ('A' for Active; 'I' for Inactive)
REMARK    1  A    between atoms: C_2  and  C_3 
REMARK    2  A    between atoms: C_8  and  C_9 
REMARK       I    between atoms: C_9  and  N_10 
REMARK    3  A    between atoms: N_10  and  C_11 
ROOT
HETATM    1  C   UNL     1      25.515  44.107  50.877  1.00  0.00     0.104 A 
HETATM    2  N   UNL     1      24.712  44.841  50.084  1.00  0.00    -0.174 NA
HETATM    3  N   UNL     1      24.503  45.973  50.761  1.00  0.00    -0.288 N 
HETATM    4  H   UNL     1      23.938  46.698  50.327  1.00  0.00     0.188 HD
HETATM    5  C   UNL     1      25.095  45.988  51.979  1.00  0.00     0.128 A 
HETATM    6  C   UNL     1      25.744  44.774  52.124  1.00  0.00     0.080 A 
ENDROOT
BRANCH   6   7
HETATM    7  C   UNL     1      26.472  44.410  53.337  1.00  0.00     0.260 C 
HETATM    8  N   UNL     1      27.805  44.778  53.345  1.00  0.00    -0.323 N 
HETATM    9  H   UNL     1      28.156  45.241  52.517  1.00  0.00     0.169 HD
HETATM   10  O   UNL     1      25.902  43.779  54.221  1.00  0.00    -0.267 OA
BRANCH   8  11
HETATM   11  C   UNL     1      28.756  44.539  54.361  1.00  0.00     0.035 A 
HETATM   12  C   UNL     1      28.876  45.318  55.516  1.00  0.00     0.037 A 
HETATM   13  C   UNL     1      29.843  44.982  56.454  1.00  0.00    -0.050 A 
HETATM   14  C   UNL     1      30.686  43.884  56.269  1.00  0.00    -0.052 A 
HETATM   15  C   UNL     1      30.104  45.641  57.774  1.00  0.00     0.039 C 
HETATM   16  C   UNL     1      31.593  43.705  57.445  1.00  0.00     0.039 C 
HETATM   17  C   UNL     1      30.581  43.098  55.138  1.00  0.00     0.010 A 
HETATM   18  C   UNL     1      31.494  45.084  58.114  1.00  0.00     0.009 C 
HETATM   19  C   UNL     1      29.616  43.433  54.181  1.00  0.00     0.030 A 
ENDBRANCH   8  11
ENDBRANCH   6   7
BRANCH   1  20
HETATM   20  C   UNL     1      26.017  42.823  50.377  1.00  0.00    -0.002 A 
HETATM   21  C   UNL     1      25.713  41.641  51.073  1.00  0.00     0.017 A 
HETATM   22  C   UNL     1      26.149  40.400  50.603  1.00  0.00     0.040 A 
HETATM   23  C   UNL     1      26.892  40.330  49.429  1.00  0.00     0.102 A 
HETATM   24  C   UNL     1      27.220  41.502  48.738  1.00  0.00     0.103 A 
HETATM   25  O   UNL     1      27.265  39.080  49.009  1.00  0.00    -0.346 OA
HETATM   26  C   UNL     1      26.765  42.741  49.195  1.00  0.00     0.053 A 
HETATM   27  O   UNL     1      27.976  41.510  47.593  1.00  0.00    -0.346 OA
HETATM   28  C   UNL     1      28.643  40.257  47.397  1.00  0.00     0.202 C 
HETATM   29  C   UNL     1      27.690  39.099  47.641  1.00  0.00     0.202 C 
ENDBRANCH   1  20
TORSDOF 3
ENDMDL
MODEL 6
REMARK VINA RESULT:      -9.3      2.346      7.250
REMARK  3 active torsions:
REMARK  status: ('A' for Active; 'I' for Inactive)
REMARK    1  A    between atoms: C_2  and  C_3 
REMARK    2  A    between atoms: C_8  and  C_9 
REMARK       I    between atoms: C_9  and  N_10 
REMARK    3  A    between atoms: N_10  and  C_11 
ROOT
HETATM    1  C   UNL     1      27.224  42.212  52.322  1.00  0.00     0.104 A 
HETATM    2  N   UNL     1      27.401  40.893  52.118  1.00  0.00    -0.174 NA
HETATM    3  N   UNL     1      26.558  40.582  51.129  1.00  0.00    -0.288 N 
HETATM    4  H   UNL     1      26.547  39.626  50.787  1.00  0.00     0.188 HD
HETATM    5  C   UNL     1      25.806  41.630  50.714  1.00  0.00     0.128 A 
HETATM    6  C   UNL     1      26.175  42.718  51.486  1.00  0.00     0.080 A 
ENDROOT
BRANCH   6   7
HETATM    7  C   UNL     1      25.549  44.031  51.347  1.00  0.00     0.260 C 
HETATM    8  N   UNL     1      25.943  44.746  50.231  1.00  0.00    -0.323 N 
HETATM    9  H   UNL     1      26.631  44.312  49.631  1.00  0.00     0.169 HD
HETATM   10  O   UNL     1      24.784  44.433  52.217  1.00  0.00    -0.267 OA
BRANCH   8  11
HETATM   11  C   UNL     1      25.530  46.042  49.851  1.00  0.00     0.035 A 
HETATM   12  C   UNL     1      24.210  46.381  49.539  1.00  0.00     0.037 A 
HETATM   13  C   UNL     1      23.919  47.691  49.189  1.00  0.00    -0.050 A 
HETATM   14  C   UNL     1      24.913  48.672  49.150  1.00  0.00    -0.052 A 
HETATM   15  C   UNL     1      22.577  48.277  48.873  1.00  0.00     0.039 C 
HETATM   16  C   UNL     1      24.331  50.006  48.803  1.00  0.00     0.039 C 
HETATM   17  C   UNL     1      26.222  48.361  49.460  1.00  0.00     0.010 A 
HETATM   18  C   UNL     1      22.979  49.596  48.199  1.00  0.00     0.009 C 
HETATM   19  C   UNL     1      26.529  47.040  49.806  1.00  0.00     0.030 A 
ENDBRANCH   8  11
ENDBRANCH   6   7
BRANCH   1  20
HETATM   20  C   UNL     1      28.082  42.897  53.293  1.00  0.00    -0.002 A 
HETATM   21  C   UNL     1      29.412  42.477  53.461  1.00  0.00     0.017 A 
HETATM   22  C   UNL     1      30.263  43.132  54.355  1.00  0.00     0.040 A 
HETATM   23  C   UNL     1      29.791  44.217  55.086  1.00  0.00     0.102 A 
HETATM   24  C   UNL     1      28.462  44.631  54.944  1.00  0.00     0.103 A 
HETATM   25  O   UNL     1      30.684  44.831  55.925  1.00  0.00    -0.346 OA
HETATM   26  C   UNL     1      27.617  43.992  54.034  1.00  0.00     0.053 A 
HETATM   27  O   UNL     1      27.922  45.671  55.657  1.00  0.00    -0.346 OA
HETATM   28  C   UNL     1      28.756  46.038  56.763  1.00  0.00     0.202 C 
HETATM   29  C   UNL     1      30.211  46.120  56.333  1.00  0.00     0.202 C 
ENDBRANCH   1  20
TORSDOF 3
ENDMDL
MODEL 7
REMARK VINA RESULT:      -9.3      2.576      7.739
REMARK  3 active torsions:
REMARK  status: ('A' for Active; 'I' for Inactive)
REMARK    1  A    between atoms: C_2  and  C_3 
REMARK    2  A    between atoms: C_8  and  C_9 
REMARK       I    between atoms: C_9  and  N_10 
REMARK    3  A    between atoms: N_10  and  C_11 
ROOT
HETATM    1  C   UNL     1      27.302  43.651  51.801  1.00  0.00     0.104 A 
HETATM    2  N   UNL     1      27.350  42.307  51.867  1.00  0.00    -0.174 NA
HETATM    3  N   UNL     1      27.138  41.893  50.614  1.00  0.00    -0.288 N 
HETATM    4  H   UNL     1      27.162  40.895  50.425  1.00  0.00     0.188 HD
HETATM    5  C   UNL     1      26.906  42.906  49.746  1.00  0.00     0.128 A 
HETATM    6  C   UNL     1      26.966  44.081  50.475  1.00  0.00     0.080 A 
ENDROOT
BRANCH   6   7
HETATM    7  C   UNL     1      26.731  45.393  49.877  1.00  0.00     0.260 C 
HETATM    8  N   UNL     1      25.456  45.895  50.062  1.00  0.00    -0.323 N 
HETATM    9  H   UNL     1      24.805  45.311  50.571  1.00  0.00     0.169 HD
HETATM   10  O   UNL     1      27.620  45.931  49.225  1.00  0.00    -0.267 OA
BRANCH   8  11
HETATM   11  C   UNL     1      24.935  47.116  49.581  1.00  0.00     0.035 A 
HETATM   12  C   UNL     1      23.579  47.341  49.329  1.00  0.00     0.037 A 
HETATM   13  C   UNL     1      23.180  48.588  48.868  1.00  0.00    -0.050 A 
HETATM   14  C   UNL     1      24.102  49.616  48.658  1.00  0.00    -0.052 A 
HETATM   15  C   UNL     1      21.784  49.056  48.589  1.00  0.00     0.039 C 
HETATM   16  C   UNL     1      23.413  50.868  48.218  1.00  0.00     0.039 C 
HETATM   17  C   UNL     1      25.446  49.417  48.907  1.00  0.00     0.010 A 
HETATM   18  C   UNL     1      22.055  50.317  47.757  1.00  0.00     0.009 C 
HETATM   19  C   UNL     1      25.861  48.161  49.364  1.00  0.00     0.030 A 
ENDBRANCH   8  11
ENDBRANCH   6   7
BRANCH   1  20
HETATM   20  C   UNL     1      27.596  44.428  53.008  1.00  0.00    -0.002 A 
HETATM   21  C   UNL     1      26.739  45.477  53.384  1.00  0.00     0.017 A 
HETATM   22  C   UNL     1      26.974  46.213  54.547  1.00  0.00     0.040 A 
HETATM   23  C   UNL     1      28.067  45.903  55.349  1.00  0.00     0.102 A 
HETATM   24  C   UNL     1      28.940  44.875  54.976  1.00  0.00     0.103 A 
HETATM   25  O   UNL     1      28.225  46.646  56.490  1.00  0.00    -0.346 OA
HETATM   26  C   UNL     1      28.693  44.124  53.825  1.00  0.00     0.053 A 
HETATM   27  O   UNL     1      30.054  44.538  55.702  1.00  0.00    -0.346 OA
HETATM   28  C   UNL     1      30.383  45.552  56.660  1.00  0.00     0.202 C 
HETATM   29  C   UNL     1      29.137  46.016  57.397  1.00  0.00     0.202 C 
ENDBRANCH   1  20
TORSDOF 3
ENDMDL
MODEL 8
REMARK VINA RESULT:      -9.3      4.725      9.987
REMARK  3 active torsions:
REMARK  status: ('A' for Active; 'I' for Inactive)
REMARK    1  A    between atoms: C_2  and  C_3 
REMARK    2  A    between atoms: C_8  and  C_9 
REMARK       I    between atoms: C_9  and  N_10 
REMARK    3  A    between atoms: N_10  and  C_11 
ROOT
HETATM    1  C   UNL     1      26.617  48.276  49.391  1.00  0.00     0.104 A 
HETATM    2  N   UNL     1      27.819  48.749  49.014  1.00  0.00    -0.174 NA
HETATM    3  N   UNL     1      27.562  49.935  48.454  1.00  0.00    -0.288 N 
HETATM    4  H   UNL     1      28.344  50.491  48.120  1.00  0.00     0.188 HD
HETATM    5  C   UNL     1      26.241  50.232  48.407  1.00  0.00     0.128 A 
HETATM    6  C   UNL     1      25.570  49.163  48.975  1.00  0.00     0.080 A 
ENDROOT
BRANCH   6   7
HETATM    7  C   UNL     1      24.113  49.108  49.071  1.00  0.00     0.260 C 
HETATM    8  N   UNL     1      23.442  49.909  48.165  1.00  0.00    -0.323 N 
HETATM    9  H   UNL     1      24.010  50.465  47.539  1.00  0.00     0.169 HD
HETATM   10  O   UNL     1      23.588  48.428  49.946  1.00  0.00    -0.267 OA
BRANCH   8  11
HETATM   11  C   UNL     1      22.046  50.079  48.038  1.00  0.00     0.035 A 
HETATM   12  C   UNL     1      21.367  51.248  48.392  1.00  0.00     0.037 A 
HETATM   13  C   UNL     1      19.992  51.306  48.213  1.00  0.00    -0.050 A 
HETATM   14  C   UNL     1      19.281  50.227  47.683  1.00  0.00    -0.052 A 
HETATM   15  C   UNL     1      19.084  52.470  48.471  1.00  0.00     0.039 C 
HETATM   16  C   UNL     1      17.831  50.564  47.539  1.00  0.00     0.039 C 
HETATM   17  C   UNL     1      19.932  49.064  47.321  1.00  0.00     0.010 A 
HETATM   18  C   UNL     1      17.711  51.782  48.467  1.00  0.00     0.009 C 
HETATM   19  C   UNL     1      21.318  48.992  47.506  1.00  0.00     0.030 A 
ENDBRANCH   8  11
ENDBRANCH   6   7
BRANCH   1  20
HETATM   20  C   UNL     1      26.556  47.014  50.134  1.00  0.00    -0.002 A 
HETATM   21  C   UNL     1      26.140  47.019  51.476  1.00  0.00     0.017 A 
HETATM   22  C   UNL     1      26.040  45.828  52.200  1.00  0.00     0.040 A 
HETATM   23  C   UNL     1      26.353  44.620  51.586  1.00  0.00     0.102 A 
HETATM   24  C   UNL     1      26.790  44.604  50.256  1.00  0.00     0.103 A 
HETATM   25  O   UNL     1      26.208  43.487  52.344  1.00  0.00    -0.346 OA
HETATM   26  C   UNL     1      26.868  45.791  49.525  1.00  0.00     0.053 A 
HETATM   27  O   UNL     1      27.146  43.454  49.599  1.00  0.00    -0.346 OA
HETATM   28  C   UNL     1      27.333  42.365  50.512  1.00  0.00     0.202 C 
HETATM   29  C   UNL     1      26.200  42.313  51.524  1.00  0.00     0.202 C 
ENDBRANCH   1  20
TORSDOF 3
ENDMDL
MODEL 9
REMARK VINA RESULT:      -9.2      2.389      5.057
REMARK  3 active torsions:
REMARK  status: ('A' for Active; 'I' for Inactive)
REMARK    1  A    between atoms: C_2  and  C_3 
REMARK    2  A    between atoms: C_8  and  C_9 
REMARK       I    between atoms: C_9  and  N_10 
REMARK    3  A    between atoms: N_10  and  C_11 
ROOT
HETATM    1  C   UNL     1      25.004  42.024  49.905  1.00  0.00     0.104 A 
HETATM    2  N   UNL     1      23.721  41.885  49.523  1.00  0.00    -0.174 NA
HETATM    3  N   UNL     1      23.116  43.002  49.938  1.00  0.00    -0.288 N 
HETATM    4  H   UNL     1      22.131  43.125  49.724  1.00  0.00     0.188 HD
HETATM    5  C   UNL     1      23.939  43.838  50.615  1.00  0.00     0.128 A 
HETATM    6  C   UNL     1      25.182  43.232  50.656  1.00  0.00     0.080 A 
ENDROOT
BRANCH   6   7
HETATM    7  C   UNL     1      26.328  43.827  51.339  1.00  0.00     0.260 C 
HETATM    8  N   UNL     1      26.384  43.581  52.699  1.00  0.00    -0.323 N 
HETATM    9  H   UNL     1      25.630  43.035  53.095  1.00  0.00     0.169 HD
HETATM   10  O   UNL     1      27.113  44.528  50.709  1.00  0.00    -0.267 OA
BRANCH   8  11
HETATM   11  C   UNL     1      27.352  44.044  53.616  1.00  0.00     0.035 A 
HETATM   12  C   UNL     1      28.534  43.359  53.916  1.00  0.00     0.037 A 
HETATM   13  C   UNL     1      29.419  43.916  54.828  1.00  0.00    -0.050 A 
HETATM   14  C   UNL     1      29.156  45.143  55.442  1.00  0.00    -0.052 A 
HETATM   15  C   UNL     1      30.755  43.384  55.249  1.00  0.00     0.039 C 
HETATM   16  C   UNL     1      30.288  45.547  56.332  1.00  0.00     0.039 C 
HETATM   17  C   UNL     1      27.998  45.839  55.156  1.00  0.00     0.010 A 
HETATM   18  C   UNL     1      31.018  44.208  56.517  1.00  0.00     0.009 C 
HETATM   19  C   UNL     1      27.093  45.282  54.244  1.00  0.00     0.030 A 
ENDBRANCH   8  11
ENDBRANCH   6   7
BRANCH   1  20
HETATM   20  C   UNL     1      25.972  40.995  49.512  1.00  0.00    -0.002 A 
HETATM   21  C   UNL     1      25.864  40.386  48.250  1.00  0.00     0.017 A 
HETATM   22  C   UNL     1      26.791  39.427  47.835  1.00  0.00     0.040 A 
HETATM   23  C   UNL     1      27.839  39.073  48.678  1.00  0.00     0.102 A 
HETATM   24  C   UNL     1      27.947  39.656  49.945  1.00  0.00     0.103 A 
HETATM   25  O   UNL     1      28.729  38.146  48.199  1.00  0.00    -0.346 OA
HETATM   26  C   UNL     1      27.033  40.631  50.352  1.00  0.00     0.053 A 
HETATM   27  O   UNL     1      28.935  39.329  50.838  1.00  0.00    -0.346 OA
HETATM   28  C   UNL     1      29.607  38.122  50.459  1.00  0.00     0.202 C 
HETATM   29  C   UNL     1      29.933  38.134  48.975  1.00  0.00     0.202 C 
ENDBRANCH   1  20
TORSDOF 3
ENDMDL
MODEL 10
REMARK VINA RESULT:      -9.0      4.010      6.590
REMARK  3 active torsions:
REMARK  status: ('A' for Active; 'I' for Inactive)
REMARK    1  A    between atoms: C_2  and  C_3 
REMARK    2  A    between atoms: C_8  and  C_9 
REMARK       I    between atoms: C_9  and  N_10 
REMARK    3  A    between atoms: N_10  and  C_11 
ROOT
HETATM    1  C   UNL     1      24.643  49.339  48.685  1.00  0.00     0.104 A 
HETATM    2  N   UNL     1      25.114  50.303  47.872  1.00  0.00    -0.174 NA
HETATM    3  N   UNL     1      26.434  50.100  47.827  1.00  0.00    -0.288 N 
HETATM    4  H   UNL     1      26.995  50.707  47.236  1.00  0.00     0.188 HD
HETATM    5  C   UNL     1      26.848  49.078  48.613  1.00  0.00     0.128 A 
HETATM    6  C   UNL     1      25.719  48.563  49.228  1.00  0.00     0.080 A 
ENDROOT
BRANCH   6   7
HETATM    7  C   UNL     1      25.777  47.460  50.184  1.00  0.00     0.260 C 
HETATM    8  N   UNL     1      26.607  46.417  49.817  1.00  0.00    -0.323 N 
HETATM    9  H   UNL     1      27.078  46.501  48.925  1.00  0.00     0.169 HD
HETATM   10  O   UNL     1      25.076  47.492  51.190  1.00  0.00    -0.267 OA
BRANCH   8  11
HETATM   11  C   UNL     1      26.841  45.217  50.522  1.00  0.00     0.035 A 
HETATM   12  C   UNL     1      27.072  45.152  51.899  1.00  0.00     0.037 A 
HETATM   13  C   UNL     1      27.280  43.913  52.487  1.00  0.00    -0.050 A 
HETATM   14  C   UNL     1      27.257  42.736  51.735  1.00  0.00    -0.052 A 
HETATM   15  C   UNL     1      27.488  43.614  53.941  1.00  0.00     0.039 C 
HETATM   16  C   UNL     1      27.449  41.540  52.611  1.00  0.00     0.039 C 
HETATM   17  C   UNL     1      27.025  42.776  50.374  1.00  0.00     0.010 A 
HETATM   18  C   UNL     1      28.042  42.183  53.873  1.00  0.00     0.009 C 
HETATM   19  C   UNL     1      26.823  44.022  49.768  1.00  0.00     0.030 A 
ENDBRANCH   8  11
ENDBRANCH   6   7
BRANCH   1  20
HETATM   20  C   UNL     1      23.194  49.220  48.874  1.00  0.00    -0.002 A 
HETATM   21  C   UNL     1      22.544  48.025  48.523  1.00  0.00     0.017 A 
HETATM   22  C   UNL     1      21.170  47.870  48.723  1.00  0.00     0.040 A 
HETATM   23  C   UNL     1      20.434  48.911  49.279  1.00  0.00     0.102 A 
HETATM   24  C   UNL     1      21.065  50.114  49.613  1.00  0.00     0.103 A 
HETATM   25  O   UNL     1      19.096  48.684  49.473  1.00  0.00    -0.346 OA
HETATM   26  C   UNL     1      22.442  50.262  49.435  1.00  0.00     0.053 A 
HETATM   27  O   UNL     1      20.395  51.191  50.135  1.00  0.00    -0.346 OA
HETATM   28  C   UNL     1      18.977  51.053  49.979  1.00  0.00     0.202 C 
HETATM   29  C   UNL     1      18.530  49.653  50.365  1.00  0.00     0.202 C 
ENDBRANCH   1  20
TORSDOF 3
ENDMDL
