MODEL 1
REMARK VINA RESULT:     -10.0      0.000      0.000
REMARK  9 active torsions:
REMARK  status: ('A' for Active; 'I' for Inactive)
REMARK    1  A    between atoms: C_2  and  O_3 
REMARK    2  A    between atoms: O_3  and  C_4 
REMARK    3  A    between atoms: C_7  and  C_8 
REMARK    4  A    between atoms: C_9  and  C_10 
REMARK       I    between atoms: C_10  and  N_11 
REMARK    5  A    between atoms: N_11  and  C_12 
REMARK    6  A    between atoms: C_22  and  S_23 
REMARK    7  A    between atoms: S_23  and  C_24 
REMARK    8  A    between atoms: C_24  and  C_25 
REMARK       I    between atoms: C_25  and  N_26 
REMARK    9  A    between atoms: N_26  and  C_27 
ROOT
HETATM    1  C   UNL     1      25.626  43.225  51.894  1.00  0.00     0.104 C 
HETATM    2  C   UNL     1      26.876  42.595  52.511  1.00  0.00     0.046 C 
HETATM    3  C   UNL     1      27.501  41.552  51.916  1.00  0.00     0.019 C 
HETATM    4  C   UNL     1      28.679  40.794  52.475  1.00  0.00     0.069 C 
HETATM    5  N   UNL     1      27.027  41.092  50.706  1.00  0.00    -0.353 N 
HETATM    6  C   UNL     1      25.856  41.490  50.098  1.00  0.00     0.087 C 
HETATM    7  C   UNL     1      25.093  42.439  50.687  1.00  0.00     0.055 C 
HETATM    8  C   UNL     1      23.775  42.883  50.073  1.00  0.00     0.019 C 
HETATM    9  N   UNL     1      22.682  43.252  49.564  1.00  0.00    -0.096 N 
HETATM   10  H   UNL     1      27.606  40.455  50.156  1.00  0.00     0.166 HD
ENDROOT
BRANCH   1  11
HETATM   11  C   UNL     1      25.875  44.671  51.430  1.00  0.00    -0.044 A 
HETATM   12  C   UNL     1      26.617  44.955  50.269  1.00  0.00     0.011 A 
HETATM   13  C   UNL     1      26.685  46.257  49.765  1.00  0.00     0.037 A 
HETATM   14  C   UNL     1      25.976  47.286  50.379  1.00  0.00     0.068 A 
HETATM   15  C   UNL     1      25.282  47.026  51.560  1.00  0.00     0.037 A 
HETATM   16  C   UNL     1      25.233  45.733  52.087  1.00  0.00     0.011 A 
BRANCH  14  17
HETATM   17  O   UNL     1      25.895  48.570  49.916  1.00  0.00    -0.352 OA
BRANCH  17  18
HETATM   18  C   UNL     1      26.930  48.972  49.016  1.00  0.00     0.171 C 
HETATM   19  C   UNL     1      26.355  49.990  48.049  1.00  0.00     0.034 C 
ENDBRANCH  17  18
ENDBRANCH  14  17
ENDBRANCH   1  11
BRANCH   6  20
HETATM   20  S   UNL     1      25.434  40.795  48.544  1.00  0.00    -0.102 SA
BRANCH  20  21
HETATM   21  C   UNL     1      26.931  39.792  48.245  1.00  0.00     0.184 C 
BRANCH  21  22
HETATM   22  C   UNL     1      27.793  40.309  47.089  1.00  0.00     0.231 C 
HETATM   23  N   UNL     1      27.537  39.620  45.908  1.00  0.00    -0.326 N 
HETATM   24  H   UNL     1      26.649  39.133  45.875  1.00  0.00     0.169 HD
HETATM   25  O   UNL     1      28.590  41.234  47.218  1.00  0.00    -0.272 OA
BRANCH  23  26
HETATM   26  C   UNL     1      28.179  39.770  44.654  1.00  0.00     0.040 A 
HETATM   27  C   UNL     1      29.003  38.826  44.017  1.00  0.00    -0.035 A 
HETATM   28  C   UNL     1      29.222  37.417  44.493  1.00  0.00     0.050 C 
HETATM   29  C   UNL     1      29.634  39.178  42.803  1.00  0.00     0.009 A 
HETATM   30  C   UNL     1      29.402  40.409  42.191  1.00  0.00     0.001 A 
HETATM   31  C   UNL     1      28.521  41.306  42.775  1.00  0.00     0.002 A 
HETATM   32  C   UNL     1      27.908  40.980  43.988  1.00  0.00     0.030 A 
ENDBRANCH  23  26
ENDBRANCH  21  22
ENDBRANCH  20  21
ENDBRANCH   6  20
BRANCH   2  33
HETATM   33  C   UNL     1      27.325  43.183  53.806  1.00  0.00     0.255 C 
HETATM   34  N   UNL     1      28.634  43.622  53.763  1.00  0.00    -0.323 N 
HETATM   35  H   UNL     1      29.111  43.537  52.875  1.00  0.00     0.169 HD
HETATM   36  O   UNL     1      26.536  43.260  54.738  1.00  0.00    -0.268 OA
BRANCH  34  37
HETATM   37  C   UNL     1      29.420  44.102  54.828  1.00  0.00     0.035 A 
HETATM   38  C   UNL     1      29.234  45.342  55.438  1.00  0.00     0.029 A 
HETATM   39  C   UNL     1      30.040  45.725  56.515  1.00  0.00     0.002 A 
HETATM   40  C   UNL     1      31.031  44.870  56.993  1.00  0.00     0.000 A 
HETATM   41  C   UNL     1      31.225  43.632  56.390  1.00  0.00     0.002 A 
HETATM   42  C   UNL     1      30.427  43.252  55.308  1.00  0.00     0.029 A 
ENDBRANCH  34  37
ENDBRANCH   2  33
TORSDOF 9
ENDMDL
MODEL 2
REMARK VINA RESULT:      -9.5      6.314     10.794
REMARK  9 active torsions:
REMARK  status: ('A' for Active; 'I' for Inactive)
REMARK    1  A    between atoms: C_2  and  O_3 
REMARK    2  A    between atoms: O_3  and  C_4 
REMARK    3  A    between atoms: C_7  and  C_8 
REMARK    4  A    between atoms: C_9  and  C_10 
REMARK       I    between atoms: C_10  and  N_11 
REMARK    5  A    between atoms: N_11  and  C_12 
REMARK    6  A    between atoms: C_22  and  S_23 
REMARK    7  A    between atoms: S_23  and  C_24 
REMARK    8  A    between atoms: C_24  and  C_25 
REMARK       I    between atoms: C_25  and  N_26 
REMARK    9  A    between atoms: N_26  and  C_27 
ROOT
HETATM    1  C   UNL     1      21.757  48.510  47.695  1.00  0.00     0.104 C 
HETATM    2  C   UNL     1      20.909  47.243  47.571  1.00  0.00     0.046 C 
HETATM    3  C   UNL     1      21.253  46.104  48.216  1.00  0.00     0.019 C 
HETATM    4  C   UNL     1      20.550  44.775  48.097  1.00  0.00     0.069 C 
HETATM    5  N   UNL     1      22.359  46.111  49.039  1.00  0.00    -0.353 N 
HETATM    6  C   UNL     1      23.268  47.140  49.155  1.00  0.00     0.087 C 
HETATM    7  C   UNL     1      23.078  48.275  48.444  1.00  0.00     0.055 C 
HETATM    8  C   UNL     1      24.073  49.423  48.511  1.00  0.00     0.019 C 
HETATM    9  N   UNL     1      24.898  50.375  48.566  1.00  0.00    -0.096 N 
HETATM   10  H   UNL     1      22.503  45.331  49.684  1.00  0.00     0.166 HD
ENDROOT
BRANCH   1  11
HETATM   11  C   UNL     1      21.008  49.640  48.423  1.00  0.00    -0.044 A 
HETATM   12  C   UNL     1      20.731  50.866  47.791  1.00  0.00     0.011 A 
HETATM   13  C   UNL     1      19.901  51.813  48.399  1.00  0.00     0.037 A 
HETATM   14  C   UNL     1      19.293  51.531  49.620  1.00  0.00     0.068 A 
HETATM   15  C   UNL     1      19.602  50.342  50.279  1.00  0.00     0.037 A 
HETATM   16  C   UNL     1      20.455  49.404  49.691  1.00  0.00     0.011 A 
BRANCH  14  17
HETATM   17  O   UNL     1      18.391  52.341  50.253  1.00  0.00    -0.352 OA
BRANCH  17  18
HETATM   18  C   UNL     1      17.319  52.829  49.444  1.00  0.00     0.171 C 
HETATM   19  C   UNL     1      16.134  51.895  49.604  1.00  0.00     0.034 C 
ENDBRANCH  17  18
ENDBRANCH  14  17
ENDBRANCH   1  11
BRANCH   6  20
HETATM   20  S   UNL     1      24.605  46.962  50.275  1.00  0.00    -0.102 SA
BRANCH  20  21
HETATM   21  C   UNL     1      25.135  45.268  49.846  1.00  0.00     0.184 C 
BRANCH  21  22
HETATM   22  C   UNL     1      26.530  44.912  50.370  1.00  0.00     0.231 C 
HETATM   23  N   UNL     1      26.474  44.346  51.639  1.00  0.00    -0.326 N 
HETATM   24  H   UNL     1      25.575  43.959  51.901  1.00  0.00     0.169 HD
HETATM   25  O   UNL     1      27.552  45.097  49.715  1.00  0.00    -0.272 OA
BRANCH  23  26
HETATM   26  C   UNL     1      27.555  43.951  52.466  1.00  0.00     0.040 A 
HETATM   27  C   UNL     1      27.957  44.562  53.667  1.00  0.00    -0.035 A 
HETATM   28  C   UNL     1      27.206  45.660  54.366  1.00  0.00     0.050 C 
HETATM   29  C   UNL     1      29.116  44.086  54.320  1.00  0.00     0.009 A 
HETATM   30  C   UNL     1      29.823  42.986  53.841  1.00  0.00     0.001 A 
HETATM   31  C   UNL     1      29.376  42.329  52.705  1.00  0.00     0.002 A 
HETATM   32  C   UNL     1      28.245  42.802  52.035  1.00  0.00     0.030 A 
ENDBRANCH  23  26
ENDBRANCH  21  22
ENDBRANCH  20  21
ENDBRANCH   6  20
BRANCH   2  33
HETATM   33  C   UNL     1      19.717  47.347  46.680  1.00  0.00     0.255 C 
HETATM   34  N   UNL     1      18.607  47.841  47.336  1.00  0.00    -0.323 N 
HETATM   35  H   UNL     1      18.733  48.108  48.303  1.00  0.00     0.169 HD
HETATM   36  O   UNL     1      19.820  47.040  45.500  1.00  0.00    -0.268 OA
BRANCH  34  37
HETATM   37  C   UNL     1      17.290  47.945  46.848  1.00  0.00     0.035 A 
HETATM   38  C   UNL     1      16.813  47.253  45.735  1.00  0.00     0.029 A 
HETATM   39  C   UNL     1      15.479  47.389  45.340  1.00  0.00     0.002 A 
HETATM   40  C   UNL     1      14.611  48.209  46.058  1.00  0.00     0.000 A 
HETATM   41  C   UNL     1      15.078  48.905  47.168  1.00  0.00     0.002 A 
HETATM   42  C   UNL     1      16.413  48.777  47.558  1.00  0.00     0.029 A 
ENDBRANCH  34  37
ENDBRANCH   2  33
TORSDOF 9
ENDMDL
MODEL 3
REMARK VINA RESULT:      -9.4      5.242      9.968
REMARK  9 active torsions:
REMARK  status: ('A' for Active; 'I' for Inactive)
REMARK    1  A    between atoms: C_2  and  O_3 
REMARK    2  A    between atoms: O_3  and  C_4 
REMARK    3  A    between atoms: C_7  and  C_8 
REMARK    4  A    between atoms: C_9  and  C_10 
REMARK       I    between atoms: C_10  and  N_11 
REMARK    5  A    between atoms: N_11  and  C_12 
REMARK    6  A    between atoms: C_22  and  S_23 
REMARK    7  A    between atoms: S_23  and  C_24 
REMARK    8  A    between atoms: C_24  and  C_25 
REMARK       I    between atoms: C_25  and  N_26 
REMARK    9  A    between atoms: N_26  and  C_27 
ROOT
HETATM    1  C   UNL     1      23.850  47.249  48.439  1.00  0.00     0.104 C 
HETATM    2  C   UNL     1      22.890  46.059  48.472  1.00  0.00     0.046 C 
HETATM    3  C   UNL     1      22.923  45.158  49.481  1.00  0.00     0.019 C 
HETATM    4  C   UNL     1      22.093  43.903  49.572  1.00  0.00     0.069 C 
HETATM    5  N   UNL     1      23.806  45.355  50.522  1.00  0.00    -0.353 N 
HETATM    6  C   UNL     1      24.795  46.314  50.565  1.00  0.00     0.087 C 
HETATM    7  C   UNL     1      24.925  47.181  49.535  1.00  0.00     0.055 C 
HETATM    8  C   UNL     1      26.024  48.230  49.522  1.00  0.00     0.019 C 
HETATM    9  N   UNL     1      26.936  49.102  49.511  1.00  0.00    -0.096 N 
HETATM   10  H   UNL     1      23.696  44.807  51.377  1.00  0.00     0.166 HD
ENDROOT
BRANCH   1  11
HETATM   11  C   UNL     1      23.115  48.592  48.596  1.00  0.00    -0.044 A 
HETATM   12  C   UNL     1      23.451  49.711  47.813  1.00  0.00     0.011 A 
HETATM   13  C   UNL     1      22.663  50.866  47.841  1.00  0.00     0.037 A 
HETATM   14  C   UNL     1      21.502  50.905  48.609  1.00  0.00     0.068 A 
HETATM   15  C   UNL     1      21.189  49.821  49.429  1.00  0.00     0.037 A 
HETATM   16  C   UNL     1      21.988  48.675  49.429  1.00  0.00     0.011 A 
BRANCH  14  17
HETATM   17  O   UNL     1      20.611  51.942  48.634  1.00  0.00    -0.352 OA
BRANCH  17  18
HETATM   18  C   UNL     1      19.428  51.725  49.405  1.00  0.00     0.171 C 
HETATM   19  C   UNL     1      18.286  52.482  48.753  1.00  0.00     0.034 C 
ENDBRANCH  17  18
ENDBRANCH  14  17
ENDBRANCH   1  11
BRANCH   6  20
HETATM   20  S   UNL     1      25.810  46.413  51.992  1.00  0.00    -0.102 SA
BRANCH  20  21
HETATM   21  C   UNL     1      25.311  44.867  52.827  1.00  0.00     0.184 C 
BRANCH  21  22
HETATM   22  C   UNL     1      26.277  44.429  53.933  1.00  0.00     0.231 C 
HETATM   23  N   UNL     1      27.572  44.874  53.691  1.00  0.00    -0.326 N 
HETATM   24  H   UNL     1      27.649  45.653  53.047  1.00  0.00     0.169 HD
HETATM   25  O   UNL     1      25.914  43.782  54.911  1.00  0.00    -0.272 OA
BRANCH  23  26
HETATM   26  C   UNL     1      28.740  44.614  54.452  1.00  0.00     0.040 A 
HETATM   27  C   UNL     1      29.600  43.511  54.313  1.00  0.00    -0.035 A 
HETATM   28  C   UNL     1      29.512  42.485  53.218  1.00  0.00     0.050 C 
HETATM   29  C   UNL     1      30.675  43.366  55.218  1.00  0.00     0.009 A 
HETATM   30  C   UNL     1      30.941  44.324  56.194  1.00  0.00     0.001 A 
HETATM   31  C   UNL     1      30.144  45.456  56.274  1.00  0.00     0.002 A 
HETATM   32  C   UNL     1      29.064  45.601  55.401  1.00  0.00     0.030 A 
ENDBRANCH  23  26
ENDBRANCH  21  22
ENDBRANCH  20  21
ENDBRANCH   6  20
BRANCH   2  33
HETATM   33  C   UNL     1      21.954  45.952  47.315  1.00  0.00     0.255 C 
HETATM   34  N   UNL     1      20.643  46.200  47.669  1.00  0.00    -0.323 N 
HETATM   35  H   UNL     1      20.475  46.461  48.631  1.00  0.00     0.169 HD
HETATM   36  O   UNL     1      22.399  45.702  46.202  1.00  0.00    -0.268 OA
BRANCH  34  37
HETATM   37  C   UNL     1      19.491  46.058  46.872  1.00  0.00     0.035 A 
HETATM   38  C   UNL     1      18.877  47.109  46.193  1.00  0.00     0.029 A 
HETATM   39  C   UNL     1      17.754  46.872  45.394  1.00  0.00     0.002 A 
HETATM   40  C   UNL     1      17.241  45.583  45.263  1.00  0.00     0.000 A 
HETATM   41  C   UNL     1      17.846  44.528  45.939  1.00  0.00     0.002 A 
HETATM   42  C   UNL     1      18.962  44.765  46.744  1.00  0.00     0.029 A 
ENDBRANCH  34  37
ENDBRANCH   2  33
TORSDOF 9
ENDMDL
MODEL 4
REMARK VINA RESULT:      -9.4      1.825      2.703
REMARK  9 active torsions:
REMARK  status: ('A' for Active; 'I' for Inactive)
REMARK    1  A    between atoms: C_2  and  O_3 
REMARK    2  A    between atoms: O_3  and  C_4 
REMARK    3  A    between atoms: C_7  and  C_8 
REMARK    4  A    between atoms: C_9  and  C_10 
REMARK       I    between atoms: C_10  and  N_11 
REMARK    5  A    between atoms: N_11  and  C_12 
REMARK    6  A    between atoms: C_22  and  S_23 
REMARK    7  A    between atoms: S_23  and  C_24 
REMARK    8  A    between atoms: C_24  and  C_25 
REMARK       I    between atoms: C_25  and  N_26 
REMARK    9  A    between atoms: N_26  and  C_27 
ROOT
HETATM    1  C   UNL     1      25.824  43.037  51.674  1.00  0.00     0.104 C 
HETATM    2  C   UNL     1      27.072  42.437  52.323  1.00  0.00     0.046 C 
HETATM    3  C   UNL     1      27.778  41.458  51.711  1.00  0.00     0.019 C 
HETATM    4  C   UNL     1      28.964  40.729  52.292  1.00  0.00     0.069 C 
HETATM    5  N   UNL     1      27.388  41.038  50.457  1.00  0.00    -0.353 N 
HETATM    6  C   UNL     1      26.230  41.410  49.810  1.00  0.00     0.087 C 
HETATM    7  C   UNL     1      25.391  42.288  50.404  1.00  0.00     0.055 C 
HETATM    8  C   UNL     1      24.084  42.700  49.746  1.00  0.00     0.019 C 
HETATM    9  N   UNL     1      22.999  43.041  49.199  1.00  0.00    -0.096 N 
HETATM   10  H   UNL     1      28.025  40.459  49.907  1.00  0.00     0.166 HD
ENDROOT
BRANCH   1  11
HETATM   11  C   UNL     1      26.021  44.515  51.295  1.00  0.00    -0.044 A 
HETATM   12  C   UNL     1      26.764  44.892  50.161  1.00  0.00     0.011 A 
HETATM   13  C   UNL     1      26.788  46.222  49.731  1.00  0.00     0.037 A 
HETATM   14  C   UNL     1      26.032  47.186  50.391  1.00  0.00     0.068 A 
HETATM   15  C   UNL     1      25.335  46.835  51.547  1.00  0.00     0.037 A 
HETATM   16  C   UNL     1      25.330  45.513  52.000  1.00  0.00     0.011 A 
BRANCH  14  17
HETATM   17  O   UNL     1      25.906  48.490  49.999  1.00  0.00    -0.352 OA
BRANCH  17  18
HETATM   18  C   UNL     1      26.582  48.843  48.791  1.00  0.00     0.171 C 
HETATM   19  C   UNL     1      27.893  49.518  49.155  1.00  0.00     0.034 C 
ENDBRANCH  17  18
ENDBRANCH  14  17
ENDBRANCH   1  11
BRANCH   6  20
HETATM   20  S   UNL     1      25.920  40.776  48.204  1.00  0.00    -0.102 SA
BRANCH  20  21
HETATM   21  C   UNL     1      27.626  40.346  47.715  1.00  0.00     0.184 C 
BRANCH  21  22
HETATM   22  C   UNL     1      27.929  38.847  47.803  1.00  0.00     0.231 C 
HETATM   23  N   UNL     1      27.440  38.157  46.699  1.00  0.00    -0.326 N 
HETATM   24  H   UNL     1      27.257  38.725  45.880  1.00  0.00     0.169 HD
HETATM   25  O   UNL     1      28.550  38.349  48.739  1.00  0.00    -0.272 OA
BRANCH  23  26
HETATM   26  C   UNL     1      27.471  36.760  46.459  1.00  0.00     0.040 A 
HETATM   27  C   UNL     1      26.547  35.810  46.926  1.00  0.00    -0.035 A 
HETATM   28  C   UNL     1      25.266  36.136  47.642  1.00  0.00     0.050 C 
HETATM   29  C   UNL     1      26.781  34.442  46.662  1.00  0.00     0.009 A 
HETATM   30  C   UNL     1      27.865  34.024  45.892  1.00  0.00     0.001 A 
HETATM   31  C   UNL     1      28.727  34.968  45.357  1.00  0.00     0.002 A 
HETATM   32  C   UNL     1      28.521  36.323  45.630  1.00  0.00     0.030 A 
ENDBRANCH  23  26
ENDBRANCH  21  22
ENDBRANCH  20  21
ENDBRANCH   6  20
BRANCH   2  33
HETATM   33  C   UNL     1      27.427  42.979  53.666  1.00  0.00     0.255 C 
HETATM   34  N   UNL     1      28.647  43.625  53.672  1.00  0.00    -0.323 N 
HETATM   35  H   UNL     1      29.128  43.693  52.784  1.00  0.00     0.169 HD
HETATM   36  O   UNL     1      26.640  42.850  54.595  1.00  0.00    -0.268 OA
BRANCH  34  37
HETATM   37  C   UNL     1      29.351  44.134  54.780  1.00  0.00     0.035 A 
HETATM   38  C   UNL     1      30.500  43.548  55.311  1.00  0.00     0.029 A 
HETATM   39  C   UNL     1      31.157  44.142  56.393  1.00  0.00     0.002 A 
HETATM   40  C   UNL     1      30.676  45.326  56.947  1.00  0.00     0.000 A 
HETATM   41  C   UNL     1      29.530  45.917  56.425  1.00  0.00     0.002 A 
HETATM   42  C   UNL     1      28.867  45.320  55.350  1.00  0.00     0.029 A 
ENDBRANCH  34  37
ENDBRANCH   2  33
TORSDOF 9
ENDMDL
MODEL 5
REMARK VINA RESULT:      -9.2      4.423      9.852
REMARK  9 active torsions:
REMARK  status: ('A' for Active; 'I' for Inactive)
REMARK    1  A    between atoms: C_2  and  O_3 
REMARK    2  A    between atoms: O_3  and  C_4 
REMARK    3  A    between atoms: C_7  and  C_8 
REMARK    4  A    between atoms: C_9  and  C_10 
REMARK       I    between atoms: C_10  and  N_11 
REMARK    5  A    between atoms: N_11  and  C_12 
REMARK    6  A    between atoms: C_22  and  S_23 
REMARK    7  A    between atoms: S_23  and  C_24 
REMARK    8  A    between atoms: C_24  and  C_25 
REMARK       I    between atoms: C_25  and  N_26 
REMARK    9  A    between atoms: N_26  and  C_27 
ROOT
HETATM    1  C   UNL     1      22.591  45.904  49.045  1.00  0.00     0.104 C 
HETATM    2  C   UNL     1      23.130  47.326  48.881  1.00  0.00     0.046 C 
HETATM    3  C   UNL     1      24.439  47.607  49.083  1.00  0.00     0.019 C 
HETATM    4  C   UNL     1      25.064  48.978  49.041  1.00  0.00     0.069 C 
HETATM    5  N   UNL     1      25.302  46.576  49.389  1.00  0.00    -0.353 N 
HETATM    6  C   UNL     1      24.937  45.279  49.674  1.00  0.00     0.087 C 
HETATM    7  C   UNL     1      23.630  44.933  49.627  1.00  0.00     0.055 C 
HETATM    8  C   UNL     1      23.175  43.524  49.969  1.00  0.00     0.019 C 
HETATM    9  N   UNL     1      22.797  42.354  50.254  1.00  0.00    -0.096 N 
HETATM   10  H   UNL     1      26.310  46.741  49.337  1.00  0.00     0.166 HD
ENDROOT
BRANCH   1  11
HETATM   11  C   UNL     1      22.101  45.312  47.712  1.00  0.00    -0.044 A 
HETATM   12  C   UNL     1      23.002  44.921  46.704  1.00  0.00     0.011 A 
HETATM   13  C   UNL     1      22.556  44.226  45.576  1.00  0.00     0.037 A 
HETATM   14  C   UNL     1      21.216  43.865  45.459  1.00  0.00     0.068 A 
HETATM   15  C   UNL     1      20.306  44.294  46.425  1.00  0.00     0.037 A 
HETATM   16  C   UNL     1      20.740  45.015  47.541  1.00  0.00     0.011 A 
BRANCH  14  17
HETATM   17  O   UNL     1      20.693  43.105  44.450  1.00  0.00    -0.352 OA
BRANCH  17  18
HETATM   18  C   UNL     1      20.130  41.852  44.845  1.00  0.00     0.171 C 
HETATM   19  C   UNL     1      21.146  40.760  44.564  1.00  0.00     0.034 C 
ENDBRANCH  17  18
ENDBRANCH  14  17
ENDBRANCH   1  11
BRANCH   6  20
HETATM   20  S   UNL     1      26.193  44.107  50.025  1.00  0.00    -0.102 SA
BRANCH  20  21
HETATM   21  C   UNL     1      26.228  44.237  51.846  1.00  0.00     0.184 C 
BRANCH  21  22
HETATM   22  C   UNL     1      27.635  44.123  52.441  1.00  0.00     0.231 C 
HETATM   23  N   UNL     1      27.638  44.374  53.809  1.00  0.00    -0.326 N 
HETATM   24  H   UNL     1      26.740  44.276  54.268  1.00  0.00     0.169 HD
HETATM   25  O   UNL     1      28.618  43.824  51.768  1.00  0.00    -0.272 OA
BRANCH  23  26
HETATM   26  C   UNL     1      28.751  44.424  54.684  1.00  0.00     0.040 A 
HETATM   27  C   UNL     1      29.101  45.488  55.534  1.00  0.00    -0.035 A 
HETATM   28  C   UNL     1      28.256  46.708  55.776  1.00  0.00     0.050 C 
HETATM   29  C   UNL     1      30.298  45.402  56.279  1.00  0.00     0.009 A 
HETATM   30  C   UNL     1      31.100  44.263  56.242  1.00  0.00     0.001 A 
HETATM   31  C   UNL     1      30.709  43.179  55.471  1.00  0.00     0.002 A 
HETATM   32  C   UNL     1      29.539  43.258  54.712  1.00  0.00     0.030 A 
ENDBRANCH  23  26
ENDBRANCH  21  22
ENDBRANCH  20  21
ENDBRANCH   6  20
BRANCH   2  33
HETATM   33  C   UNL     1      22.120  48.363  48.520  1.00  0.00     0.255 C 
HETATM   34  N   UNL     1      21.524  48.930  49.628  1.00  0.00    -0.323 N 
HETATM   35  H   UNL     1      21.859  48.620  50.532  1.00  0.00     0.169 HD
HETATM   36  O   UNL     1      21.935  48.638  47.342  1.00  0.00    -0.268 OA
BRANCH  34  37
HETATM   37  C   UNL     1      20.444  49.833  49.662  1.00  0.00     0.035 A 
HETATM   38  C   UNL     1      20.535  51.171  49.280  1.00  0.00     0.029 A 
HETATM   39  C   UNL     1      19.402  51.990  49.311  1.00  0.00     0.002 A 
HETATM   40  C   UNL     1      18.172  51.478  49.718  1.00  0.00     0.000 A 
HETATM   41  C   UNL     1      18.073  50.145  50.104  1.00  0.00     0.002 A 
HETATM   42  C   UNL     1      19.205  49.328  50.081  1.00  0.00     0.029 A 
ENDBRANCH  34  37
ENDBRANCH   2  33
TORSDOF 9
ENDMDL
MODEL 6
REMARK VINA RESULT:      -9.1      6.271     11.287
REMARK  9 active torsions:
REMARK  status: ('A' for Active; 'I' for Inactive)
REMARK    1  A    between atoms: C_2  and  O_3 
REMARK    2  A    between atoms: O_3  and  C_4 
REMARK    3  A    between atoms: C_7  and  C_8 
REMARK    4  A    between atoms: C_9  and  C_10 
REMARK       I    between atoms: C_10  and  N_11 
REMARK    5  A    between atoms: N_11  and  C_12 
REMARK    6  A    between atoms: C_22  and  S_23 
REMARK    7  A    between atoms: S_23  and  C_24 
REMARK    8  A    between atoms: C_24  and  C_25 
REMARK       I    between atoms: C_25  and  N_26 
REMARK    9  A    between atoms: N_26  and  C_27 
ROOT
HETATM    1  C   UNL     1      21.589  48.422  47.685  1.00  0.00     0.104 C 
HETATM    2  C   UNL     1      20.776  47.127  47.647  1.00  0.00     0.046 C 
HETATM    3  C   UNL     1      21.189  46.020  48.308  1.00  0.00     0.019 C 
HETATM    4  C   UNL     1      20.523  44.668  48.268  1.00  0.00     0.069 C 
HETATM    5  N   UNL     1      22.337  46.088  49.069  1.00  0.00    -0.353 N 
HETATM    6  C   UNL     1      23.218  47.147  49.103  1.00  0.00     0.087 C 
HETATM    7  C   UNL     1      22.955  48.252  48.368  1.00  0.00     0.055 C 
HETATM    8  C   UNL     1      23.915  49.430  48.344  1.00  0.00     0.019 C 
HETATM    9  N   UNL     1      24.712  50.407  48.325  1.00  0.00    -0.096 N 
HETATM   10  H   UNL     1      22.540  45.334  49.728  1.00  0.00     0.166 HD
ENDROOT
BRANCH   1  11
HETATM   11  C   UNL     1      20.845  49.553  48.416  1.00  0.00    -0.044 A 
HETATM   12  C   UNL     1      20.559  50.776  47.784  1.00  0.00     0.011 A 
HETATM   13  C   UNL     1      19.733  51.723  48.397  1.00  0.00     0.037 A 
HETATM   14  C   UNL     1      19.137  51.444  49.625  1.00  0.00     0.068 A 
HETATM   15  C   UNL     1      19.456  50.258  50.285  1.00  0.00     0.037 A 
HETATM   16  C   UNL     1      20.305  49.320  49.691  1.00  0.00     0.011 A 
BRANCH  14  17
HETATM   17  O   UNL     1      18.240  52.253  50.264  1.00  0.00    -0.352 OA
BRANCH  17  18
HETATM   18  C   UNL     1      17.256  52.869  49.432  1.00  0.00     0.171 C 
HETATM   19  C   UNL     1      15.882  52.495  49.956  1.00  0.00     0.034 C 
ENDBRANCH  17  18
ENDBRANCH  14  17
ENDBRANCH   1  11
BRANCH   6  20
HETATM   20  S   UNL     1      24.619  47.045  50.153  1.00  0.00    -0.102 SA
BRANCH  20  21
HETATM   21  C   UNL     1      24.505  45.289  50.640  1.00  0.00     0.184 C 
BRANCH  21  22
HETATM   22  C   UNL     1      25.065  45.003  52.037  1.00  0.00     0.231 C 
HETATM   23  N   UNL     1      26.322  45.572  52.214  1.00  0.00    -0.326 N 
HETATM   24  H   UNL     1      26.550  46.326  51.576  1.00  0.00     0.169 HD
HETATM   25  O   UNL     1      24.445  44.364  52.882  1.00  0.00    -0.272 OA
BRANCH  23  26
HETATM   26  C   UNL     1      27.175  45.469  53.341  1.00  0.00     0.040 A 
HETATM   27  C   UNL     1      27.232  46.354  54.432  1.00  0.00    -0.035 A 
HETATM   28  C   UNL     1      26.279  47.492  54.665  1.00  0.00     0.050 C 
HETATM   29  C   UNL     1      28.207  46.144  55.432  1.00  0.00     0.009 A 
HETATM   30  C   UNL     1      29.062  45.044  55.396  1.00  0.00     0.001 A 
HETATM   31  C   UNL     1      28.947  44.123  54.366  1.00  0.00     0.002 A 
HETATM   32  C   UNL     1      28.003  44.330  53.358  1.00  0.00     0.030 A 
ENDBRANCH  23  26
ENDBRANCH  21  22
ENDBRANCH  20  21
ENDBRANCH   6  20
BRANCH   2  33
HETATM   33  C   UNL     1      19.536  47.167  46.819  1.00  0.00     0.255 C 
HETATM   34  N   UNL     1      19.793  47.003  45.473  1.00  0.00    -0.323 N 
HETATM   35  H   UNL     1      20.756  46.836  45.212  1.00  0.00     0.169 HD
HETATM   36  O   UNL     1      18.450  47.298  47.368  1.00  0.00    -0.268 OA
BRANCH  34  37
HETATM   37  C   UNL     1      18.888  47.118  44.400  1.00  0.00     0.035 A 
HETATM   38  C   UNL     1      18.375  48.330  43.939  1.00  0.00     0.029 A 
HETATM   39  C   UNL     1      17.508  48.356  42.842  1.00  0.00     0.002 A 
HETATM   40  C   UNL     1      17.152  47.175  42.195  1.00  0.00     0.000 A 
HETATM   41  C   UNL     1      17.657  45.960  42.650  1.00  0.00     0.002 A 
HETATM   42  C   UNL     1      18.517  45.932  43.750  1.00  0.00     0.029 A 
ENDBRANCH  34  37
ENDBRANCH   2  33
TORSDOF 9
ENDMDL
MODEL 7
REMARK VINA RESULT:      -9.0      2.733      9.155
REMARK  9 active torsions:
REMARK  status: ('A' for Active; 'I' for Inactive)
REMARK    1  A    between atoms: C_2  and  O_3 
REMARK    2  A    between atoms: O_3  and  C_4 
REMARK    3  A    between atoms: C_7  and  C_8 
REMARK    4  A    between atoms: C_9  and  C_10 
REMARK       I    between atoms: C_10  and  N_11 
REMARK    5  A    between atoms: N_11  and  C_12 
REMARK    6  A    between atoms: C_22  and  S_23 
REMARK    7  A    between atoms: S_23  and  C_24 
REMARK    8  A    between atoms: C_24  and  C_25 
REMARK       I    between atoms: C_25  and  N_26 
REMARK    9  A    between atoms: N_26  and  C_27 
ROOT
HETATM    1  C   UNL     1      25.842  43.302  49.135  1.00  0.00     0.104 C 
HETATM    2  C   UNL     1      26.668  42.121  49.649  1.00  0.00     0.046 C 
HETATM    3  C   UNL     1      26.928  41.970  50.969  1.00  0.00     0.019 C 
HETATM    4  C   UNL     1      27.803  40.904  51.580  1.00  0.00     0.069 C 
HETATM    5  N   UNL     1      26.389  42.871  51.862  1.00  0.00    -0.353 N 
HETATM    6  C   UNL     1      25.726  44.033  51.531  1.00  0.00     0.087 C 
HETATM    7  C   UNL     1      25.533  44.337  50.228  1.00  0.00     0.055 C 
HETATM    8  C   UNL     1      24.839  45.625  49.813  1.00  0.00     0.019 C 
HETATM    9  N   UNL     1      24.264  46.693  49.469  1.00  0.00    -0.096 N 
HETATM   10  H   UNL     1      26.404  42.650  52.860  1.00  0.00     0.166 HD
ENDROOT
BRANCH   1  11
HETATM   11  C   UNL     1      24.499  42.851  48.532  1.00  0.00    -0.044 A 
HETATM   12  C   UNL     1      24.103  43.243  47.241  1.00  0.00     0.011 A 
HETATM   13  C   UNL     1      22.969  42.687  46.641  1.00  0.00     0.037 A 
HETATM   14  C   UNL     1      22.244  41.695  47.296  1.00  0.00     0.068 A 
HETATM   15  C   UNL     1      22.596  41.337  48.597  1.00  0.00     0.037 A 
HETATM   16  C   UNL     1      23.711  41.911  49.215  1.00  0.00     0.011 A 
BRANCH  14  17
HETATM   17  O   UNL     1      21.182  41.017  46.765  1.00  0.00    -0.352 OA
BRANCH  17  18
HETATM   18  C   UNL     1      21.345  39.603  46.644  1.00  0.00     0.171 C 
HETATM   19  C   UNL     1      20.121  38.927  47.234  1.00  0.00     0.034 C 
ENDBRANCH  17  18
ENDBRANCH  14  17
ENDBRANCH   1  11
BRANCH   6  20
HETATM   20  S   UNL     1      25.098  45.042  52.820  1.00  0.00    -0.102 SA
BRANCH  20  21
HETATM   21  C   UNL     1      26.659  45.780  53.414  1.00  0.00     0.184 C 
BRANCH  21  22
HETATM   22  C   UNL     1      27.395  44.914  54.441  1.00  0.00     0.231 C 
HETATM   23  N   UNL     1      28.616  45.471  54.804  1.00  0.00    -0.326 N 
HETATM   24  H   UNL     1      28.711  46.463  54.620  1.00  0.00     0.169 HD
HETATM   25  O   UNL     1      26.926  43.869  54.885  1.00  0.00    -0.272 OA
BRANCH  23  26
HETATM   26  C   UNL     1      29.597  44.931  55.673  1.00  0.00     0.040 A 
HETATM   27  C   UNL     1      30.389  43.793  55.439  1.00  0.00    -0.035 A 
HETATM   28  C   UNL     1      30.439  43.034  54.142  1.00  0.00     0.050 C 
HETATM   29  C   UNL     1      31.260  43.346  56.457  1.00  0.00     0.009 A 
HETATM   30  C   UNL     1      31.402  44.044  57.654  1.00  0.00     0.001 A 
HETATM   31  C   UNL     1      30.686  45.215  57.850  1.00  0.00     0.002 A 
HETATM   32  C   UNL     1      29.803  45.658  56.861  1.00  0.00     0.030 A 
ENDBRANCH  23  26
ENDBRANCH  21  22
ENDBRANCH  20  21
ENDBRANCH   6  20
BRANCH   2  33
HETATM   33  C   UNL     1      27.180  41.187  48.605  1.00  0.00     0.255 C 
HETATM   34  N   UNL     1      26.551  39.959  48.638  1.00  0.00    -0.323 N 
HETATM   35  H   UNL     1      25.807  39.849  49.315  1.00  0.00     0.169 HD
HETATM   36  O   UNL     1      28.041  41.571  47.825  1.00  0.00    -0.268 OA
BRANCH  34  37
HETATM   37  C   UNL     1      26.868  38.805  47.897  1.00  0.00     0.035 A 
HETATM   38  C   UNL     1      27.418  38.827  46.615  1.00  0.00     0.029 A 
HETATM   39  C   UNL     1      27.736  37.631  45.965  1.00  0.00     0.002 A 
HETATM   40  C   UNL     1      27.513  36.406  46.591  1.00  0.00     0.000 A 
HETATM   41  C   UNL     1      26.963  36.374  47.868  1.00  0.00     0.002 A 
HETATM   42  C   UNL     1      26.637  37.568  48.516  1.00  0.00     0.029 A 
ENDBRANCH  34  37
ENDBRANCH   2  33
TORSDOF 9
ENDMDL
MODEL 8
REMARK VINA RESULT:      -8.8      6.121     10.832
REMARK  9 active torsions:
REMARK  status: ('A' for Active; 'I' for Inactive)
REMARK    1  A    between atoms: C_2  and  O_3 
REMARK    2  A    between atoms: O_3  and  C_4 
REMARK    3  A    between atoms: C_7  and  C_8 
REMARK    4  A    between atoms: C_9  and  C_10 
REMARK       I    between atoms: C_10  and  N_11 
REMARK    5  A    between atoms: N_11  and  C_12 
REMARK    6  A    between atoms: C_22  and  S_23 
REMARK    7  A    between atoms: S_23  and  C_24 
REMARK    8  A    between atoms: C_24  and  C_25 
REMARK       I    between atoms: C_25  and  N_26 
REMARK    9  A    between atoms: N_26  and  C_27 
ROOT
HETATM    1  C   UNL     1      21.622  47.762  47.355  1.00  0.00     0.104 C 
HETATM    2  C   UNL     1      21.220  46.356  46.906  1.00  0.00     0.046 C 
HETATM    3  C   UNL     1      21.787  45.256  47.455  1.00  0.00     0.019 C 
HETATM    4  C   UNL     1      21.540  43.831  47.031  1.00  0.00     0.069 C 
HETATM    5  N   UNL     1      22.702  45.416  48.475  1.00  0.00    -0.353 N 
HETATM    6  C   UNL     1      23.233  46.615  48.897  1.00  0.00     0.087 C 
HETATM    7  C   UNL     1      22.823  47.764  48.314  1.00  0.00     0.055 C 
HETATM    8  C   UNL     1      23.407  49.107  48.721  1.00  0.00     0.019 C 
HETATM    9  N   UNL     1      23.892  50.221  49.059  1.00  0.00    -0.096 N 
HETATM   10  H   UNL     1      22.973  44.602  49.030  1.00  0.00     0.166 HD
ENDROOT
BRANCH   1  11
HETATM   11  C   UNL     1      20.468  48.498  48.059  1.00  0.00    -0.044 A 
HETATM   12  C   UNL     1      19.928  48.032  49.272  1.00  0.00     0.011 A 
HETATM   13  C   UNL     1      19.005  48.802  49.986  1.00  0.00     0.037 A 
HETATM   14  C   UNL     1      18.646  50.068  49.531  1.00  0.00     0.068 A 
HETATM   15  C   UNL     1      19.133  50.516  48.304  1.00  0.00     0.037 A 
HETATM   16  C   UNL     1      20.033  49.740  47.569  1.00  0.00     0.011 A 
BRANCH  14  17
HETATM   17  O   UNL     1      17.831  50.940  50.197  1.00  0.00    -0.352 OA
BRANCH  17  18
HETATM   18  C   UNL     1      17.896  52.302  49.770  1.00  0.00     0.171 C 
HETATM   19  C   UNL     1      16.512  52.911  49.896  1.00  0.00     0.034 C 
ENDBRANCH  17  18
ENDBRANCH  14  17
ENDBRANCH   1  11
BRANCH   6  20
HETATM   20  S   UNL     1      24.376  46.608  50.227  1.00  0.00    -0.102 SA
BRANCH  20  21
HETATM   21  C   UNL     1      24.964  44.883  50.112  1.00  0.00     0.184 C 
BRANCH  21  22
HETATM   22  C   UNL     1      25.549  44.347  51.422  1.00  0.00     0.231 C 
HETATM   23  N   UNL     1      26.920  44.566  51.503  1.00  0.00    -0.326 N 
HETATM   24  H   UNL     1      27.278  45.292  50.893  1.00  0.00     0.169 HD
HETATM   25  O   UNL     1      24.859  43.811  52.286  1.00  0.00    -0.272 OA
BRANCH  23  26
HETATM   26  C   UNL     1      27.810  44.156  52.526  1.00  0.00     0.040 A 
HETATM   27  C   UNL     1      27.927  44.719  53.809  1.00  0.00    -0.035 A 
HETATM   28  C   UNL     1      27.009  45.765  54.375  1.00  0.00     0.050 C 
HETATM   29  C   UNL     1      28.932  44.238  54.677  1.00  0.00     0.009 A 
HETATM   30  C   UNL     1      29.760  43.176  54.316  1.00  0.00     0.001 A 
HETATM   31  C   UNL     1      29.587  42.564  53.084  1.00  0.00     0.002 A 
HETATM   32  C   UNL     1      28.612  43.044  52.207  1.00  0.00     0.030 A 
ENDBRANCH  23  26
ENDBRANCH  21  22
ENDBRANCH  20  21
ENDBRANCH   6  20
BRANCH   2  33
HETATM   33  C   UNL     1      20.202  46.291  45.818  1.00  0.00     0.255 C 
HETATM   34  N   UNL     1      18.917  46.157  46.303  1.00  0.00    -0.323 N 
HETATM   35  H   UNL     1      18.809  46.160  47.309  1.00  0.00     0.169 HD
HETATM   36  O   UNL     1      20.560  46.393  44.652  1.00  0.00    -0.268 OA
BRANCH  34  37
HETATM   37  C   UNL     1      17.735  45.932  45.571  1.00  0.00     0.035 A 
HETATM   38  C   UNL     1      17.377  44.699  45.026  1.00  0.00     0.029 A 
HETATM   39  C   UNL     1      16.166  44.557  44.342  1.00  0.00     0.002 A 
HETATM   40  C   UNL     1      15.302  45.641  44.203  1.00  0.00     0.000 A 
HETATM   41  C   UNL     1      15.651  46.875  44.742  1.00  0.00     0.002 A 
HETATM   42  C   UNL     1      16.865  47.021  45.418  1.00  0.00     0.029 A 
ENDBRANCH  34  37
ENDBRANCH   2  33
TORSDOF 9
ENDMDL
MODEL 9
REMARK VINA RESULT:      -8.7      3.403      4.616
REMARK  9 active torsions:
REMARK  status: ('A' for Active; 'I' for Inactive)
REMARK    1  A    between atoms: C_2  and  O_3 
REMARK    2  A    between atoms: O_3  and  C_4 
REMARK    3  A    between atoms: C_7  and  C_8 
REMARK    4  A    between atoms: C_9  and  C_10 
REMARK       I    between atoms: C_10  and  N_11 
REMARK    5  A    between atoms: N_11  and  C_12 
REMARK    6  A    between atoms: C_22  and  S_23 
REMARK    7  A    between atoms: S_23  and  C_24 
REMARK    8  A    between atoms: C_24  and  C_25 
REMARK       I    between atoms: C_25  and  N_26 
REMARK    9  A    between atoms: N_26  and  C_27 
ROOT
HETATM    1  C   UNL     1      25.587  42.719  50.929  1.00  0.00     0.104 C 
HETATM    2  C   UNL     1      26.841  41.878  51.171  1.00  0.00     0.046 C 
HETATM    3  C   UNL     1      27.303  41.022  50.229  1.00  0.00     0.019 C 
HETATM    4  C   UNL     1      28.468  40.079  50.388  1.00  0.00     0.069 C 
HETATM    5  N   UNL     1      26.655  40.956  49.013  1.00  0.00    -0.353 N 
HETATM    6  C   UNL     1      25.461  41.569  48.705  1.00  0.00     0.087 C 
HETATM    7  C   UNL     1      24.853  42.342  49.633  1.00  0.00     0.055 C 
HETATM    8  C   UNL     1      23.516  43.009  49.351  1.00  0.00     0.019 C 
HETATM    9  N   UNL     1      22.407  43.562  49.118  1.00  0.00    -0.096 N 
HETATM   10  H   UNL     1      27.111  40.478  48.234  1.00  0.00     0.166 HD
ENDROOT
BRANCH   1  11
HETATM   11  C   UNL     1      25.903  44.224  50.860  1.00  0.00    -0.044 A 
HETATM   12  C   UNL     1      26.737  44.756  49.861  1.00  0.00     0.011 A 
HETATM   13  C   UNL     1      26.873  46.139  49.705  1.00  0.00     0.037 A 
HETATM   14  C   UNL     1      26.142  47.011  50.507  1.00  0.00     0.068 A 
HETATM   15  C   UNL     1      25.354  46.495  51.535  1.00  0.00     0.037 A 
HETATM   16  C   UNL     1      25.236  45.115  51.716  1.00  0.00     0.011 A 
BRANCH  14  17
HETATM   17  O   UNL     1      26.126  48.372  50.376  1.00  0.00    -0.352 OA
BRANCH  17  18
HETATM   18  C   UNL     1      25.741  48.868  49.092  1.00  0.00     0.171 C 
HETATM   19  C   UNL     1      26.862  49.742  48.560  1.00  0.00     0.034 C 
ENDBRANCH  17  18
ENDBRANCH  14  17
ENDBRANCH   1  11
BRANCH   6  20
HETATM   20  S   UNL     1      24.805  41.374  47.090  1.00  0.00    -0.102 SA
BRANCH  20  21
HETATM   21  C   UNL     1      23.623  40.018  47.405  1.00  0.00     0.184 C 
BRANCH  21  22
HETATM   22  C   UNL     1      22.168  40.393  47.106  1.00  0.00     0.231 C 
HETATM   23  N   UNL     1      22.077  41.322  46.074  1.00  0.00    -0.326 N 
HETATM   24  H   UNL     1      22.888  41.378  45.470  1.00  0.00     0.169 HD
HETATM   25  O   UNL     1      21.219  39.900  47.709  1.00  0.00    -0.272 OA
BRANCH  23  26
HETATM   26  C   UNL     1      20.912  41.949  45.566  1.00  0.00     0.040 A 
HETATM   27  C   UNL     1      19.988  41.394  44.663  1.00  0.00    -0.035 A 
HETATM   28  C   UNL     1      19.996  39.966  44.195  1.00  0.00     0.050 C 
HETATM   29  C   UNL     1      18.925  42.197  44.194  1.00  0.00     0.009 A 
HETATM   30  C   UNL     1      18.733  43.497  44.659  1.00  0.00     0.001 A 
HETATM   31  C   UNL     1      19.594  44.014  45.615  1.00  0.00     0.002 A 
HETATM   32  C   UNL     1      20.663  43.239  46.071  1.00  0.00     0.030 A 
ENDBRANCH  23  26
ENDBRANCH  21  22
ENDBRANCH  20  21
ENDBRANCH   6  20
BRANCH   2  33
HETATM   33  C   UNL     1      27.484  42.044  52.506  1.00  0.00     0.255 C 
HETATM   34  N   UNL     1      28.057  43.290  52.666  1.00  0.00    -0.323 N 
HETATM   35  H   UNL     1      27.943  43.943  51.902  1.00  0.00     0.169 HD
HETATM   36  O   UNL     1      27.427  41.132  53.320  1.00  0.00    -0.268 OA
BRANCH  34  37
HETATM   37  C   UNL     1      28.857  43.744  53.733  1.00  0.00     0.035 A 
HETATM   38  C   UNL     1      28.565  44.869  54.503  1.00  0.00     0.029 A 
HETATM   39  C   UNL     1      29.396  45.228  55.569  1.00  0.00     0.002 A 
HETATM   40  C   UNL     1      30.519  44.463  55.877  1.00  0.00     0.000 A 
HETATM   41  C   UNL     1      30.819  43.340  55.113  1.00  0.00     0.002 A 
HETATM   42  C   UNL     1      29.995  42.985  54.042  1.00  0.00     0.029 A 
ENDBRANCH  34  37
ENDBRANCH   2  33
TORSDOF 9
ENDMDL
MODEL 10
REMARK VINA RESULT:      -8.6      8.928     13.209
REMARK  9 active torsions:
REMARK  status: ('A' for Active; 'I' for Inactive)
REMARK    1  A    between atoms: C_2  and  O_3 
REMARK    2  A    between atoms: O_3  and  C_4 
REMARK    3  A    between atoms: C_7  and  C_8 
REMARK    4  A    between atoms: C_9  and  C_10 
REMARK       I    between atoms: C_10  and  N_11 
REMARK    5  A    between atoms: N_11  and  C_12 
REMARK    6  A    between atoms: C_22  and  S_23 
REMARK    7  A    between atoms: S_23  and  C_24 
REMARK    8  A    between atoms: C_24  and  C_25 
REMARK       I    between atoms: C_25  and  N_26 
REMARK    9  A    between atoms: N_26  and  C_27 
ROOT
HETATM    1  C   UNL     1      16.891  49.740  47.431  1.00  0.00     0.104 C 
HETATM    2  C   UNL     1      17.642  50.482  48.538  1.00  0.00     0.046 C 
HETATM    3  C   UNL     1      18.706  49.922  49.159  1.00  0.00     0.019 C 
HETATM    4  C   UNL     1      19.464  50.514  50.320  1.00  0.00     0.069 C 
HETATM    5  N   UNL     1      19.146  48.683  48.742  1.00  0.00    -0.353 N 
HETATM    6  C   UNL     1      18.502  47.863  47.842  1.00  0.00     0.087 C 
HETATM    7  C   UNL     1      17.354  48.285  47.265  1.00  0.00     0.055 C 
HETATM    8  C   UNL     1      16.588  47.401  46.294  1.00  0.00     0.019 C 
HETATM    9  N   UNL     1      15.953  46.667  45.488  1.00  0.00    -0.096 N 
HETATM   10  H   UNL     1      20.060  48.349  49.056  1.00  0.00     0.166 HD
ENDROOT
BRANCH   1  11
HETATM   11  C   UNL     1      17.041  50.432  46.065  1.00  0.00    -0.044 A 
HETATM   12  C   UNL     1      18.283  50.505  45.409  1.00  0.00     0.011 A 
HETATM   13  C   UNL     1      18.372  50.978  44.096  1.00  0.00     0.037 A 
HETATM   14  C   UNL     1      17.221  51.336  43.399  1.00  0.00     0.068 A 
HETATM   15  C   UNL     1      15.991  51.318  44.057  1.00  0.00     0.037 A 
HETATM   16  C   UNL     1      15.899  50.875  45.379  1.00  0.00     0.011 A 
BRANCH  14  17
HETATM   17  O   UNL     1      17.183  51.716  42.087  1.00  0.00    -0.352 OA
BRANCH  17  18
HETATM   18  C   UNL     1      17.896  52.912  41.766  1.00  0.00     0.171 C 
HETATM   19  C   UNL     1      17.248  54.069  42.505  1.00  0.00     0.034 C 
ENDBRANCH  17  18
ENDBRANCH  14  17
ENDBRANCH   1  11
BRANCH   6  20
HETATM   20  S   UNL     1      19.235  46.324  47.428  1.00  0.00    -0.102 SA
BRANCH  20  21
HETATM   21  C   UNL     1      20.583  46.291  48.659  1.00  0.00     0.184 C 
BRANCH  21  22
HETATM   22  C   UNL     1      21.909  46.846  48.130  1.00  0.00     0.231 C 
HETATM   23  N   UNL     1      22.598  47.555  49.108  1.00  0.00    -0.326 N 
HETATM   24  H   UNL     1      22.327  47.350  50.063  1.00  0.00     0.169 HD
HETATM   25  O   UNL     1      22.298  46.653  46.981  1.00  0.00    -0.272 OA
BRANCH  23  26
HETATM   26  C   UNL     1      23.819  48.262  48.976  1.00  0.00     0.040 A 
HETATM   27  C   UNL     1      24.010  49.488  48.315  1.00  0.00    -0.035 A 
HETATM   28  C   UNL     1      22.907  50.345  47.759  1.00  0.00     0.050 C 
HETATM   29  C   UNL     1      25.318  50.009  48.206  1.00  0.00     0.009 A 
HETATM   30  C   UNL     1      26.408  49.373  48.798  1.00  0.00     0.001 A 
HETATM   31  C   UNL     1      26.207  48.210  49.524  1.00  0.00     0.002 A 
HETATM   32  C   UNL     1      24.922  47.671  49.621  1.00  0.00     0.030 A 
ENDBRANCH  23  26
ENDBRANCH  21  22
ENDBRANCH  20  21
ENDBRANCH   6  20
BRANCH   2  33
HETATM   33  C   UNL     1      17.106  51.827  48.895  1.00  0.00     0.255 C 
HETATM   34  N   UNL     1      15.753  51.801  49.170  1.00  0.00    -0.323 N 
HETATM   35  H   UNL     1      15.302  50.896  49.143  1.00  0.00     0.169 HD
HETATM   36  O   UNL     1      17.866  52.784  48.947  1.00  0.00    -0.268 OA
BRANCH  34  37
HETATM   37  C   UNL     1      14.898  52.895  49.408  1.00  0.00     0.035 A 
HETATM   38  C   UNL     1      14.409  53.243  50.667  1.00  0.00     0.029 A 
HETATM   39  C   UNL     1      13.593  54.368  50.818  1.00  0.00     0.002 A 
HETATM   40  C   UNL     1      13.265  55.156  49.716  1.00  0.00     0.000 A 
HETATM   41  C   UNL     1      13.746  54.814  48.456  1.00  0.00     0.002 A 
HETATM   42  C   UNL     1      14.555  53.686  48.302  1.00  0.00     0.029 A 
ENDBRANCH  34  37
ENDBRANCH   2  33
TORSDOF 9
ENDMDL
