MODEL 1
REMARK VINA RESULT:      -9.0      0.000      0.000
REMARK  8 active torsions:
REMARK  status: ('A' for Active; 'I' for Inactive)
REMARK    1  A    between atoms: C_2  and  C_3 
REMARK    2  A    between atoms: C_7  and  C_8 
REMARK       I    between atoms: C_8  and  N_9 
REMARK    3  A    between atoms: N_9  and  C_10 
REMARK    4  A    between atoms: C_10  and  C_11 
REMARK    5  A    between atoms: C_11  and  O_12 
REMARK    6  A    between atoms: C_11  and  C_13 
REMARK    7  A    between atoms: C_13  and  O_14 
REMARK    8  A    between atoms: O_14  and  C_15 
ROOT
HETATM    1  C   UNL     1      25.100  45.760  51.914  1.00  0.00     0.269 C 
HETATM    2  N   UNL     1      25.107  46.851  51.078  1.00  0.00    -0.353 N 
HETATM    3  O   UNL     1      24.260  44.871  51.829  1.00  0.00    -0.266 OA
HETATM    4  H   UNL     1      25.817  47.560  51.184  1.00  0.00     0.162 HD
ENDROOT
BRANCH   1   5
HETATM    5  C   UNL     1      26.126  45.756  52.921  1.00  0.00     0.120 A 
HETATM    6  N   UNL     1      26.267  46.791  53.804  1.00  0.00    -0.272 N 
HETATM    7  N   UNL     1      27.297  46.655  54.652  1.00  0.00    -0.174 NA
HETATM    8  H   UNL     1      25.694  47.628  53.858  1.00  0.00     0.189 HD
HETATM    9  C   UNL     1      27.830  45.462  54.350  1.00  0.00     0.089 A 
HETATM   10  C   UNL     1      27.125  44.868  53.265  1.00  0.00     0.071 A 
BRANCH   9  11
HETATM   11  C   UNL     1      28.984  44.926  55.079  1.00  0.00    -0.005 A 
HETATM   12  C   UNL     1      29.506  45.594  56.198  1.00  0.00     0.017 A 
HETATM   13  C   UNL     1      30.603  45.070  56.888  1.00  0.00     0.043 A 
HETATM   14  C   UNL     1      31.178  43.878  56.464  1.00  0.00     0.116 A 
HETATM   15  C   UNL     1      30.681  43.201  55.358  1.00  0.00     0.043 A 
HETATM   16  F   UNL     1      32.227  43.378  57.129  1.00  0.00    -0.206 F 
HETATM   17  C   UNL     1      29.587  43.726  54.664  1.00  0.00     0.017 A 
ENDBRANCH   9  11
ENDBRANCH   1   5
BRANCH   2  18
HETATM   18  C   UNL     1      24.152  47.007  49.987  1.00  0.00     0.156 C 
BRANCH  18  19
HETATM   19  C   UNL     1      23.780  48.477  49.731  1.00  0.00     0.159 C 
BRANCH  19  20
HETATM   20  O   UNL     1      24.916  49.176  49.201  1.00  0.00    -0.392 OA
HETATM   21  H   UNL     1      24.656  50.116  49.169  1.00  0.00     0.210 HD
ENDBRANCH  19  20
BRANCH  19  22
HETATM   22  C   UNL     1      22.624  48.598  48.730  1.00  0.00     0.201 C 
BRANCH  22  23
HETATM   23  O   UNL     1      21.335  48.329  49.274  1.00  0.00    -0.383 OA
BRANCH  23  24
HETATM   24  C   UNL     1      20.306  49.285  48.991  1.00  0.00     0.121 C 
HETATM   25  C   UNL     1      21.019  50.631  48.802  1.00  0.00     0.032 C 
HETATM   26  C   UNL     1      20.046  51.783  48.592  1.00  0.00     0.002 C 
HETATM   27  C   UNL     1      19.026  51.862  49.723  1.00  0.00     0.000 C 
HETATM   28  C   UNL     1      18.295  50.536  49.906  1.00  0.00     0.002 C 
HETATM   29  C   UNL     1      19.268  49.379  50.115  1.00  0.00     0.032 C 
ENDBRANCH  23  24
ENDBRANCH  22  23
ENDBRANCH  19  22
ENDBRANCH  18  19
ENDBRANCH   2  18
TORSDOF 8
ENDMDL
MODEL 2
REMARK VINA RESULT:      -9.0      3.433      4.563
REMARK  8 active torsions:
REMARK  status: ('A' for Active; 'I' for Inactive)
REMARK    1  A    between atoms: C_2  and  C_3 
REMARK    2  A    between atoms: C_7  and  C_8 
REMARK       I    between atoms: C_8  and  N_9 
REMARK    3  A    between atoms: N_9  and  C_10 
REMARK    4  A    between atoms: C_10  and  C_11 
REMARK    5  A    between atoms: C_11  and  O_12 
REMARK    6  A    between atoms: C_11  and  C_13 
REMARK    7  A    between atoms: C_13  and  O_14 
REMARK    8  A    between atoms: O_14  and  C_15 
ROOT
HETATM    1  C   UNL     1      27.351  42.628  51.134  1.00  0.00     0.269 C 
HETATM    2  N   UNL     1      26.733  43.778  50.704  1.00  0.00    -0.353 N 
HETATM    3  O   UNL     1      27.083  41.525  50.671  1.00  0.00    -0.266 OA
HETATM    4  H   UNL     1      26.983  44.666  51.113  1.00  0.00     0.162 HD
ENDROOT
BRANCH   1   5
HETATM    5  C   UNL     1      28.306  42.808  52.194  1.00  0.00     0.120 A 
HETATM    6  N   UNL     1      29.503  42.148  52.201  1.00  0.00    -0.272 N 
HETATM    7  N   UNL     1      30.261  42.392  53.280  1.00  0.00    -0.174 NA
HETATM    8  H   UNL     1      29.845  41.500  51.497  1.00  0.00     0.189 HD
HETATM    9  C   UNL     1      29.559  43.286  53.992  1.00  0.00     0.089 A 
HETATM   10  C   UNL     1      28.323  43.569  53.345  1.00  0.00     0.071 A 
BRANCH   9  11
HETATM   11  C   UNL     1      30.064  43.833  55.254  1.00  0.00    -0.005 A 
HETATM   12  C   UNL     1      29.595  45.061  55.749  1.00  0.00     0.017 A 
HETATM   13  C   UNL     1      30.080  45.570  56.957  1.00  0.00     0.043 A 
HETATM   14  C   UNL     1      31.030  44.854  57.674  1.00  0.00     0.116 A 
HETATM   15  C   UNL     1      31.511  43.639  57.204  1.00  0.00     0.043 A 
HETATM   16  F   UNL     1      31.491  45.344  58.832  1.00  0.00    -0.206 F 
HETATM   17  C   UNL     1      31.031  43.131  55.994  1.00  0.00     0.017 A 
ENDBRANCH   9  11
ENDBRANCH   1   5
BRANCH   2  18
HETATM   18  C   UNL     1      25.754  43.783  49.623  1.00  0.00     0.156 C 
BRANCH  18  19
HETATM   19  C   UNL     1      24.423  44.436  50.032  1.00  0.00     0.159 C 
BRANCH  19  20
HETATM   20  O   UNL     1      24.114  44.091  51.390  1.00  0.00    -0.392 OA
HETATM   21  H   UNL     1      23.278  43.592  51.352  1.00  0.00     0.210 HD
ENDBRANCH  19  20
BRANCH  19  22
HETATM   22  C   UNL     1      24.490  45.965  49.922  1.00  0.00     0.201 C 
BRANCH  22  23
HETATM   23  O   UNL     1      25.737  46.535  50.307  1.00  0.00    -0.383 OA
BRANCH  23  24
HETATM   24  C   UNL     1      25.921  47.927  50.024  1.00  0.00     0.121 C 
HETATM   25  C   UNL     1      24.721  48.347  49.166  1.00  0.00     0.032 C 
HETATM   26  C   UNL     1      24.819  49.791  48.691  1.00  0.00     0.002 C 
HETATM   27  C   UNL     1      26.129  50.046  47.955  1.00  0.00     0.000 C 
HETATM   28  C   UNL     1      27.331  49.653  48.808  1.00  0.00     0.002 C 
HETATM   29  C   UNL     1      27.236  48.206  49.286  1.00  0.00     0.032 C 
ENDBRANCH  23  24
ENDBRANCH  22  23
ENDBRANCH  19  22
ENDBRANCH  18  19
ENDBRANCH   2  18
TORSDOF 8
ENDMDL
MODEL 3
REMARK VINA RESULT:      -8.7      1.666      2.392
REMARK  8 active torsions:
REMARK  status: ('A' for Active; 'I' for Inactive)
REMARK    1  A    between atoms: C_2  and  C_3 
REMARK    2  A    between atoms: C_7  and  C_8 
REMARK       I    between atoms: C_8  and  N_9 
REMARK    3  A    between atoms: N_9  and  C_10 
REMARK    4  A    between atoms: C_10  and  C_11 
REMARK    5  A    between atoms: C_11  and  O_12 
REMARK    6  A    between atoms: C_11  and  C_13 
REMARK    7  A    between atoms: C_13  and  O_14 
REMARK    8  A    between atoms: O_14  and  C_15 
ROOT
HETATM    1  C   UNL     1      24.132  46.382  49.872  1.00  0.00     0.269 C 
HETATM    2  N   UNL     1      24.062  47.750  49.750  1.00  0.00    -0.353 N 
HETATM    3  O   UNL     1      23.611  45.622  49.063  1.00  0.00    -0.266 OA
HETATM    4  H   UNL     1      24.505  48.339  50.439  1.00  0.00     0.162 HD
ENDROOT
BRANCH   1   5
HETATM    5  C   UNL     1      24.824  45.908  51.039  1.00  0.00     0.120 A 
HETATM    6  N   UNL     1      24.285  44.952  51.854  1.00  0.00    -0.272 N 
HETATM    7  N   UNL     1      25.036  44.651  52.923  1.00  0.00    -0.174 NA
HETATM    8  H   UNL     1      23.392  44.483  51.734  1.00  0.00     0.189 HD
HETATM    9  C   UNL     1      26.138  45.403  52.785  1.00  0.00     0.089 A 
HETATM   10  C   UNL     1      26.041  46.210  51.617  1.00  0.00     0.071 A 
BRANCH   9  11
HETATM   11  C   UNL     1      27.236  45.348  53.755  1.00  0.00    -0.005 A 
HETATM   12  C   UNL     1      28.070  44.222  53.841  1.00  0.00     0.017 A 
HETATM   13  C   UNL     1      29.117  44.183  54.766  1.00  0.00     0.043 A 
HETATM   14  C   UNL     1      29.335  45.269  55.605  1.00  0.00     0.116 A 
HETATM   15  C   UNL     1      28.521  46.393  55.542  1.00  0.00     0.043 A 
HETATM   16  F   UNL     1      30.340  45.230  56.489  1.00  0.00    -0.206 F 
HETATM   17  C   UNL     1      27.471  46.430  54.620  1.00  0.00     0.017 A 
ENDBRANCH   9  11
ENDBRANCH   1   5
BRANCH   2  18
HETATM   18  C   UNL     1      23.416  48.402  48.617  1.00  0.00     0.156 C 
BRANCH  18  19
HETATM   19  C   UNL     1      23.683  49.916  48.574  1.00  0.00     0.159 C 
BRANCH  19  20
HETATM   20  O   UNL     1      23.913  50.327  47.218  1.00  0.00    -0.392 OA
HETATM   21  H   UNL     1      24.727  49.869  46.938  1.00  0.00     0.210 HD
ENDBRANCH  19  20
BRANCH  19  22
HETATM   22  C   UNL     1      22.494  50.712  49.128  1.00  0.00     0.201 C 
BRANCH  22  23
HETATM   23  O   UNL     1      21.387  49.917  49.542  1.00  0.00    -0.383 OA
BRANCH  23  24
HETATM   24  C   UNL     1      20.087  50.373  49.150  1.00  0.00     0.121 C 
HETATM   25  C   UNL     1      20.277  51.809  48.644  1.00  0.00     0.032 C 
HETATM   26  C   UNL     1      18.958  52.479  48.280  1.00  0.00     0.002 C 
HETATM   27  C   UNL     1      17.974  52.438  49.443  1.00  0.00     0.000 C 
HETATM   28  C   UNL     1      17.760  51.012  49.940  1.00  0.00     0.002 C 
HETATM   29  C   UNL     1      19.080  50.336  50.305  1.00  0.00     0.032 C 
ENDBRANCH  23  24
ENDBRANCH  22  23
ENDBRANCH  19  22
ENDBRANCH  18  19
ENDBRANCH   2  18
TORSDOF 8
ENDMDL
MODEL 4
REMARK VINA RESULT:      -8.6      4.508      5.806
REMARK  8 active torsions:
REMARK  status: ('A' for Active; 'I' for Inactive)
REMARK    1  A    between atoms: C_2  and  C_3 
REMARK    2  A    between atoms: C_7  and  C_8 
REMARK       I    between atoms: C_8  and  N_9 
REMARK    3  A    between atoms: N_9  and  C_10 
REMARK    4  A    between atoms: C_10  and  C_11 
REMARK    5  A    between atoms: C_11  and  O_12 
REMARK    6  A    between atoms: C_11  and  C_13 
REMARK    7  A    between atoms: C_13  and  O_14 
REMARK    8  A    between atoms: O_14  and  C_15 
ROOT
HETATM    1  C   UNL     1      27.965  41.120  50.409  1.00  0.00     0.269 C 
HETATM    2  N   UNL     1      27.082  41.938  49.745  1.00  0.00    -0.353 N 
HETATM    3  O   UNL     1      28.369  40.065  49.933  1.00  0.00    -0.266 OA
HETATM    4  H   UNL     1      26.775  42.798  50.174  1.00  0.00     0.162 HD
ENDROOT
BRANCH   1   5
HETATM    5  C   UNL     1      28.350  41.571  51.718  1.00  0.00     0.120 A 
HETATM    6  N   UNL     1      28.314  40.740  52.803  1.00  0.00    -0.272 N 
HETATM    7  N   UNL     1      28.662  41.325  53.958  1.00  0.00    -0.174 NA
HETATM    8  H   UNL     1      28.039  39.762  52.811  1.00  0.00     0.189 HD
HETATM    9  C   UNL     1      28.988  42.581  53.617  1.00  0.00     0.089 A 
HETATM   10  C   UNL     1      28.800  42.776  52.220  1.00  0.00     0.071 A 
BRANCH   9  11
HETATM   11  C   UNL     1      29.450  43.554  54.611  1.00  0.00    -0.005 A 
HETATM   12  C   UNL     1      28.784  44.777  54.789  1.00  0.00     0.017 A 
HETATM   13  C   UNL     1      29.232  45.695  55.744  1.00  0.00     0.043 A 
HETATM   14  C   UNL     1      30.342  45.393  56.523  1.00  0.00     0.116 A 
HETATM   15  C   UNL     1      31.019  44.191  56.362  1.00  0.00     0.043 A 
HETATM   16  F   UNL     1      30.766  46.273  57.438  1.00  0.00    -0.206 F 
HETATM   17  C   UNL     1      30.575  43.274  55.405  1.00  0.00     0.017 A 
ENDBRANCH   9  11
ENDBRANCH   1   5
BRANCH   2  18
HETATM   18  C   UNL     1      26.603  41.645  48.399  1.00  0.00     0.156 C 
BRANCH  18  19
HETATM   19  C   UNL     1      25.094  41.897  48.240  1.00  0.00     0.159 C 
BRANCH  19  20
HETATM   20  O   UNL     1      24.362  40.770  48.743  1.00  0.00    -0.392 OA
HETATM   21  H   UNL     1      25.034  40.122  49.024  1.00  0.00     0.210 HD
ENDBRANCH  19  20
BRANCH  19  22
HETATM   22  C   UNL     1      24.649  43.148  49.007  1.00  0.00     0.201 C 
BRANCH  22  23
HETATM   23  O   UNL     1      24.487  42.960  50.410  1.00  0.00    -0.383 OA
BRANCH  23  24
HETATM   24  C   UNL     1      24.476  44.142  51.219  1.00  0.00     0.121 C 
HETATM   25  C   UNL     1      24.962  45.281  50.312  1.00  0.00     0.032 C 
HETATM   26  C   UNL     1      25.105  46.601  51.058  1.00  0.00     0.002 C 
HETATM   27  C   UNL     1      26.008  46.455  52.278  1.00  0.00     0.000 C 
HETATM   28  C   UNL     1      25.522  45.341  53.198  1.00  0.00     0.002 C 
HETATM   29  C   UNL     1      25.376  44.016  52.454  1.00  0.00     0.032 C 
ENDBRANCH  23  24
ENDBRANCH  22  23
ENDBRANCH  19  22
ENDBRANCH  18  19
ENDBRANCH   2  18
TORSDOF 8
ENDMDL
MODEL 5
REMARK VINA RESULT:      -8.4      1.951      2.719
REMARK  8 active torsions:
REMARK  status: ('A' for Active; 'I' for Inactive)
REMARK    1  A    between atoms: C_2  and  C_3 
REMARK    2  A    between atoms: C_7  and  C_8 
REMARK       I    between atoms: C_8  and  N_9 
REMARK    3  A    between atoms: N_9  and  C_10 
REMARK    4  A    between atoms: C_10  and  C_11 
REMARK    5  A    between atoms: C_11  and  O_12 
REMARK    6  A    between atoms: C_11  and  C_13 
REMARK    7  A    between atoms: C_13  and  O_14 
REMARK    8  A    between atoms: O_14  and  C_15 
ROOT
HETATM    1  C   UNL     1      25.485  44.120  52.003  1.00  0.00     0.269 C 
HETATM    2  N   UNL     1      25.521  43.829  50.660  1.00  0.00    -0.353 N 
HETATM    3  O   UNL     1      24.448  44.418  52.584  1.00  0.00    -0.266 OA
HETATM    4  H   UNL     1      26.397  43.589  50.221  1.00  0.00     0.162 HD
ENDROOT
BRANCH   1   5
HETATM    5  C   UNL     1      26.759  44.088  52.668  1.00  0.00     0.120 A 
HETATM    6  N   UNL     1      27.907  43.756  52.003  1.00  0.00    -0.272 N 
HETATM    7  N   UNL     1      29.004  43.731  52.774  1.00  0.00    -0.174 NA
HETATM    8  H   UNL     1      27.994  43.519  51.019  1.00  0.00     0.189 HD
HETATM    9  C   UNL     1      28.573  44.107  53.988  1.00  0.00     0.089 A 
HETATM   10  C   UNL     1      27.169  44.336  53.963  1.00  0.00     0.071 A 
BRANCH   9  11
HETATM   11  C   UNL     1      29.488  44.228  55.127  1.00  0.00    -0.005 A 
HETATM   12  C   UNL     1      29.442  45.346  55.975  1.00  0.00     0.017 A 
HETATM   13  C   UNL     1      30.315  45.448  57.062  1.00  0.00     0.043 A 
HETATM   14  C   UNL     1      31.233  44.433  57.305  1.00  0.00     0.116 A 
HETATM   15  C   UNL     1      31.299  43.319  56.479  1.00  0.00     0.043 A 
HETATM   16  F   UNL     1      32.066  44.533  58.349  1.00  0.00    -0.206 F 
HETATM   17  C   UNL     1      30.429  43.219  55.389  1.00  0.00     0.017 A 
ENDBRANCH   9  11
ENDBRANCH   1   5
BRANCH   2  18
HETATM   18  C   UNL     1      24.319  43.795  49.835  1.00  0.00     0.156 C 
BRANCH  18  19
HETATM   19  C   UNL     1      24.283  44.925  48.792  1.00  0.00     0.159 C 
BRANCH  19  20
HETATM   20  O   UNL     1      23.299  44.627  47.791  1.00  0.00    -0.392 OA
HETATM   21  H   UNL     1      23.713  43.970  47.202  1.00  0.00     0.210 HD
ENDBRANCH  19  20
BRANCH  19  22
HETATM   22  C   UNL     1      23.929  46.272  49.436  1.00  0.00     0.201 C 
BRANCH  22  23
HETATM   23  O   UNL     1      22.990  47.053  48.703  1.00  0.00    -0.383 OA
BRANCH  23  24
HETATM   24  C   UNL     1      22.812  48.409  49.129  1.00  0.00     0.121 C 
HETATM   25  C   UNL     1      21.302  48.676  49.072  1.00  0.00     0.032 C 
HETATM   26  C   UNL     1      20.951  50.120  49.402  1.00  0.00     0.002 C 
HETATM   27  C   UNL     1      21.709  51.095  48.508  1.00  0.00     0.000 C 
HETATM   28  C   UNL     1      23.213  50.854  48.575  1.00  0.00     0.002 C 
HETATM   29  C   UNL     1      23.569  49.406  48.245  1.00  0.00     0.032 C 
ENDBRANCH  23  24
ENDBRANCH  22  23
ENDBRANCH  19  22
ENDBRANCH  18  19
ENDBRANCH   2  18
TORSDOF 8
ENDMDL
MODEL 6
REMARK VINA RESULT:      -8.3      3.930      6.681
REMARK  8 active torsions:
REMARK  status: ('A' for Active; 'I' for Inactive)
REMARK    1  A    between atoms: C_2  and  C_3 
REMARK    2  A    between atoms: C_7  and  C_8 
REMARK       I    between atoms: C_8  and  N_9 
REMARK    3  A    between atoms: N_9  and  C_10 
REMARK    4  A    between atoms: C_10  and  C_11 
REMARK    5  A    between atoms: C_11  and  O_12 
REMARK    6  A    between atoms: C_11  and  C_13 
REMARK    7  A    between atoms: C_13  and  O_14 
REMARK    8  A    between atoms: O_14  and  C_15 
ROOT
HETATM    1  C   UNL     1      25.153  45.913  51.735  1.00  0.00     0.269 C 
HETATM    2  N   UNL     1      24.674  44.706  51.283  1.00  0.00    -0.353 N 
HETATM    3  O   UNL     1      24.787  46.983  51.262  1.00  0.00    -0.266 OA
HETATM    4  H   UNL     1      25.003  43.848  51.700  1.00  0.00     0.162 HD
ENDROOT
BRANCH   1   5
HETATM    5  C   UNL     1      26.143  45.827  52.773  1.00  0.00     0.120 A 
HETATM    6  N   UNL     1      26.245  46.781  53.747  1.00  0.00    -0.272 N 
HETATM    7  N   UNL     1      27.246  46.577  54.615  1.00  0.00    -0.174 NA
HETATM    8  H   UNL     1      25.663  47.607  53.854  1.00  0.00     0.189 HD
HETATM    9  C   UNL     1      27.799  45.418  54.229  1.00  0.00     0.089 A 
HETATM   10  C   UNL     1      27.138  44.918  53.073  1.00  0.00     0.071 A 
BRANCH   9  11
HETATM   11  C   UNL     1      28.932  44.826  54.948  1.00  0.00    -0.005 A 
HETATM   12  C   UNL     1      29.440  43.568  54.587  1.00  0.00     0.017 A 
HETATM   13  C   UNL     1      30.524  43.017  55.276  1.00  0.00     0.043 A 
HETATM   14  C   UNL     1      31.104  43.721  56.324  1.00  0.00     0.116 A 
HETATM   15  C   UNL     1      30.617  44.965  56.702  1.00  0.00     0.043 A 
HETATM   16  F   UNL     1      32.143  43.191  56.981  1.00  0.00    -0.206 F 
HETATM   17  C   UNL     1      29.530  45.516  56.016  1.00  0.00     0.017 A 
ENDBRANCH   9  11
ENDBRANCH   1   5
BRANCH   2  18
HETATM   18  C   UNL     1      23.650  44.607  50.249  1.00  0.00     0.156 C 
BRANCH  18  19
HETATM   19  C   UNL     1      23.184  43.160  50.014  1.00  0.00     0.159 C 
BRANCH  19  20
HETATM   20  O   UNL     1      22.393  43.098  48.818  1.00  0.00    -0.392 OA
HETATM   21  H   UNL     1      21.511  43.431  49.068  1.00  0.00     0.210 HD
ENDBRANCH  19  20
BRANCH  19  22
HETATM   22  C   UNL     1      24.374  42.205  49.860  1.00  0.00     0.201 C 
BRANCH  22  23
HETATM   23  O   UNL     1      25.505  42.764  49.199  1.00  0.00    -0.383 OA
BRANCH  23  24
HETATM   24  C   UNL     1      26.789  42.257  49.582  1.00  0.00     0.121 C 
HETATM   25  C   UNL     1      27.094  41.104  48.617  1.00  0.00     0.032 C 
HETATM   26  C   UNL     1      28.393  40.385  48.958  1.00  0.00     0.002 C 
HETATM   27  C   UNL     1      28.397  39.900  50.403  1.00  0.00     0.000 C 
HETATM   28  C   UNL     1      28.116  41.042  51.373  1.00  0.00     0.002 C 
HETATM   29  C   UNL     1      26.815  41.766  51.034  1.00  0.00     0.032 C 
ENDBRANCH  23  24
ENDBRANCH  22  23
ENDBRANCH  19  22
ENDBRANCH  18  19
ENDBRANCH   2  18
TORSDOF 8
ENDMDL
MODEL 7
REMARK VINA RESULT:      -8.2     12.664     13.620
REMARK  8 active torsions:
REMARK  status: ('A' for Active; 'I' for Inactive)
REMARK    1  A    between atoms: C_2  and  C_3 
REMARK    2  A    between atoms: C_7  and  C_8 
REMARK       I    between atoms: C_8  and  N_9 
REMARK    3  A    between atoms: N_9  and  C_10 
REMARK    4  A    between atoms: C_10  and  C_11 
REMARK    5  A    between atoms: C_11  and  O_12 
REMARK    6  A    between atoms: C_11  and  C_13 
REMARK    7  A    between atoms: C_13  and  O_14 
REMARK    8  A    between atoms: O_14  and  C_15 
ROOT
HETATM    1  C   UNL     1      29.495  48.018  39.261  1.00  0.00     0.269 C 
HETATM    2  N   UNL     1      28.123  48.078  39.325  1.00  0.00    -0.353 N 
HETATM    3  O   UNL     1      30.087  47.470  38.338  1.00  0.00    -0.266 OA
HETATM    4  H   UNL     1      27.676  48.538  40.104  1.00  0.00     0.162 HD
ENDROOT
BRANCH   1   5
HETATM    5  C   UNL     1      30.184  48.607  40.376  1.00  0.00     0.120 A 
HETATM    6  N   UNL     1      29.731  48.462  41.658  1.00  0.00    -0.272 N 
HETATM    7  N   UNL     1      30.461  49.108  42.578  1.00  0.00    -0.174 NA
HETATM    8  H   UNL     1      28.911  47.942  41.958  1.00  0.00     0.189 HD
HETATM    9  C   UNL     1      31.465  49.665  41.884  1.00  0.00     0.089 A 
HETATM   10  C   UNL     1      31.324  49.377  40.497  1.00  0.00     0.071 A 
BRANCH   9  11
HETATM   11  C   UNL     1      32.512  50.453  42.540  1.00  0.00    -0.005 A 
HETATM   12  C   UNL     1      32.247  51.167  43.720  1.00  0.00     0.017 A 
HETATM   13  C   UNL     1      33.256  51.911  44.340  1.00  0.00     0.043 A 
HETATM   14  C   UNL     1      34.529  51.941  43.785  1.00  0.00     0.116 A 
HETATM   15  C   UNL     1      34.815  51.246  42.617  1.00  0.00     0.043 A 
HETATM   16  F   UNL     1      35.493  52.653  44.382  1.00  0.00    -0.206 F 
HETATM   17  C   UNL     1      33.806  50.505  41.994  1.00  0.00     0.017 A 
ENDBRANCH   9  11
ENDBRANCH   1   5
BRANCH   2  18
HETATM   18  C   UNL     1      27.266  47.548  38.270  1.00  0.00     0.156 C 
BRANCH  18  19
HETATM   19  C   UNL     1      26.593  48.656  37.442  1.00  0.00     0.159 C 
BRANCH  19  20
HETATM   20  O   UNL     1      25.224  48.307  37.192  1.00  0.00    -0.392 OA
HETATM   21  H   UNL     1      25.247  47.636  36.485  1.00  0.00     0.210 HD
ENDBRANCH  19  20
BRANCH  19  22
HETATM   22  C   UNL     1      26.625  50.003  38.175  1.00  0.00     0.201 C 
BRANCH  22  23
HETATM   23  O   UNL     1      27.809  50.768  37.964  1.00  0.00    -0.383 OA
BRANCH  23  24
HETATM   24  C   UNL     1      28.083  51.803  38.915  1.00  0.00     0.121 C 
HETATM   25  C   UNL     1      29.599  52.032  38.868  1.00  0.00     0.032 C 
HETATM   26  C   UNL     1      30.070  53.042  39.904  1.00  0.00     0.002 C 
HETATM   27  C   UNL     1      29.623  52.649  41.308  1.00  0.00     0.000 C 
HETATM   28  C   UNL     1      28.114  52.441  41.372  1.00  0.00     0.002 C 
HETATM   29  C   UNL     1      27.638  51.429  40.333  1.00  0.00     0.032 C 
ENDBRANCH  23  24
ENDBRANCH  22  23
ENDBRANCH  19  22
ENDBRANCH  18  19
ENDBRANCH   2  18
TORSDOF 8
ENDMDL
MODEL 8
REMARK VINA RESULT:      -8.1      4.301     10.688
REMARK  8 active torsions:
REMARK  status: ('A' for Active; 'I' for Inactive)
REMARK    1  A    between atoms: C_2  and  C_3 
REMARK    2  A    between atoms: C_7  and  C_8 
REMARK       I    between atoms: C_8  and  N_9 
REMARK    3  A    between atoms: N_9  and  C_10 
REMARK    4  A    between atoms: C_10  and  C_11 
REMARK    5  A    between atoms: C_11  and  O_12 
REMARK    6  A    between atoms: C_11  and  C_13 
REMARK    7  A    between atoms: C_13  and  O_14 
REMARK    8  A    between atoms: O_14  and  C_15 
ROOT
HETATM    1  C   UNL     1      24.223  45.516  49.327  1.00  0.00     0.269 C 
HETATM    2  N   UNL     1      24.827  45.147  50.506  1.00  0.00    -0.353 N 
HETATM    3  O   UNL     1      24.187  44.779  48.348  1.00  0.00    -0.266 OA
HETATM    4  H   UNL     1      24.834  45.786  51.287  1.00  0.00     0.162 HD
ENDROOT
BRANCH   1   5
HETATM    5  C   UNL     1      23.673  46.844  49.312  1.00  0.00     0.120 A 
HETATM    6  N   UNL     1      24.384  47.920  49.767  1.00  0.00    -0.272 N 
HETATM    7  N   UNL     1      23.714  49.081  49.725  1.00  0.00    -0.174 NA
HETATM    8  H   UNL     1      25.331  47.912  50.135  1.00  0.00     0.189 HD
HETATM    9  C   UNL     1      22.530  48.769  49.178  1.00  0.00     0.089 A 
HETATM   10  C   UNL     1      22.464  47.373  48.908  1.00  0.00     0.071 A 
BRANCH   9  11
HETATM   11  C   UNL     1      21.501  49.785  48.936  1.00  0.00    -0.005 A 
HETATM   12  C   UNL     1      21.019  50.032  47.641  1.00  0.00     0.017 A 
HETATM   13  C   UNL     1      20.033  51.000  47.424  1.00  0.00     0.043 A 
HETATM   14  C   UNL     1      19.526  51.719  48.499  1.00  0.00     0.116 A 
HETATM   15  C   UNL     1      19.989  51.494  49.789  1.00  0.00     0.043 A 
HETATM   16  F   UNL     1      18.580  52.643  48.288  1.00  0.00    -0.206 F 
HETATM   17  C   UNL     1      20.978  50.531  50.006  1.00  0.00     0.017 A 
ENDBRANCH   9  11
ENDBRANCH   1   5
BRANCH   2  18
HETATM   18  C   UNL     1      25.418  43.829  50.704  1.00  0.00     0.156 C 
BRANCH  18  19
HETATM   19  C   UNL     1      26.955  43.870  50.747  1.00  0.00     0.159 C 
BRANCH  19  20
HETATM   20  O   UNL     1      27.436  44.875  49.843  1.00  0.00    -0.392 OA
HETATM   21  H   UNL     1      27.581  45.671  50.386  1.00  0.00     0.210 HD
ENDBRANCH  19  20
BRANCH  19  22
HETATM   22  C   UNL     1      27.468  44.197  52.155  1.00  0.00     0.201 C 
BRANCH  22  23
HETATM   23  O   UNL     1      28.294  43.192  52.736  1.00  0.00    -0.383 OA
BRANCH  23  24
HETATM   24  C   UNL     1      28.726  43.414  54.084  1.00  0.00     0.121 C 
HETATM   25  C   UNL     1      28.468  44.899  54.371  1.00  0.00     0.032 C 
HETATM   26  C   UNL     1      28.971  45.324  55.744  1.00  0.00     0.002 C 
HETATM   27  C   UNL     1      30.446  44.983  55.926  1.00  0.00     0.000 C 
HETATM   28  C   UNL     1      30.710  43.504  55.665  1.00  0.00     0.002 C 
HETATM   29  C   UNL     1      30.206  43.074  54.289  1.00  0.00     0.032 C 
ENDBRANCH  23  24
ENDBRANCH  22  23
ENDBRANCH  19  22
ENDBRANCH  18  19
ENDBRANCH   2  18
TORSDOF 8
ENDMDL
MODEL 9
REMARK VINA RESULT:      -8.0      2.160      3.090
REMARK  8 active torsions:
REMARK  status: ('A' for Active; 'I' for Inactive)
REMARK    1  A    between atoms: C_2  and  C_3 
REMARK    2  A    between atoms: C_7  and  C_8 
REMARK       I    between atoms: C_8  and  N_9 
REMARK    3  A    between atoms: N_9  and  C_10 
REMARK    4  A    between atoms: C_10  and  C_11 
REMARK    5  A    between atoms: C_11  and  O_12 
REMARK    6  A    between atoms: C_11  and  C_13 
REMARK    7  A    between atoms: C_13  and  O_14 
REMARK    8  A    between atoms: O_14  and  C_15 
ROOT
HETATM    1  C   UNL     1      23.900  44.762  49.213  1.00  0.00     0.269 C 
HETATM    2  N   UNL     1      22.831  45.623  49.291  1.00  0.00    -0.353 N 
HETATM    3  O   UNL     1      24.197  44.175  48.178  1.00  0.00    -0.266 OA
HETATM    4  H   UNL     1      22.621  46.085  50.163  1.00  0.00     0.162 HD
ENDROOT
BRANCH   1   5
HETATM    5  C   UNL     1      24.619  44.568  50.442  1.00  0.00     0.120 A 
HETATM    6  N   UNL     1      24.045  44.823  51.657  1.00  0.00    -0.272 N 
HETATM    7  N   UNL     1      24.861  44.634  52.703  1.00  0.00    -0.174 NA
HETATM    8  H   UNL     1      23.097  45.149  51.825  1.00  0.00     0.189 HD
HETATM    9  C   UNL     1      26.006  44.189  52.164  1.00  0.00     0.089 A 
HETATM   10  C   UNL     1      25.895  44.138  50.746  1.00  0.00     0.071 A 
BRANCH   9  11
HETATM   11  C   UNL     1      27.163  43.839  52.992  1.00  0.00    -0.005 A 
HETATM   12  C   UNL     1      27.791  44.800  53.801  1.00  0.00     0.017 A 
HETATM   13  C   UNL     1      28.891  44.453  54.591  1.00  0.00     0.043 A 
HETATM   14  C   UNL     1      29.364  43.146  54.577  1.00  0.00     0.116 A 
HETATM   15  C   UNL     1      28.761  42.179  53.784  1.00  0.00     0.043 A 
HETATM   16  F   UNL     1      30.416  42.816  55.337  1.00  0.00    -0.206 F 
HETATM   17  C   UNL     1      27.664  42.526  52.990  1.00  0.00     0.017 A 
ENDBRANCH   9  11
ENDBRANCH   1   5
BRANCH   2  18
HETATM   18  C   UNL     1      22.005  45.952  48.135  1.00  0.00     0.156 C 
BRANCH  18  19
HETATM   19  C   UNL     1      20.500  45.905  48.450  1.00  0.00     0.159 C 
BRANCH  19  20
HETATM   20  O   UNL     1      20.265  45.005  49.543  1.00  0.00    -0.392 OA
HETATM   21  H   UNL     1      19.323  44.760  49.485  1.00  0.00     0.210 HD
ENDBRANCH  19  20
BRANCH  19  22
HETATM   22  C   UNL     1      19.963  47.289  48.836  1.00  0.00     0.201 C 
BRANCH  22  23
HETATM   23  O   UNL     1      20.966  48.280  49.042  1.00  0.00    -0.383 OA
BRANCH  23  24
HETATM   24  C   UNL     1      20.510  49.590  49.401  1.00  0.00     0.121 C 
HETATM   25  C   UNL     1      19.016  49.444  49.722  1.00  0.00     0.032 C 
HETATM   26  C   UNL     1      18.352  50.780  50.028  1.00  0.00     0.002 C 
HETATM   27  C   UNL     1      18.571  51.782  48.899  1.00  0.00     0.000 C 
HETATM   28  C   UNL     1      20.054  51.951  48.587  1.00  0.00     0.002 C 
HETATM   29  C   UNL     1      20.724  50.613  48.280  1.00  0.00     0.032 C 
ENDBRANCH  23  24
ENDBRANCH  22  23
ENDBRANCH  19  22
ENDBRANCH  18  19
ENDBRANCH   2  18
TORSDOF 8
ENDMDL
MODEL 10
REMARK VINA RESULT:      -7.8     17.508     20.023
REMARK  8 active torsions:
REMARK  status: ('A' for Active; 'I' for Inactive)
REMARK    1  A    between atoms: C_2  and  C_3 
REMARK    2  A    between atoms: C_7  and  C_8 
REMARK       I    between atoms: C_8  and  N_9 
REMARK    3  A    between atoms: N_9  and  C_10 
REMARK    4  A    between atoms: C_10  and  C_11 
REMARK    5  A    between atoms: C_11  and  O_12 
REMARK    6  A    between atoms: C_11  and  C_13 
REMARK    7  A    between atoms: C_13  and  O_14 
REMARK    8  A    between atoms: O_14  and  C_15 
ROOT
HETATM    1  C   UNL     1      37.002  45.805  63.921  1.00  0.00     0.269 C 
HETATM    2  N   UNL     1      37.660  47.012  63.949  1.00  0.00    -0.353 N 
HETATM    3  O   UNL     1      35.812  45.698  64.192  1.00  0.00    -0.266 OA
HETATM    4  H   UNL     1      38.641  47.055  63.720  1.00  0.00     0.162 HD
ENDROOT
BRANCH   1   5
HETATM    5  C   UNL     1      37.822  44.671  63.592  1.00  0.00     0.120 A 
HETATM    6  N   UNL     1      38.620  44.662  62.481  1.00  0.00    -0.272 N 
HETATM    7  N   UNL     1      39.288  43.515  62.292  1.00  0.00    -0.174 NA
HETATM    8  H   UNL     1      38.730  45.411  61.804  1.00  0.00     0.189 HD
HETATM    9  C   UNL     1      38.958  42.752  63.345  1.00  0.00     0.089 A 
HETATM   10  C   UNL     1      38.035  43.441  64.182  1.00  0.00     0.071 A 
BRANCH   9  11
HETATM   11  C   UNL     1      39.506  41.405  63.524  1.00  0.00    -0.005 A 
HETATM   12  C   UNL     1      39.237  40.385  62.597  1.00  0.00     0.017 A 
HETATM   13  C   UNL     1      39.770  39.105  62.775  1.00  0.00     0.043 A 
HETATM   14  C   UNL     1      40.576  38.843  63.877  1.00  0.00     0.116 A 
HETATM   15  C   UNL     1      40.854  39.834  64.809  1.00  0.00     0.043 A 
HETATM   16  F   UNL     1      41.087  37.617  64.044  1.00  0.00    -0.206 F 
HETATM   17  C   UNL     1      40.317  41.113  64.634  1.00  0.00     0.017 A 
ENDBRANCH   9  11
ENDBRANCH   1   5
BRANCH   2  18
HETATM   18  C   UNL     1      36.978  48.267  64.243  1.00  0.00     0.156 C 
BRANCH  18  19
HETATM   19  C   UNL     1      37.797  49.183  65.169  1.00  0.00     0.159 C 
BRANCH  19  20
HETATM   20  O   UNL     1      37.523  48.851  66.539  1.00  0.00    -0.392 OA
HETATM   21  H   UNL     1      36.934  48.074  66.510  1.00  0.00     0.210 HD
ENDBRANCH  19  20
BRANCH  19  22
HETATM   22  C   UNL     1      39.303  49.029  64.924  1.00  0.00     0.201 C 
BRANCH  22  23
HETATM   23  O   UNL     1      39.876  47.841  65.464  1.00  0.00    -0.383 OA
BRANCH  23  24
HETATM   24  C   UNL     1      41.180  47.485  64.991  1.00  0.00     0.121 C 
HETATM   25  C   UNL     1      41.070  46.038  64.493  1.00  0.00     0.032 C 
HETATM   26  C   UNL     1      42.411  45.470  64.047  1.00  0.00     0.002 C 
HETATM   27  C   UNL     1      43.459  45.589  65.148  1.00  0.00     0.000 C 
HETATM   28  C   UNL     1      43.593  47.027  65.634  1.00  0.00     0.002 C 
HETATM   29  C   UNL     1      42.251  47.601  66.082  1.00  0.00     0.032 C 
ENDBRANCH  23  24
ENDBRANCH  22  23
ENDBRANCH  19  22
ENDBRANCH  18  19
ENDBRANCH   2  18
TORSDOF 8
ENDMDL
