MODEL 1
REMARK VINA RESULT:      -8.3      0.000      0.000
REMARK  4 active torsions:
REMARK  status: ('A' for Active; 'I' for Inactive)
REMARK    1  A    between atoms: C_4  and  C_5 
REMARK    2  A    between atoms: C_7  and  N_8 
REMARK       I    between atoms: N_8  and  C_9 
REMARK    3  A    between atoms: C_9  and  C_10 
REMARK    4  A    between atoms: C_10  and  C_11 
ROOT
HETATM    1  C   UNL     1      28.309  44.936  54.241  1.00  0.00     0.019 A 
HETATM    2  C   UNL     1      28.460  43.968  53.232  1.00  0.00     0.045 A 
HETATM    3  C   UNL     1      27.584  43.919  52.143  1.00  0.00     0.035 A 
HETATM    4  C   UNL     1      26.544  44.855  52.066  1.00  0.00     0.029 A 
HETATM    5  C   UNL     1      26.383  45.824  53.056  1.00  0.00     0.003 A 
HETATM    6  C   UNL     1      27.260  45.862  54.137  1.00  0.00     0.016 A 
ENDROOT
BRANCH   3   7
HETATM    7  N   UNL     1      27.668  42.977  51.095  1.00  0.00    -0.327 N 
HETATM    8  C   UNL     1      27.489  41.601  51.169  1.00  0.00     0.227 C 
HETATM    9  O   UNL     1      27.255  40.962  52.192  1.00  0.00    -0.273 OA
HETATM   10  H   UNL     1      27.899  43.357  50.186  1.00  0.00     0.169 HD
BRANCH   8  11
HETATM   11  C   UNL     1      27.690  40.924  49.808  1.00  0.00     0.159 C 
BRANCH  11  12
HETATM   12  C   UNL     1      28.586  39.723  49.846  1.00  0.00     0.017 A 
HETATM   13  N   UNL     1      29.110  39.212  51.014  1.00  0.00    -0.369 N 
HETATM   14  H   UNL     1      28.904  39.577  51.940  1.00  0.00     0.165 HD
HETATM   15  C   UNL     1      29.911  38.139  50.731  1.00  0.00     0.088 A 
HETATM   16  C   UNL     1      29.910  37.953  49.369  1.00  0.00     0.019 A 
HETATM   17  C   UNL     1      29.076  38.950  48.809  1.00  0.00     0.027 A 
ENDBRANCH  11  12
ENDBRANCH   8  11
ENDBRANCH   3   7
BRANCH   1  18
HETATM   18  C   UNL     1      29.204  45.003  55.395  1.00  0.00     0.180 A 
HETATM   19  N   UNL     1      29.256  45.909  56.355  1.00  0.00    -0.226 NA
HETATM   20  C   UNL     1      30.276  45.479  57.174  1.00  0.00     0.063 A 
HETATM   21  C   UNL     1      30.648  46.228  58.391  1.00  0.00     0.073 C 
HETATM   22  C   UNL     1      30.817  44.318  56.662  1.00  0.00     0.076 A 
HETATM   23  O   UNL     1      30.133  44.003  55.523  1.00  0.00    -0.294 OA
HETATM   24  C   UNL     1      31.900  43.410  57.071  1.00  0.00     0.079 C 
ENDBRANCH   1  18
TORSDOF 4
ENDMDL
MODEL 2
REMARK VINA RESULT:      -8.3      3.256      5.932
REMARK  4 active torsions:
REMARK  status: ('A' for Active; 'I' for Inactive)
REMARK    1  A    between atoms: C_4  and  C_5 
REMARK    2  A    between atoms: C_7  and  N_8 
REMARK       I    between atoms: N_8  and  C_9 
REMARK    3  A    between atoms: C_9  and  C_10 
REMARK    4  A    between atoms: C_10  and  C_11 
ROOT
HETATM    1  C   UNL     1      28.598  43.509  53.781  1.00  0.00     0.019 A 
HETATM    2  C   UNL     1      27.851  44.535  53.174  1.00  0.00     0.045 A 
HETATM    3  C   UNL     1      26.998  44.266  52.098  1.00  0.00     0.035 A 
HETATM    4  C   UNL     1      26.895  42.950  51.627  1.00  0.00     0.029 A 
HETATM    5  C   UNL     1      27.626  41.922  52.220  1.00  0.00     0.003 A 
HETATM    6  C   UNL     1      28.473  42.201  53.289  1.00  0.00     0.016 A 
ENDROOT
BRANCH   3   7
HETATM    7  N   UNL     1      26.220  45.240  51.435  1.00  0.00    -0.327 N 
HETATM    8  C   UNL     1      26.445  45.805  50.186  1.00  0.00     0.227 C 
HETATM    9  O   UNL     1      27.400  45.565  49.451  1.00  0.00    -0.273 OA
HETATM   10  H   UNL     1      25.410  45.570  51.944  1.00  0.00     0.169 HD
BRANCH   8  11
HETATM   11  C   UNL     1      25.381  46.850  49.831  1.00  0.00     0.159 C 
BRANCH  11  12
HETATM   12  C   UNL     1      25.936  48.131  49.286  1.00  0.00     0.017 A 
HETATM   13  N   UNL     1      27.274  48.455  49.343  1.00  0.00    -0.369 N 
HETATM   14  H   UNL     1      27.995  47.844  49.717  1.00  0.00     0.165 HD
HETATM   15  C   UNL     1      27.475  49.695  48.798  1.00  0.00     0.088 A 
HETATM   16  C   UNL     1      26.256  50.181  48.386  1.00  0.00     0.019 A 
HETATM   17  C   UNL     1      25.285  49.198  48.693  1.00  0.00     0.027 A 
ENDBRANCH  11  12
ENDBRANCH   8  11
ENDBRANCH   3   7
BRANCH   1  18
HETATM   18  C   UNL     1      29.503  43.765  54.900  1.00  0.00     0.180 A 
HETATM   19  N   UNL     1      30.502  43.024  55.347  1.00  0.00    -0.226 NA
HETATM   20  C   UNL     1      31.007  43.740  56.408  1.00  0.00     0.063 A 
HETATM   21  C   UNL     1      32.162  43.245  57.185  1.00  0.00     0.073 C 
HETATM   22  C   UNL     1      30.277  44.898  56.570  1.00  0.00     0.076 A 
HETATM   23  O   UNL     1      29.313  44.924  55.604  1.00  0.00    -0.294 OA
HETATM   24  C   UNL     1      30.329  46.035  57.503  1.00  0.00     0.079 C 
ENDBRANCH   1  18
TORSDOF 4
ENDMDL
MODEL 3
REMARK VINA RESULT:      -8.1      6.964     10.195
REMARK  4 active torsions:
REMARK  status: ('A' for Active; 'I' for Inactive)
REMARK    1  A    between atoms: C_4  and  C_5 
REMARK    2  A    between atoms: C_7  and  N_8 
REMARK       I    between atoms: N_8  and  C_9 
REMARK    3  A    between atoms: C_9  and  C_10 
REMARK    4  A    between atoms: C_10  and  C_11 
ROOT
HETATM    1  C   UNL     1      26.029  47.685  50.039  1.00  0.00     0.019 A 
HETATM    2  C   UNL     1      24.815  48.230  49.581  1.00  0.00     0.045 A 
HETATM    3  C   UNL     1      24.798  49.328  48.716  1.00  0.00     0.035 A 
HETATM    4  C   UNL     1      26.016  49.887  48.305  1.00  0.00     0.029 A 
HETATM    5  C   UNL     1      27.228  49.356  48.746  1.00  0.00     0.003 A 
HETATM    6  C   UNL     1      27.232  48.263  49.609  1.00  0.00     0.016 A 
ENDROOT
BRANCH   3   7
HETATM    7  N   UNL     1      23.624  49.932  48.218  1.00  0.00    -0.327 N 
HETATM    8  C   UNL     1      22.681  50.672  48.921  1.00  0.00     0.227 C 
HETATM    9  O   UNL     1      22.701  50.899  50.128  1.00  0.00    -0.273 OA
HETATM   10  H   UNL     1      23.448  49.794  47.231  1.00  0.00     0.169 HD
BRANCH   8  11
HETATM   11  C   UNL     1      21.530  51.137  48.020  1.00  0.00     0.159 C 
BRANCH  11  12
HETATM   12  C   UNL     1      20.227  51.325  48.737  1.00  0.00     0.017 A 
HETATM   13  N   UNL     1      19.748  50.434  49.672  1.00  0.00    -0.369 N 
HETATM   14  H   UNL     1      20.249  49.605  49.982  1.00  0.00     0.165 HD
HETATM   15  C   UNL     1      18.528  50.854  50.129  1.00  0.00     0.088 A 
HETATM   16  C   UNL     1      18.211  52.025  49.483  1.00  0.00     0.019 A 
HETATM   17  C   UNL     1      19.280  52.324  48.605  1.00  0.00     0.027 A 
ENDBRANCH  11  12
ENDBRANCH   8  11
ENDBRANCH   3   7
BRANCH   1  18
HETATM   18  C   UNL     1      26.074  46.544  50.951  1.00  0.00     0.180 A 
HETATM   19  N   UNL     1      25.549  46.422  52.157  1.00  0.00    -0.226 NA
HETATM   20  C   UNL     1      25.894  45.149  52.551  1.00  0.00     0.063 A 
HETATM   21  C   UNL     1      25.478  44.615  53.864  1.00  0.00     0.073 C 
HETATM   22  C   UNL     1      26.634  44.545  51.557  1.00  0.00     0.076 A 
HETATM   23  O   UNL     1      26.751  45.431  50.525  1.00  0.00    -0.294 OA
HETATM   24  C   UNL     1      27.271  43.229  51.392  1.00  0.00     0.079 C 
ENDBRANCH   1  18
TORSDOF 4
ENDMDL
MODEL 4
REMARK VINA RESULT:      -8.0      2.002      2.594
REMARK  4 active torsions:
REMARK  status: ('A' for Active; 'I' for Inactive)
REMARK    1  A    between atoms: C_4  and  C_5 
REMARK    2  A    between atoms: C_7  and  N_8 
REMARK       I    between atoms: N_8  and  C_9 
REMARK    3  A    between atoms: C_9  and  C_10 
REMARK    4  A    between atoms: C_10  and  C_11 
ROOT
HETATM    1  C   UNL     1      28.022  45.355  54.419  1.00  0.00     0.019 A 
HETATM    2  C   UNL     1      27.701  44.454  53.387  1.00  0.00     0.045 A 
HETATM    3  C   UNL     1      26.667  44.728  52.486  1.00  0.00     0.035 A 
HETATM    4  C   UNL     1      25.947  45.923  52.623  1.00  0.00     0.029 A 
HETATM    5  C   UNL     1      26.256  46.829  53.637  1.00  0.00     0.003 A 
HETATM    6  C   UNL     1      27.286  46.544  54.530  1.00  0.00     0.016 A 
ENDROOT
BRANCH   3   7
HETATM    7  N   UNL     1      26.283  43.874  51.430  1.00  0.00    -0.327 N 
HETATM    8  C   UNL     1      26.656  43.948  50.093  1.00  0.00     0.227 C 
HETATM    9  O   UNL     1      27.375  44.812  49.596  1.00  0.00    -0.273 OA
HETATM   10  H   UNL     1      25.649  43.127  51.683  1.00  0.00     0.169 HD
BRANCH   8  11
HETATM   11  C   UNL     1      26.002  42.845  49.254  1.00  0.00     0.159 C 
BRANCH  11  12
HETATM   12  C   UNL     1      26.964  41.821  48.730  1.00  0.00     0.017 A 
HETATM   13  N   UNL     1      27.081  41.516  47.391  1.00  0.00    -0.369 N 
HETATM   14  H   UNL     1      26.562  41.981  46.651  1.00  0.00     0.165 HD
HETATM   15  C   UNL     1      28.012  40.527  47.221  1.00  0.00     0.088 A 
HETATM   16  C   UNL     1      28.502  40.186  48.460  1.00  0.00     0.019 A 
HETATM   17  C   UNL     1      27.842  40.999  49.412  1.00  0.00     0.027 A 
ENDBRANCH  11  12
ENDBRANCH   8  11
ENDBRANCH   3   7
BRANCH   1  18
HETATM   18  C   UNL     1      29.091  45.088  55.379  1.00  0.00     0.180 A 
HETATM   19  N   UNL     1      29.971  44.103  55.391  1.00  0.00    -0.226 NA
HETATM   20  C   UNL     1      30.736  44.343  56.510  1.00  0.00     0.063 A 
HETATM   21  C   UNL     1      31.857  43.455  56.877  1.00  0.00     0.073 C 
HETATM   22  C   UNL     1      30.274  45.476  57.147  1.00  0.00     0.076 A 
HETATM   23  O   UNL     1      29.221  45.962  56.426  1.00  0.00    -0.294 OA
HETATM   24  C   UNL     1      30.664  46.217  58.357  1.00  0.00     0.079 C 
ENDBRANCH   1  18
TORSDOF 4
ENDMDL
MODEL 5
REMARK VINA RESULT:      -8.0      6.246      9.745
REMARK  4 active torsions:
REMARK  status: ('A' for Active; 'I' for Inactive)
REMARK    1  A    between atoms: C_4  and  C_5 
REMARK    2  A    between atoms: C_7  and  N_8 
REMARK       I    between atoms: N_8  and  C_9 
REMARK    3  A    between atoms: C_9  and  C_10 
REMARK    4  A    between atoms: C_10  and  C_11 
ROOT
HETATM    1  C   UNL     1      24.059  49.386  48.770  1.00  0.00     0.019 A 
HETATM    2  C   UNL     1      24.328  48.301  49.625  1.00  0.00     0.045 A 
HETATM    3  C   UNL     1      25.639  47.877  49.861  1.00  0.00     0.035 A 
HETATM    4  C   UNL     1      26.694  48.550  49.231  1.00  0.00     0.029 A 
HETATM    5  C   UNL     1      26.445  49.630  48.383  1.00  0.00     0.003 A 
HETATM    6  C   UNL     1      25.135  50.042  48.154  1.00  0.00     0.016 A 
ENDROOT
BRANCH   3   7
HETATM    7  N   UNL     1      25.988  46.797  50.700  1.00  0.00    -0.327 N 
HETATM    8  C   UNL     1      25.831  46.701  52.078  1.00  0.00     0.227 C 
HETATM    9  O   UNL     1      25.381  47.578  52.811  1.00  0.00    -0.273 OA
HETATM   10  H   UNL     1      26.414  46.005  50.236  1.00  0.00     0.169 HD
BRANCH   8  11
HETATM   11  C   UNL     1      26.360  45.370  52.623  1.00  0.00     0.159 C 
BRANCH  11  12
HETATM   12  C   UNL     1      27.302  45.511  53.781  1.00  0.00     0.017 A 
HETATM   13  N   UNL     1      27.397  46.659  54.538  1.00  0.00    -0.369 N 
HETATM   14  H   UNL     1      26.816  47.482  54.402  1.00  0.00     0.165 HD
HETATM   15  C   UNL     1      28.358  46.502  55.499  1.00  0.00     0.088 A 
HETATM   16  C   UNL     1      28.894  45.243  55.364  1.00  0.00     0.019 A 
HETATM   17  C   UNL     1      28.230  44.617  54.282  1.00  0.00     0.027 A 
ENDBRANCH  11  12
ENDBRANCH   8  11
ENDBRANCH   3   7
BRANCH   1  18
HETATM   18  C   UNL     1      22.698  49.844  48.498  1.00  0.00     0.180 A 
HETATM   19  N   UNL     1      22.121  50.983  48.838  1.00  0.00    -0.226 NA
HETATM   20  C   UNL     1      20.847  50.884  48.326  1.00  0.00     0.063 A 
HETATM   21  C   UNL     1      19.871  51.981  48.487  1.00  0.00     0.073 C 
HETATM   22  C   UNL     1      20.698  49.667  47.697  1.00  0.00     0.076 A 
HETATM   23  O   UNL     1      21.882  48.994  47.799  1.00  0.00    -0.294 OA
HETATM   24  C   UNL     1      19.600  48.996  46.981  1.00  0.00     0.079 C 
ENDBRANCH   1  18
TORSDOF 4
ENDMDL
MODEL 6
REMARK VINA RESULT:      -7.9      2.676      5.411
REMARK  4 active torsions:
REMARK  status: ('A' for Active; 'I' for Inactive)
REMARK    1  A    between atoms: C_4  and  C_5 
REMARK    2  A    between atoms: C_7  and  N_8 
REMARK       I    between atoms: N_8  and  C_9 
REMARK    3  A    between atoms: C_9  and  C_10 
REMARK    4  A    between atoms: C_10  and  C_11 
ROOT
HETATM    1  C   UNL     1      28.805  43.032  53.621  1.00  0.00     0.019 A 
HETATM    2  C   UNL     1      27.799  43.686  52.887  1.00  0.00     0.045 A 
HETATM    3  C   UNL     1      27.181  43.064  51.798  1.00  0.00     0.035 A 
HETATM    4  C   UNL     1      27.579  41.768  51.441  1.00  0.00     0.029 A 
HETATM    5  C   UNL     1      28.573  41.105  52.161  1.00  0.00     0.003 A 
HETATM    6  C   UNL     1      29.182  41.735  53.243  1.00  0.00     0.016 A 
ENDROOT
BRANCH   3   7
HETATM    7  N   UNL     1      26.169  43.655  51.011  1.00  0.00    -0.327 N 
HETATM    8  C   UNL     1      24.990  44.251  51.444  1.00  0.00     0.227 C 
HETATM    9  O   UNL     1      24.614  44.333  52.611  1.00  0.00    -0.273 OA
HETATM   10  H   UNL     1      26.322  43.626  50.011  1.00  0.00     0.169 HD
BRANCH   8  11
HETATM   11  C   UNL     1      24.139  44.753  50.272  1.00  0.00     0.159 C 
BRANCH  11  12
HETATM   12  C   UNL     1      24.334  46.204  49.949  1.00  0.00     0.017 A 
HETATM   13  N   UNL     1      23.311  47.026  49.530  1.00  0.00    -0.369 N 
HETATM   14  H   UNL     1      22.341  46.733  49.444  1.00  0.00     0.165 HD
HETATM   15  C   UNL     1      23.796  48.281  49.283  1.00  0.00     0.088 A 
HETATM   16  C   UNL     1      25.147  48.274  49.542  1.00  0.00     0.019 A 
HETATM   17  C   UNL     1      25.488  46.967  49.961  1.00  0.00     0.027 A 
ENDBRANCH  11  12
ENDBRANCH   8  11
ENDBRANCH   3   7
BRANCH   1  18
HETATM   18  C   UNL     1      29.473  43.663  54.758  1.00  0.00     0.180 A 
HETATM   19  N   UNL     1      29.196  44.810  55.353  1.00  0.00    -0.226 NA
HETATM   20  C   UNL     1      30.133  44.907  56.356  1.00  0.00     0.063 A 
HETATM   21  C   UNL     1      30.155  46.065  57.273  1.00  0.00     0.073 C 
HETATM   22  C   UNL     1      30.959  43.804  56.322  1.00  0.00     0.076 A 
HETATM   23  O   UNL     1      30.541  42.999  55.302  1.00  0.00    -0.294 OA
HETATM   24  C   UNL     1      32.115  43.348  57.111  1.00  0.00     0.079 C 
ENDBRANCH   1  18
TORSDOF 4
ENDMDL
MODEL 7
REMARK VINA RESULT:      -7.8      3.749      7.403
REMARK  4 active torsions:
REMARK  status: ('A' for Active; 'I' for Inactive)
REMARK    1  A    between atoms: C_4  and  C_5 
REMARK    2  A    between atoms: C_7  and  N_8 
REMARK       I    between atoms: N_8  and  C_9 
REMARK    3  A    between atoms: C_9  and  C_10 
REMARK    4  A    between atoms: C_10  and  C_11 
ROOT
HETATM    1  C   UNL     1      25.308  46.028  50.425  1.00  0.00     0.019 A 
HETATM    2  C   UNL     1      26.511  45.607  51.022  1.00  0.00     0.045 A 
HETATM    3  C   UNL     1      26.609  44.358  51.643  1.00  0.00     0.035 A 
HETATM    4  C   UNL     1      25.486  43.521  51.665  1.00  0.00     0.029 A 
HETATM    5  C   UNL     1      24.288  43.921  51.073  1.00  0.00     0.003 A 
HETATM    6  C   UNL     1      24.201  45.167  50.459  1.00  0.00     0.016 A 
ENDROOT
BRANCH   3   7
HETATM    7  N   UNL     1      27.777  43.869  52.267  1.00  0.00    -0.327 N 
HETATM    8  C   UNL     1      27.913  43.385  53.563  1.00  0.00     0.227 C 
HETATM    9  O   UNL     1      27.022  43.334  54.407  1.00  0.00    -0.273 OA
HETATM   10  H   UNL     1      28.614  43.888  51.699  1.00  0.00     0.169 HD
BRANCH   8  11
HETATM   11  C   UNL     1      29.357  42.970  53.870  1.00  0.00     0.159 C 
BRANCH  11  12
HETATM   12  C   UNL     1      29.951  43.652  55.066  1.00  0.00     0.017 A 
HETATM   13  N   UNL     1      29.536  44.889  55.509  1.00  0.00    -0.369 N 
HETATM   14  H   UNL     1      28.776  45.420  55.093  1.00  0.00     0.165 HD
HETATM   15  C   UNL     1      30.279  45.265  56.596  1.00  0.00     0.088 A 
HETATM   16  C   UNL     1      31.184  44.264  56.859  1.00  0.00     0.019 A 
HETATM   17  C   UNL     1      30.980  43.247  55.896  1.00  0.00     0.027 A 
ENDBRANCH  11  12
ENDBRANCH   8  11
ENDBRANCH   3   7
BRANCH   1  18
HETATM   18  C   UNL     1      25.176  47.331  49.777  1.00  0.00     0.180 A 
HETATM   19  N   UNL     1      24.079  47.976  49.423  1.00  0.00    -0.226 NA
HETATM   20  C   UNL     1      24.537  49.147  48.864  1.00  0.00     0.063 A 
HETATM   21  C   UNL     1      23.602  50.165  48.344  1.00  0.00     0.073 C 
HETATM   22  C   UNL     1      25.916  49.160  48.892  1.00  0.00     0.076 A 
HETATM   23  O   UNL     1      26.334  48.001  49.480  1.00  0.00    -0.294 OA
HETATM   24  C   UNL     1      26.953  50.108  48.455  1.00  0.00     0.079 C 
ENDBRANCH   1  18
TORSDOF 4
ENDMDL
MODEL 8
REMARK VINA RESULT:      -7.5      4.182      8.122
REMARK  4 active torsions:
REMARK  status: ('A' for Active; 'I' for Inactive)
REMARK    1  A    between atoms: C_4  and  C_5 
REMARK    2  A    between atoms: C_7  and  N_8 
REMARK       I    between atoms: N_8  and  C_9 
REMARK    3  A    between atoms: C_9  and  C_10 
REMARK    4  A    between atoms: C_10  and  C_11 
ROOT
HETATM    1  C   UNL     1      25.026  46.383  51.148  1.00  0.00     0.019 A 
HETATM    2  C   UNL     1      25.936  46.748  52.157  1.00  0.00     0.045 A 
HETATM    3  C   UNL     1      26.360  45.821  53.115  1.00  0.00     0.035 A 
HETATM    4  C   UNL     1      25.862  44.512  53.059  1.00  0.00     0.029 A 
HETATM    5  C   UNL     1      24.963  44.133  52.063  1.00  0.00     0.003 A 
HETATM    6  C   UNL     1      24.547  45.065  51.115  1.00  0.00     0.016 A 
ENDROOT
BRANCH   3   7
HETATM    7  N   UNL     1      27.265  46.111  54.158  1.00  0.00    -0.327 N 
HETATM    8  C   UNL     1      28.427  45.427  54.495  1.00  0.00     0.227 C 
HETATM    9  O   UNL     1      28.847  44.413  53.944  1.00  0.00    -0.273 OA
HETATM   10  H   UNL     1      27.025  46.909  54.733  1.00  0.00     0.169 HD
BRANCH   8  11
HETATM   11  C   UNL     1      29.122  46.045  55.714  1.00  0.00     0.159 C 
BRANCH  11  12
HETATM   12  C   UNL     1      30.116  45.141  56.378  1.00  0.00     0.017 A 
HETATM   13  N   UNL     1      30.510  45.290  57.690  1.00  0.00    -0.369 N 
HETATM   14  H   UNL     1      30.135  45.993  58.322  1.00  0.00     0.165 HD
HETATM   15  C   UNL     1      31.444  44.341  58.004  1.00  0.00     0.088 A 
HETATM   16  C   UNL     1      31.661  43.570  56.887  1.00  0.00     0.019 A 
HETATM   17  C   UNL     1      30.825  44.072  55.861  1.00  0.00     0.027 A 
ENDBRANCH  11  12
ENDBRANCH   8  11
ENDBRANCH   3   7
BRANCH   1  18
HETATM   18  C   UNL     1      24.560  47.334  50.140  1.00  0.00     0.180 A 
HETATM   19  N   UNL     1      25.147  48.432  49.700  1.00  0.00    -0.226 NA
HETATM   20  C   UNL     1      24.273  48.931  48.761  1.00  0.00     0.063 A 
HETATM   21  C   UNL     1      24.575  50.170  48.016  1.00  0.00     0.073 C 
HETATM   22  C   UNL     1      23.170  48.109  48.677  1.00  0.00     0.076 A 
HETATM   23  O   UNL     1      23.347  47.079  49.555  1.00  0.00    -0.294 OA
HETATM   24  C   UNL     1      21.931  48.112  47.882  1.00  0.00     0.079 C 
ENDBRANCH   1  18
TORSDOF 4
ENDMDL
MODEL 9
REMARK VINA RESULT:      -7.5      3.360      4.570
REMARK  4 active torsions:
REMARK  status: ('A' for Active; 'I' for Inactive)
REMARK    1  A    between atoms: C_4  and  C_5 
REMARK    2  A    between atoms: C_7  and  N_8 
REMARK       I    between atoms: N_8  and  C_9 
REMARK    3  A    between atoms: C_9  and  C_10 
REMARK    4  A    between atoms: C_10  and  C_11 
ROOT
HETATM    1  C   UNL     1      27.908  45.651  54.433  1.00  0.00     0.019 A 
HETATM    2  C   UNL     1      27.507  44.807  53.382  1.00  0.00     0.045 A 
HETATM    3  C   UNL     1      26.473  45.177  52.515  1.00  0.00     0.035 A 
HETATM    4  C   UNL     1      25.834  46.409  52.708  1.00  0.00     0.029 A 
HETATM    5  C   UNL     1      26.223  47.259  53.743  1.00  0.00     0.003 A 
HETATM    6  C   UNL     1      27.252  46.880  54.600  1.00  0.00     0.016 A 
ENDROOT
BRANCH   3   7
HETATM    7  N   UNL     1      26.012  44.384  51.442  1.00  0.00    -0.327 N 
HETATM    8  C   UNL     1      26.494  44.347  50.139  1.00  0.00     0.227 C 
HETATM    9  O   UNL     1      27.404  45.041  49.691  1.00  0.00    -0.273 OA
HETATM   10  H   UNL     1      25.226  43.782  51.653  1.00  0.00     0.169 HD
BRANCH   8  11
HETATM   11  C   UNL     1      25.703  43.369  49.264  1.00  0.00     0.159 C 
BRANCH  11  12
HETATM   12  C   UNL     1      24.366  43.883  48.822  1.00  0.00     0.017 A 
HETATM   13  N   UNL     1      23.431  43.097  48.184  1.00  0.00    -0.369 N 
HETATM   14  H   UNL     1      23.551  42.105  47.997  1.00  0.00     0.165 HD
HETATM   15  C   UNL     1      22.328  43.846  47.877  1.00  0.00     0.088 A 
HETATM   16  C   UNL     1      22.548  45.129  48.318  1.00  0.00     0.019 A 
HETATM   17  C   UNL     1      23.832  45.155  48.913  1.00  0.00     0.027 A 
ENDBRANCH  11  12
ENDBRANCH   8  11
ENDBRANCH   3   7
BRANCH   1  18
HETATM   18  C   UNL     1      28.979  45.286  55.358  1.00  0.00     0.180 A 
HETATM   19  N   UNL     1      29.807  44.258  55.307  1.00  0.00    -0.226 NA
HETATM   20  C   UNL     1      30.603  44.406  56.420  1.00  0.00     0.063 A 
HETATM   21  C   UNL     1      31.684  43.445  56.722  1.00  0.00     0.073 C 
HETATM   22  C   UNL     1      30.212  45.529  57.118  1.00  0.00     0.076 A 
HETATM   23  O   UNL     1      29.174  46.102  56.442  1.00  0.00    -0.294 OA
HETATM   24  C   UNL     1      30.662  46.192  58.352  1.00  0.00     0.079 C 
ENDBRANCH   1  18
TORSDOF 4
ENDMDL
MODEL 10
REMARK VINA RESULT:      -7.4      6.107      9.218
REMARK  4 active torsions:
REMARK  status: ('A' for Active; 'I' for Inactive)
REMARK    1  A    between atoms: C_4  and  C_5 
REMARK    2  A    between atoms: C_7  and  N_8 
REMARK       I    between atoms: N_8  and  C_9 
REMARK    3  A    between atoms: C_9  and  C_10 
REMARK    4  A    between atoms: C_10  and  C_11 
ROOT
HETATM    1  C   UNL     1      24.177  49.085  48.768  1.00  0.00     0.019 A 
HETATM    2  C   UNL     1      24.491  48.080  49.701  1.00  0.00     0.045 A 
HETATM    3  C   UNL     1      25.818  47.812  50.051  1.00  0.00     0.035 A 
HETATM    4  C   UNL     1      26.842  48.562  49.458  1.00  0.00     0.029 A 
HETATM    5  C   UNL     1      26.547  49.565  48.534  1.00  0.00     0.003 A 
HETATM    6  C   UNL     1      25.222  49.822  48.191  1.00  0.00     0.016 A 
ENDROOT
BRANCH   3   7
HETATM    7  N   UNL     1      26.213  46.819  50.974  1.00  0.00    -0.327 N 
HETATM    8  C   UNL     1      25.972  46.781  52.342  1.00  0.00     0.227 C 
HETATM    9  O   UNL     1      25.388  47.644  52.992  1.00  0.00    -0.273 OA
HETATM   10  H   UNL     1      26.747  46.052  50.585  1.00  0.00     0.169 HD
BRANCH   8  11
HETATM   11  C   UNL     1      26.591  45.541  52.998  1.00  0.00     0.159 C 
BRANCH  11  12
HETATM   12  C   UNL     1      26.640  44.336  52.108  1.00  0.00     0.017 A 
HETATM   13  N   UNL     1      25.584  43.462  51.967  1.00  0.00    -0.369 N 
HETATM   14  H   UNL     1      24.680  43.580  52.416  1.00  0.00     0.165 HD
HETATM   15  C   UNL     1      25.934  42.447  51.117  1.00  0.00     0.088 A 
HETATM   16  C   UNL     1      27.228  42.662  50.706  1.00  0.00     0.019 A 
HETATM   17  C   UNL     1      27.675  43.851  51.329  1.00  0.00     0.027 A 
ENDBRANCH  11  12
ENDBRANCH   8  11
ENDBRANCH   3   7
BRANCH   1  18
HETATM   18  C   UNL     1      22.800  49.380  48.377  1.00  0.00     0.180 A 
HETATM   19  N   UNL     1      21.962  48.645  47.668  1.00  0.00    -0.226 NA
HETATM   20  C   UNL     1      20.813  49.401  47.609  1.00  0.00     0.063 A 
HETATM   21  C   UNL     1      19.612  48.915  46.899  1.00  0.00     0.073 C 
HETATM   22  C   UNL     1      21.008  50.586  48.286  1.00  0.00     0.076 A 
HETATM   23  O   UNL     1      22.278  50.580  48.785  1.00  0.00    -0.294 OA
HETATM   24  C   UNL     1      20.179  51.770  48.566  1.00  0.00     0.079 C 
ENDBRANCH   1  18
TORSDOF 4
ENDMDL
