MODEL 1
REMARK VINA RESULT:      -9.6      0.000      0.000
REMARK  6 active torsions:
REMARK  status: ('A' for Active; 'I' for Inactive)
REMARK    1  A    between atoms: O_2  and  C_3 
REMARK    2  A    between atoms: C_6  and  C_7 
REMARK    3  A    between atoms: N_9  and  C_10 
REMARK    4  A    between atoms: C_17  and  C_18 
REMARK       I    between atoms: C_18  and  N_19 
REMARK    5  A    between atoms: N_19  and  N_20 
REMARK       I    between atoms: N_20  and  C_21 
REMARK    6  A    between atoms: C_21  and  C_22 
ROOT
HETATM    1  C   UNL     1      27.214  44.515  53.054  1.00  0.00     0.105 A 
HETATM    2  N   UNL     1      28.149  44.008  53.882  1.00  0.00    -0.166 NA
HETATM    3  N   UNL     1      28.525  45.005  54.706  1.00  0.00    -0.244 N 
HETATM    4  C   UNL     1      27.843  46.159  54.424  1.00  0.00     0.138 A 
HETATM    5  C   UNL     1      26.992  45.894  53.364  1.00  0.00     0.082 A 
ENDROOT
BRANCH   5   6
HETATM    6  C   UNL     1      26.117  46.888  52.771  1.00  0.00     0.274 C 
HETATM    7  N   UNL     1      26.154  46.896  51.391  1.00  0.00    -0.263 N 
HETATM    8  H   UNL     1      26.806  46.331  50.849  1.00  0.00     0.190 HD
HETATM    9  O   UNL     1      25.401  47.649  53.414  1.00  0.00    -0.266 OA
BRANCH   7  10
HETATM   10  N   UNL     1      25.413  47.844  50.680  1.00  0.00    -0.262 N 
HETATM   11  C   UNL     1      24.318  47.412  49.961  1.00  0.00     0.286 C 
HETATM   12  O   UNL     1      24.007  46.222  49.919  1.00  0.00    -0.264 OA
HETATM   13  H   UNL     1      25.678  48.819  50.783  1.00  0.00     0.190 HD
BRANCH  11  14
HETATM   14  C   UNL     1      23.568  48.438  49.275  1.00  0.00     0.102 A 
HETATM   15  N   UNL     1      22.230  48.646  49.544  1.00  0.00    -0.361 N 
HETATM   16  H   UNL     1      21.703  48.108  50.222  1.00  0.00     0.165 HD
HETATM   17  C   UNL     1      21.743  49.668  48.775  1.00  0.00     0.088 A 
HETATM   18  C   UNL     1      22.772  50.129  47.988  1.00  0.00     0.019 A 
HETATM   19  C   UNL     1      23.919  49.358  48.299  1.00  0.00     0.036 A 
ENDBRANCH  11  14
ENDBRANCH   7  10
ENDBRANCH   5   6
BRANCH   1  20
HETATM   20  C   UNL     1      26.581  43.607  52.072  1.00  0.00    -0.004 A 
HETATM   21  C   UNL     1      25.179  43.599  51.940  1.00  0.00     0.016 A 
HETATM   22  C   UNL     1      24.526  42.799  50.992  1.00  0.00     0.037 A 
HETATM   23  C   UNL     1      25.265  41.975  50.151  1.00  0.00     0.068 A 
HETATM   24  C   UNL     1      26.652  41.954  50.281  1.00  0.00     0.037 A 
HETATM   25  C   UNL     1      27.305  42.770  51.218  1.00  0.00     0.016 A 
BRANCH  23  26
HETATM   26  O   UNL     1      24.761  41.153  49.182  1.00  0.00    -0.356 OA
HETATM   27  C   UNL     1      23.568  41.585  48.542  1.00  0.00     0.210 C 
ENDBRANCH  23  26
ENDBRANCH   1  20
BRANCH   3  28
HETATM   28  C   UNL     1      29.500  44.790  55.720  1.00  0.00     0.058 A 
HETATM   29  C   UNL     1      30.379  43.702  55.611  1.00  0.00     0.031 A 
HETATM   30  C   UNL     1      31.336  43.466  56.601  1.00  0.00     0.002 A 
HETATM   31  C   UNL     1      31.422  44.311  57.705  1.00  0.00     0.000 A 
HETATM   32  C   UNL     1      30.554  45.395  57.820  1.00  0.00     0.002 A 
HETATM   33  C   UNL     1      29.594  45.638  56.833  1.00  0.00     0.031 A 
ENDBRANCH   3  28
TORSDOF 6
ENDMDL
MODEL 2
REMARK VINA RESULT:      -9.5      1.619      2.143
REMARK  6 active torsions:
REMARK  status: ('A' for Active; 'I' for Inactive)
REMARK    1  A    between atoms: O_2  and  C_3 
REMARK    2  A    between atoms: C_6  and  C_7 
REMARK    3  A    between atoms: N_9  and  C_10 
REMARK    4  A    between atoms: C_17  and  C_18 
REMARK       I    between atoms: C_18  and  N_19 
REMARK    5  A    between atoms: N_19  and  N_20 
REMARK       I    between atoms: N_20  and  C_21 
REMARK    6  A    between atoms: C_21  and  C_22 
ROOT
HETATM    1  C   UNL     1      27.063  43.192  51.844  1.00  0.00     0.105 A 
HETATM    2  N   UNL     1      28.121  43.072  52.671  1.00  0.00    -0.166 NA
HETATM    3  N   UNL     1      28.043  44.084  53.556  1.00  0.00    -0.244 N 
HETATM    4  C   UNL     1      26.944  44.864  53.315  1.00  0.00     0.138 A 
HETATM    5  C   UNL     1      26.285  44.333  52.219  1.00  0.00     0.082 A 
ENDROOT
BRANCH   5   6
HETATM    6  C   UNL     1      25.078  44.907  51.653  1.00  0.00     0.274 C 
HETATM    7  N   UNL     1      25.317  46.015  50.865  1.00  0.00    -0.263 N 
HETATM    8  H   UNL     1      26.237  46.445  50.773  1.00  0.00     0.190 HD
HETATM    9  O   UNL     1      23.950  44.463  51.838  1.00  0.00    -0.266 OA
BRANCH   7  10
HETATM   10  N   UNL     1      24.245  46.715  50.304  1.00  0.00    -0.262 N 
HETATM   11  C   UNL     1      24.495  47.942  49.728  1.00  0.00     0.286 C 
HETATM   12  O   UNL     1      25.625  48.430  49.722  1.00  0.00    -0.264 OA
HETATM   13  H   UNL     1      23.340  46.252  50.289  1.00  0.00     0.190 HD
BRANCH  11  14
HETATM   14  C   UNL     1      23.358  48.604  49.133  1.00  0.00     0.102 A 
HETATM   15  N   UNL     1      22.071  48.321  49.543  1.00  0.00    -0.361 N 
HETATM   16  H   UNL     1      21.848  47.649  50.268  1.00  0.00     0.165 HD
HETATM   17  C   UNL     1      21.170  49.072  48.838  1.00  0.00     0.088 A 
HETATM   18  C   UNL     1      21.875  49.851  47.952  1.00  0.00     0.019 A 
HETATM   19  C   UNL     1      23.250  49.559  48.133  1.00  0.00     0.036 A 
ENDBRANCH  11  14
ENDBRANCH   7  10
ENDBRANCH   5   6
BRANCH   1  20
HETATM   20  C   UNL     1      26.870  42.163  50.798  1.00  0.00    -0.004 A 
HETATM   21  C   UNL     1      26.854  42.547  49.443  1.00  0.00     0.016 A 
HETATM   22  C   UNL     1      26.726  41.612  48.406  1.00  0.00     0.037 A 
HETATM   23  C   UNL     1      26.603  40.259  48.703  1.00  0.00     0.068 A 
HETATM   24  C   UNL     1      26.596  39.862  50.038  1.00  0.00     0.037 A 
HETATM   25  C   UNL     1      26.743  40.798  51.073  1.00  0.00     0.016 A 
BRANCH  23  26
HETATM   26  O   UNL     1      26.479  39.244  47.796  1.00  0.00    -0.356 OA
HETATM   27  C   UNL     1      27.581  39.037  46.921  1.00  0.00     0.210 C 
ENDBRANCH  23  26
ENDBRANCH   1  20
BRANCH   3  28
HETATM   28  C   UNL     1      29.015  44.233  54.585  1.00  0.00     0.058 A 
HETATM   29  C   UNL     1      29.952  43.211  54.801  1.00  0.00     0.031 A 
HETATM   30  C   UNL     1      30.907  43.332  55.813  1.00  0.00     0.002 A 
HETATM   31  C   UNL     1      30.934  44.471  56.616  1.00  0.00     0.000 A 
HETATM   32  C   UNL     1      30.008  45.491  56.407  1.00  0.00     0.002 A 
HETATM   33  C   UNL     1      29.049  45.377  55.396  1.00  0.00     0.031 A 
ENDBRANCH   3  28
TORSDOF 6
ENDMDL
MODEL 3
REMARK VINA RESULT:      -9.4      2.419      5.885
REMARK  6 active torsions:
REMARK  status: ('A' for Active; 'I' for Inactive)
REMARK    1  A    between atoms: O_2  and  C_3 
REMARK    2  A    between atoms: C_6  and  C_7 
REMARK    3  A    between atoms: N_9  and  C_10 
REMARK    4  A    between atoms: C_17  and  C_18 
REMARK       I    between atoms: C_18  and  N_19 
REMARK    5  A    between atoms: N_19  and  N_20 
REMARK       I    between atoms: N_20  and  C_21 
REMARK    6  A    between atoms: C_21  and  C_22 
ROOT
HETATM    1  C   UNL     1      27.496  43.344  51.659  1.00  0.00     0.105 A 
HETATM    2  N   UNL     1      27.737  42.019  51.707  1.00  0.00    -0.166 NA
HETATM    3  N   UNL     1      27.472  41.528  50.482  1.00  0.00    -0.244 N 
HETATM    4  C   UNL     1      27.060  42.520  49.633  1.00  0.00     0.138 A 
HETATM    5  C   UNL     1      27.054  43.707  50.347  1.00  0.00     0.082 A 
ENDROOT
BRANCH   5   6
HETATM    6  C   UNL     1      26.652  44.981  49.781  1.00  0.00     0.274 C 
HETATM    7  N   UNL     1      25.293  45.211  49.861  1.00  0.00    -0.263 N 
HETATM    8  H   UNL     1      24.629  44.512  50.192  1.00  0.00     0.190 HD
HETATM    9  O   UNL     1      27.428  45.791  49.284  1.00  0.00    -0.266 OA
BRANCH   7  10
HETATM   10  N   UNL     1      24.749  46.369  49.299  1.00  0.00    -0.262 N 
HETATM   11  C   UNL     1      24.558  47.464  50.115  1.00  0.00     0.286 C 
HETATM   12  O   UNL     1      24.833  47.427  51.314  1.00  0.00    -0.264 OA
HETATM   13  H   UNL     1      24.582  46.370  48.297  1.00  0.00     0.190 HD
BRANCH  11  14
HETATM   14  C   UNL     1      24.026  48.644  49.474  1.00  0.00     0.102 A 
HETATM   15  N   UNL     1      22.746  49.086  49.739  1.00  0.00    -0.361 N 
HETATM   16  H   UNL     1      22.114  48.623  50.383  1.00  0.00     0.165 HD
HETATM   17  C   UNL     1      22.473  50.217  49.017  1.00  0.00     0.088 A 
HETATM   18  C   UNL     1      23.585  50.514  48.267  1.00  0.00     0.019 A 
HETATM   19  C   UNL     1      24.563  49.528  48.550  1.00  0.00     0.036 A 
ENDBRANCH  11  14
ENDBRANCH   7  10
ENDBRANCH   5   6
BRANCH   1  20
HETATM   20  C   UNL     1      27.764  44.151  52.870  1.00  0.00    -0.004 A 
HETATM   21  C   UNL     1      26.878  45.187  53.223  1.00  0.00     0.016 A 
HETATM   22  C   UNL     1      27.053  45.951  54.386  1.00  0.00     0.037 A 
HETATM   23  C   UNL     1      28.130  45.699  55.228  1.00  0.00     0.068 A 
HETATM   24  C   UNL     1      29.029  44.691  54.884  1.00  0.00     0.037 A 
HETATM   25  C   UNL     1      28.842  43.916  53.730  1.00  0.00     0.016 A 
BRANCH  23  26
HETATM   26  O   UNL     1      28.415  46.358  56.391  1.00  0.00    -0.356 OA
HETATM   27  C   UNL     1      29.562  45.917  57.105  1.00  0.00     0.210 C 
ENDBRANCH  23  26
ENDBRANCH   1  20
BRANCH   3  28
HETATM   28  C   UNL     1      27.644  40.145  50.195  1.00  0.00     0.058 A 
HETATM   29  C   UNL     1      28.881  39.536  50.453  1.00  0.00     0.031 A 
HETATM   30  C   UNL     1      29.075  38.182  50.168  1.00  0.00     0.002 A 
HETATM   31  C   UNL     1      28.037  37.427  49.625  1.00  0.00     0.000 A 
HETATM   32  C   UNL     1      26.804  38.023  49.368  1.00  0.00     0.002 A 
HETATM   33  C   UNL     1      26.603  39.378  49.651  1.00  0.00     0.031 A 
ENDBRANCH   3  28
TORSDOF 6
ENDMDL
MODEL 4
REMARK VINA RESULT:      -9.4      2.407      8.646
REMARK  6 active torsions:
REMARK  status: ('A' for Active; 'I' for Inactive)
REMARK    1  A    between atoms: O_2  and  C_3 
REMARK    2  A    between atoms: C_6  and  C_7 
REMARK    3  A    between atoms: N_9  and  C_10 
REMARK    4  A    between atoms: C_17  and  C_18 
REMARK       I    between atoms: C_18  and  N_19 
REMARK    5  A    between atoms: N_19  and  N_20 
REMARK       I    between atoms: N_20  and  C_21 
REMARK    6  A    between atoms: C_21  and  C_22 
ROOT
HETATM    1  C   UNL     1      25.543  46.404  51.783  1.00  0.00     0.105 A 
HETATM    2  N   UNL     1      25.121  47.567  51.249  1.00  0.00    -0.166 NA
HETATM    3  N   UNL     1      24.412  47.257  50.147  1.00  0.00    -0.244 N 
HETATM    4  C   UNL     1      24.365  45.902  49.957  1.00  0.00     0.138 A 
HETATM    5  C   UNL     1      25.085  45.310  50.982  1.00  0.00     0.082 A 
ENDROOT
BRANCH   5   6
HETATM    6  C   UNL     1      25.275  43.876  51.105  1.00  0.00     0.274 C 
HETATM    7  N   UNL     1      26.543  43.461  50.750  1.00  0.00    -0.263 N 
HETATM    8  H   UNL     1      27.241  44.085  50.346  1.00  0.00     0.190 HD
HETATM    9  O   UNL     1      24.411  43.096  51.491  1.00  0.00    -0.266 OA
BRANCH   7  10
HETATM   10  N   UNL     1      26.855  42.098  50.755  1.00  0.00    -0.262 N 
HETATM   11  C   UNL     1      27.259  41.516  49.571  1.00  0.00     0.286 C 
HETATM   12  O   UNL     1      27.323  42.164  48.526  1.00  0.00    -0.264 OA
HETATM   13  H   UNL     1      26.834  41.616  51.648  1.00  0.00     0.190 HD
BRANCH  11  14
HETATM   14  C   UNL     1      27.602  40.115  49.641  1.00  0.00     0.102 A 
HETATM   15  N   UNL     1      28.846  39.705  50.078  1.00  0.00    -0.361 N 
HETATM   16  H   UNL     1      29.577  40.343  50.369  1.00  0.00     0.165 HD
HETATM   17  C   UNL     1      28.931  38.339  50.058  1.00  0.00     0.088 A 
HETATM   18  C   UNL     1      27.732  37.850  49.596  1.00  0.00     0.019 A 
HETATM   19  C   UNL     1      26.895  38.963  49.333  1.00  0.00     0.036 A 
ENDBRANCH  11  14
ENDBRANCH   7  10
ENDBRANCH   5   6
BRANCH   1  20
HETATM   20  C   UNL     1      26.308  46.450  53.049  1.00  0.00    -0.004 A 
HETATM   21  C   UNL     1      26.124  47.533  53.931  1.00  0.00     0.016 A 
HETATM   22  C   UNL     1      26.781  47.606  55.167  1.00  0.00     0.037 A 
HETATM   23  C   UNL     1      27.650  46.591  55.552  1.00  0.00     0.068 A 
HETATM   24  C   UNL     1      27.860  45.522  54.685  1.00  0.00     0.037 A 
HETATM   25  C   UNL     1      27.187  45.442  53.456  1.00  0.00     0.016 A 
BRANCH  23  26
HETATM   26  O   UNL     1      28.347  46.531  56.727  1.00  0.00    -0.356 OA
HETATM   27  C   UNL     1      29.617  45.895  56.678  1.00  0.00     0.210 C 
ENDBRANCH  23  26
ENDBRANCH   1  20
BRANCH   3  28
HETATM   28  C   UNL     1      23.809  48.273  49.354  1.00  0.00     0.058 A 
HETATM   29  C   UNL     1      24.608  49.295  48.819  1.00  0.00     0.031 A 
HETATM   30  C   UNL     1      24.035  50.308  48.047  1.00  0.00     0.002 A 
HETATM   31  C   UNL     1      22.663  50.310  47.804  1.00  0.00     0.000 A 
HETATM   32  C   UNL     1      21.862  49.298  48.330  1.00  0.00     0.002 A 
HETATM   33  C   UNL     1      22.429  48.280  49.103  1.00  0.00     0.031 A 
ENDBRANCH   3  28
TORSDOF 6
ENDMDL
MODEL 5
REMARK VINA RESULT:      -9.2      3.223      6.484
REMARK  6 active torsions:
REMARK  status: ('A' for Active; 'I' for Inactive)
REMARK    1  A    between atoms: O_2  and  C_3 
REMARK    2  A    between atoms: C_6  and  C_7 
REMARK    3  A    between atoms: N_9  and  C_10 
REMARK    4  A    between atoms: C_17  and  C_18 
REMARK       I    between atoms: C_18  and  N_19 
REMARK    5  A    between atoms: N_19  and  N_20 
REMARK       I    between atoms: N_20  and  C_21 
REMARK    6  A    between atoms: C_21  and  C_22 
ROOT
HETATM    1  C   UNL     1      27.748  43.834  52.670  1.00  0.00     0.105 A 
HETATM    2  N   UNL     1      28.328  44.476  53.703  1.00  0.00    -0.166 NA
HETATM    3  N   UNL     1      29.117  43.581  54.327  1.00  0.00    -0.244 N 
HETATM    4  C   UNL     1      29.060  42.360  53.711  1.00  0.00     0.138 A 
HETATM    5  C   UNL     1      28.186  42.472  52.641  1.00  0.00     0.082 A 
ENDROOT
BRANCH   5   6
HETATM    6  C   UNL     1      27.854  41.369  51.759  1.00  0.00     0.274 C 
HETATM    7  N   UNL     1      28.946  40.864  51.080  1.00  0.00    -0.263 N 
HETATM    8  H   UNL     1      29.871  41.289  51.119  1.00  0.00     0.190 HD
HETATM    9  O   UNL     1      26.725  40.910  51.621  1.00  0.00    -0.266 OA
BRANCH   7  10
HETATM   10  N   UNL     1      28.771  39.840  50.145  1.00  0.00    -0.262 N 
HETATM   11  C   UNL     1      28.481  40.188  48.842  1.00  0.00     0.286 C 
HETATM   12  O   UNL     1      28.352  41.366  48.506  1.00  0.00    -0.264 OA
HETATM   13  H   UNL     1      28.933  38.887  50.457  1.00  0.00     0.190 HD
BRANCH  11  14
HETATM   14  C   UNL     1      28.345  39.093  47.911  1.00  0.00     0.102 A 
HETATM   15  N   UNL     1      27.619  39.231  46.745  1.00  0.00    -0.361 N 
HETATM   16  H   UNL     1      27.148  40.087  46.475  1.00  0.00     0.165 HD
HETATM   17  C   UNL     1      27.637  38.064  46.031  1.00  0.00     0.088 A 
HETATM   18  C   UNL     1      28.378  37.149  46.740  1.00  0.00     0.019 A 
HETATM   19  C   UNL     1      28.823  37.791  47.923  1.00  0.00     0.036 A 
ENDBRANCH  11  14
ENDBRANCH   7  10
ENDBRANCH   5   6
BRANCH   1  20
HETATM   20  C   UNL     1      26.863  44.607  51.771  1.00  0.00    -0.004 A 
HETATM   21  C   UNL     1      25.953  45.531  52.321  1.00  0.00     0.016 A 
HETATM   22  C   UNL     1      25.126  46.329  51.518  1.00  0.00     0.037 A 
HETATM   23  C   UNL     1      25.185  46.216  50.133  1.00  0.00     0.068 A 
HETATM   24  C   UNL     1      26.065  45.293  49.571  1.00  0.00     0.037 A 
HETATM   25  C   UNL     1      26.904  44.509  50.377  1.00  0.00     0.016 A 
BRANCH  23  26
HETATM   26  O   UNL     1      24.445  46.933  49.234  1.00  0.00    -0.356 OA
HETATM   27  C   UNL     1      23.838  48.123  49.720  1.00  0.00     0.210 C 
ENDBRANCH  23  26
ENDBRANCH   1  20
BRANCH   3  28
HETATM   28  C   UNL     1      29.890  43.953  55.463  1.00  0.00     0.058 A 
HETATM   29  C   UNL     1      30.880  43.079  55.939  1.00  0.00     0.031 A 
HETATM   30  C   UNL     1      31.642  43.420  57.059  1.00  0.00     0.002 A 
HETATM   31  C   UNL     1      31.424  44.632  57.710  1.00  0.00     0.000 A 
HETATM   32  C   UNL     1      30.445  45.506  57.243  1.00  0.00     0.002 A 
HETATM   33  C   UNL     1      29.678  45.172  56.122  1.00  0.00     0.031 A 
ENDBRANCH   3  28
TORSDOF 6
ENDMDL
MODEL 6
REMARK VINA RESULT:      -8.6      3.579      6.760
REMARK  6 active torsions:
REMARK  status: ('A' for Active; 'I' for Inactive)
REMARK    1  A    between atoms: O_2  and  C_3 
REMARK    2  A    between atoms: C_6  and  C_7 
REMARK    3  A    between atoms: N_9  and  C_10 
REMARK    4  A    between atoms: C_17  and  C_18 
REMARK       I    between atoms: C_18  and  N_19 
REMARK    5  A    between atoms: N_19  and  N_20 
REMARK       I    between atoms: N_20  and  C_21 
REMARK    6  A    between atoms: C_21  and  C_22 
ROOT
HETATM    1  C   UNL     1      26.715  43.265  51.926  1.00  0.00     0.105 A 
HETATM    2  N   UNL     1      27.249  44.022  52.905  1.00  0.00    -0.166 NA
HETATM    3  N   UNL     1      28.297  43.338  53.402  1.00  0.00    -0.244 N 
HETATM    4  C   UNL     1      28.454  42.141  52.756  1.00  0.00     0.138 A 
HETATM    5  C   UNL     1      27.455  42.046  51.801  1.00  0.00     0.082 A 
ENDROOT
BRANCH   5   6
HETATM    6  C   UNL     1      27.288  40.899  50.927  1.00  0.00     0.274 C 
HETATM    7  N   UNL     1      28.426  40.588  50.210  1.00  0.00    -0.263 N 
HETATM    8  H   UNL     1      29.265  41.167  50.217  1.00  0.00     0.190 HD
HETATM    9  O   UNL     1      26.251  40.252  50.828  1.00  0.00    -0.266 OA
BRANCH   7  10
HETATM   10  N   UNL     1      28.398  39.547  49.278  1.00  0.00    -0.262 N 
HETATM   11  C   UNL     1      28.331  39.870  47.938  1.00  0.00     0.286 C 
HETATM   12  O   UNL     1      28.273  41.041  47.563  1.00  0.00    -0.264 OA
HETATM   13  H   UNL     1      28.496  38.599  49.630  1.00  0.00     0.190 HD
BRANCH  11  14
HETATM   14  C   UNL     1      28.340  38.757  47.019  1.00  0.00     0.102 A 
HETATM   15  N   UNL     1      28.526  37.463  47.464  1.00  0.00    -0.361 N 
HETATM   16  H   UNL     1      28.664  37.219  48.438  1.00  0.00     0.165 HD
HETATM   17  C   UNL     1      28.492  36.588  46.412  1.00  0.00     0.088 A 
HETATM   18  C   UNL     1      28.289  37.318  45.265  1.00  0.00     0.019 A 
HETATM   19  C   UNL     1      28.194  38.681  45.642  1.00  0.00     0.036 A 
ENDBRANCH  11  14
ENDBRANCH   7  10
ENDBRANCH   5   6
BRANCH   1  20
HETATM   20  C   UNL     1      25.570  43.809  51.163  1.00  0.00    -0.004 A 
HETATM   21  C   UNL     1      25.667  45.091  50.588  1.00  0.00     0.016 A 
HETATM   22  C   UNL     1      24.635  45.638  49.813  1.00  0.00     0.037 A 
HETATM   23  C   UNL     1      23.469  44.912  49.596  1.00  0.00     0.068 A 
HETATM   24  C   UNL     1      23.347  43.650  50.173  1.00  0.00     0.037 A 
HETATM   25  C   UNL     1      24.388  43.097  50.934  1.00  0.00     0.016 A 
BRANCH  23  26
HETATM   26  O   UNL     1      22.393  45.319  48.858  1.00  0.00    -0.356 OA
HETATM   27  C   UNL     1      22.502  46.586  48.223  1.00  0.00     0.210 C 
ENDBRANCH  23  26
ENDBRANCH   1  20
BRANCH   3  28
HETATM   28  C   UNL     1      29.093  43.878  54.451  1.00  0.00     0.058 A 
HETATM   29  C   UNL     1      30.220  43.171  54.894  1.00  0.00     0.031 A 
HETATM   30  C   UNL     1      31.009  43.678  55.930  1.00  0.00     0.002 A 
HETATM   31  C   UNL     1      30.679  44.892  56.529  1.00  0.00     0.000 A 
HETATM   32  C   UNL     1      29.562  45.602  56.093  1.00  0.00     0.002 A 
HETATM   33  C   UNL     1      28.768  45.101  55.056  1.00  0.00     0.031 A 
ENDBRANCH   3  28
TORSDOF 6
ENDMDL
MODEL 7
REMARK VINA RESULT:      -8.5      2.692      6.624
REMARK  6 active torsions:
REMARK  status: ('A' for Active; 'I' for Inactive)
REMARK    1  A    between atoms: O_2  and  C_3 
REMARK    2  A    between atoms: C_6  and  C_7 
REMARK    3  A    between atoms: N_9  and  C_10 
REMARK    4  A    between atoms: C_17  and  C_18 
REMARK       I    between atoms: C_18  and  N_19 
REMARK    5  A    between atoms: N_19  and  N_20 
REMARK       I    between atoms: N_20  and  C_21 
REMARK    6  A    between atoms: C_21  and  C_22 
ROOT
HETATM    1  C   UNL     1      25.405  45.244  51.076  1.00  0.00     0.105 A 
HETATM    2  N   UNL     1      25.586  43.958  50.716  1.00  0.00    -0.166 NA
HETATM    3  N   UNL     1      25.001  43.803  49.513  1.00  0.00    -0.244 N 
HETATM    4  C   UNL     1      24.441  44.975  49.083  1.00  0.00     0.138 A 
HETATM    5  C   UNL     1      24.670  45.932  50.059  1.00  0.00     0.082 A 
ENDROOT
BRANCH   5   6
HETATM    6  C   UNL     1      24.203  47.302  49.963  1.00  0.00     0.274 C 
HETATM    7  N   UNL     1      22.847  47.402  49.718  1.00  0.00    -0.263 N 
HETATM    8  H   UNL     1      22.256  46.595  49.522  1.00  0.00     0.190 HD
HETATM    9  O   UNL     1      24.922  48.288  50.093  1.00  0.00    -0.266 OA
BRANCH   7  10
HETATM   10  N   UNL     1      22.264  48.660  49.536  1.00  0.00    -0.262 N 
HETATM   11  C   UNL     1      20.920  48.719  49.234  1.00  0.00     0.286 C 
HETATM   12  O   UNL     1      20.246  47.697  49.102  1.00  0.00    -0.264 OA
HETATM   13  H   UNL     1      22.847  49.475  49.702  1.00  0.00     0.190 HD
BRANCH  11  14
HETATM   14  C   UNL     1      20.363  50.043  49.092  1.00  0.00     0.102 A 
HETATM   15  N   UNL     1      19.450  50.537  50.003  1.00  0.00    -0.361 N 
HETATM   16  H   UNL     1      19.123  50.016  50.808  1.00  0.00     0.165 HD
HETATM   17  C   UNL     1      19.072  51.806  49.658  1.00  0.00     0.088 A 
HETATM   18  C   UNL     1      19.738  52.144  48.504  1.00  0.00     0.019 A 
HETATM   19  C   UNL     1      20.549  51.040  48.145  1.00  0.00     0.036 A 
ENDBRANCH  11  14
ENDBRANCH   7  10
ENDBRANCH   5   6
BRANCH   1  20
HETATM   20  C   UNL     1      26.004  45.707  52.347  1.00  0.00    -0.004 A 
HETATM   21  C   UNL     1      26.987  44.920  52.978  1.00  0.00     0.016 A 
HETATM   22  C   UNL     1      27.626  45.331  54.155  1.00  0.00     0.037 A 
HETATM   23  C   UNL     1      27.291  46.547  54.740  1.00  0.00     0.068 A 
HETATM   24  C   UNL     1      26.307  47.331  54.142  1.00  0.00     0.037 A 
HETATM   25  C   UNL     1      25.681  46.926  52.953  1.00  0.00     0.016 A 
BRANCH  23  26
HETATM   26  O   UNL     1      27.838  47.072  55.878  1.00  0.00    -0.356 OA
HETATM   27  C   UNL     1      28.733  46.232  56.596  1.00  0.00     0.210 C 
ENDBRANCH  23  26
ENDBRANCH   1  20
BRANCH   3  28
HETATM   28  C   UNL     1      25.029  42.548  48.842  1.00  0.00     0.058 A 
HETATM   29  C   UNL     1      26.212  41.793  48.840  1.00  0.00     0.031 A 
HETATM   30  C   UNL     1      26.264  40.564  48.178  1.00  0.00     0.002 A 
HETATM   31  C   UNL     1      25.139  40.080  47.515  1.00  0.00     0.000 A 
HETATM   32  C   UNL     1      23.959  40.821  47.513  1.00  0.00     0.002 A 
HETATM   33  C   UNL     1      23.899  42.053  48.174  1.00  0.00     0.031 A 
ENDBRANCH   3  28
TORSDOF 6
ENDMDL
MODEL 8
REMARK VINA RESULT:      -8.4      2.172      7.959
REMARK  6 active torsions:
REMARK  status: ('A' for Active; 'I' for Inactive)
REMARK    1  A    between atoms: O_2  and  C_3 
REMARK    2  A    between atoms: C_6  and  C_7 
REMARK    3  A    between atoms: N_9  and  C_10 
REMARK    4  A    between atoms: C_17  and  C_18 
REMARK       I    between atoms: C_18  and  N_19 
REMARK    5  A    between atoms: N_19  and  N_20 
REMARK       I    between atoms: N_20  and  C_21 
REMARK    6  A    between atoms: C_21  and  C_22 
ROOT
HETATM    1  C   UNL     1      26.048  43.813  50.754  1.00  0.00     0.105 A 
HETATM    2  N   UNL     1      25.297  44.415  49.811  1.00  0.00    -0.166 NA
HETATM    3  N   UNL     1      24.767  45.517  50.376  1.00  0.00    -0.244 N 
HETATM    4  C   UNL     1      25.167  45.642  51.679  1.00  0.00     0.138 A 
HETATM    5  C   UNL     1      25.988  44.565  51.971  1.00  0.00     0.082 A 
ENDROOT
BRANCH   5   6
HETATM    6  C   UNL     1      26.590  44.345  53.273  1.00  0.00     0.274 C 
HETATM    7  N   UNL     1      27.895  44.790  53.353  1.00  0.00    -0.263 N 
HETATM    8  H   UNL     1      28.414  45.142  52.550  1.00  0.00     0.190 HD
HETATM    9  O   UNL     1      26.012  43.827  54.223  1.00  0.00    -0.266 OA
BRANCH   7  10
HETATM   10  N   UNL     1      28.628  44.588  54.527  1.00  0.00    -0.262 N 
HETATM   11  C   UNL     1      29.001  45.693  55.262  1.00  0.00     0.286 C 
HETATM   12  O   UNL     1      28.725  46.834  54.892  1.00  0.00    -0.264 OA
HETATM   13  H   UNL     1      28.792  43.628  54.818  1.00  0.00     0.190 HD
BRANCH  11  14
HETATM   14  C   UNL     1      29.725  45.424  56.482  1.00  0.00     0.102 A 
HETATM   15  N   UNL     1      30.707  44.455  56.533  1.00  0.00    -0.361 N 
HETATM   16  H   UNL     1      30.976  43.887  55.738  1.00  0.00     0.165 HD
HETATM   17  C   UNL     1      31.246  44.389  57.789  1.00  0.00     0.088 A 
HETATM   18  C   UNL     1      30.606  45.320  58.571  1.00  0.00     0.019 A 
HETATM   19  C   UNL     1      29.648  45.972  57.755  1.00  0.00     0.036 A 
ENDBRANCH  11  14
ENDBRANCH   7  10
ENDBRANCH   5   6
BRANCH   1  20
HETATM   20  C   UNL     1      26.799  42.594  50.381  1.00  0.00    -0.004 A 
HETATM   21  C   UNL     1      26.894  42.227  49.024  1.00  0.00     0.016 A 
HETATM   22  C   UNL     1      27.634  41.113  48.606  1.00  0.00     0.037 A 
HETATM   23  C   UNL     1      28.298  40.328  49.543  1.00  0.00     0.068 A 
HETATM   24  C   UNL     1      28.198  40.664  50.891  1.00  0.00     0.037 A 
HETATM   25  C   UNL     1      27.472  41.790  51.306  1.00  0.00     0.016 A 
BRANCH  23  26
HETATM   26  O   UNL     1      29.058  39.224  49.274  1.00  0.00    -0.356 OA
HETATM   27  C   UNL     1      28.578  37.986  49.783  1.00  0.00     0.210 C 
ENDBRANCH  23  26
ENDBRANCH   1  20
BRANCH   3  28
HETATM   28  C   UNL     1      23.927  46.391  49.630  1.00  0.00     0.058 A 
HETATM   29  C   UNL     1      22.992  45.849  48.735  1.00  0.00     0.031 A 
HETATM   30  C   UNL     1      22.165  46.689  47.985  1.00  0.00     0.002 A 
HETATM   31  C   UNL     1      22.264  48.072  48.123  1.00  0.00     0.000 A 
HETATM   32  C   UNL     1      23.189  48.618  49.011  1.00  0.00     0.002 A 
HETATM   33  C   UNL     1      24.020  47.784  49.766  1.00  0.00     0.031 A 
ENDBRANCH   3  28
TORSDOF 6
ENDMDL
MODEL 9
REMARK VINA RESULT:      -8.2      5.884      9.729
REMARK  6 active torsions:
REMARK  status: ('A' for Active; 'I' for Inactive)
REMARK    1  A    between atoms: O_2  and  C_3 
REMARK    2  A    between atoms: C_6  and  C_7 
REMARK    3  A    between atoms: N_9  and  C_10 
REMARK    4  A    between atoms: C_17  and  C_18 
REMARK       I    between atoms: C_18  and  N_19 
REMARK    5  A    between atoms: N_19  and  N_20 
REMARK       I    between atoms: N_20  and  C_21 
REMARK    6  A    between atoms: C_21  and  C_22 
ROOT
HETATM    1  C   UNL     1      21.354  49.297  48.845  1.00  0.00     0.105 A 
HETATM    2  N   UNL     1      22.610  49.711  49.105  1.00  0.00    -0.166 NA
HETATM    3  N   UNL     1      23.429  48.683  48.812  1.00  0.00    -0.244 N 
HETATM    4  C   UNL     1      22.721  47.602  48.361  1.00  0.00     0.138 A 
HETATM    5  C   UNL     1      21.379  47.947  48.370  1.00  0.00     0.082 A 
ENDROOT
BRANCH   5   6
HETATM    6  C   UNL     1      20.316  47.043  47.973  1.00  0.00     0.274 C 
HETATM    7  N   UNL     1      20.064  47.057  46.616  1.00  0.00    -0.263 N 
HETATM    8  H   UNL     1      20.509  47.712  45.974  1.00  0.00     0.190 HD
HETATM    9  O   UNL     1      19.697  46.322  48.750  1.00  0.00    -0.266 OA
BRANCH   7  10
HETATM   10  N   UNL     1      19.022  46.285  46.094  1.00  0.00    -0.262 N 
HETATM   11  C   UNL     1      18.014  46.927  45.405  1.00  0.00     0.286 C 
HETATM   12  O   UNL     1      18.008  48.150  45.269  1.00  0.00    -0.264 OA
HETATM   13  H   UNL     1      19.094  45.276  46.189  1.00  0.00     0.190 HD
BRANCH  11  14
HETATM   14  C   UNL     1      16.983  46.077  44.857  1.00  0.00     0.102 A 
HETATM   15  N   UNL     1      15.853  46.611  44.271  1.00  0.00    -0.361 N 
HETATM   16  H   UNL     1      15.680  47.606  44.190  1.00  0.00     0.165 HD
HETATM   17  C   UNL     1      15.029  45.612  43.828  1.00  0.00     0.088 A 
HETATM   18  C   UNL     1      15.623  44.411  44.133  1.00  0.00     0.019 A 
HETATM   19  C   UNL     1      16.850  44.698  44.781  1.00  0.00     0.036 A 
ENDBRANCH  11  14
ENDBRANCH   7  10
ENDBRANCH   5   6
BRANCH   1  20
HETATM   20  C   UNL     1      20.246  50.260  49.029  1.00  0.00    -0.004 A 
HETATM   21  C   UNL     1      19.204  49.955  49.926  1.00  0.00     0.016 A 
HETATM   22  C   UNL     1      18.155  50.850  50.180  1.00  0.00     0.037 A 
HETATM   23  C   UNL     1      18.119  52.080  49.531  1.00  0.00     0.068 A 
HETATM   24  C   UNL     1      19.130  52.390  48.624  1.00  0.00     0.037 A 
HETATM   25  C   UNL     1      20.188  51.501  48.386  1.00  0.00     0.016 A 
BRANCH  23  26
HETATM   26  O   UNL     1      17.164  53.045  49.689  1.00  0.00    -0.356 OA
HETATM   27  C   UNL     1      15.811  52.618  49.604  1.00  0.00     0.210 C 
ENDBRANCH  23  26
ENDBRANCH   1  20
BRANCH   3  28
HETATM   28  C   UNL     1      24.839  48.805  48.964  1.00  0.00     0.058 A 
HETATM   29  C   UNL     1      25.516  49.847  48.312  1.00  0.00     0.031 A 
HETATM   30  C   UNL     1      26.901  49.978  48.440  1.00  0.00     0.002 A 
HETATM   31  C   UNL     1      27.619  49.072  49.217  1.00  0.00     0.000 A 
HETATM   32  C   UNL     1      26.955  48.035  49.869  1.00  0.00     0.002 A 
HETATM   33  C   UNL     1      25.569  47.898  49.747  1.00  0.00     0.031 A 
ENDBRANCH   3  28
TORSDOF 6
ENDMDL
MODEL 10
REMARK VINA RESULT:      -8.0      1.829      7.807
REMARK  6 active torsions:
REMARK  status: ('A' for Active; 'I' for Inactive)
REMARK    1  A    between atoms: O_2  and  C_3 
REMARK    2  A    between atoms: C_6  and  C_7 
REMARK    3  A    between atoms: N_9  and  C_10 
REMARK    4  A    between atoms: C_17  and  C_18 
REMARK       I    between atoms: C_18  and  N_19 
REMARK    5  A    between atoms: N_19  and  N_20 
REMARK       I    between atoms: N_20  and  C_21 
REMARK    6  A    between atoms: C_21  and  C_22 
ROOT
HETATM    1  C   UNL     1      25.131  45.071  49.951  1.00  0.00     0.105 A 
HETATM    2  N   UNL     1      24.388  45.929  49.224  1.00  0.00    -0.166 NA
HETATM    3  N   UNL     1      24.498  47.136  49.811  1.00  0.00    -0.244 N 
HETATM    4  C   UNL     1      25.307  47.075  50.914  1.00  0.00     0.138 A 
HETATM    5  C   UNL     1      25.734  45.764  51.048  1.00  0.00     0.082 A 
ENDROOT
BRANCH   5   6
HETATM    6  C   UNL     1      26.597  45.308  52.122  1.00  0.00     0.274 C 
HETATM    7  N   UNL     1      26.313  45.897  53.338  1.00  0.00    -0.263 N 
HETATM    8  H   UNL     1      25.635  46.649  53.448  1.00  0.00     0.190 HD
HETATM    9  O   UNL     1      27.489  44.477  51.985  1.00  0.00    -0.266 OA
BRANCH   7  10
HETATM   10  N   UNL     1      27.104  45.604  54.453  1.00  0.00    -0.262 N 
HETATM   11  C   UNL     1      27.914  46.600  54.959  1.00  0.00     0.286 C 
HETATM   12  O   UNL     1      27.965  47.713  54.436  1.00  0.00    -0.264 OA
HETATM   13  H   UNL     1      26.993  44.689  54.880  1.00  0.00     0.190 HD
BRANCH  11  14
HETATM   14  C   UNL     1      28.682  46.254  56.132  1.00  0.00     0.102 A 
HETATM   15  N   UNL     1      29.935  45.687  56.024  1.00  0.00    -0.361 N 
HETATM   16  H   UNL     1      30.385  45.482  55.139  1.00  0.00     0.165 HD
HETATM   17  C   UNL     1      30.461  45.453  57.266  1.00  0.00     0.088 A 
HETATM   18  C   UNL     1      29.539  45.866  58.197  1.00  0.00     0.019 A 
HETATM   19  C   UNL     1      28.419  46.369  57.489  1.00  0.00     0.036 A 
ENDBRANCH  11  14
ENDBRANCH   7  10
ENDBRANCH   5   6
BRANCH   1  20
HETATM   20  C   UNL     1      25.235  43.669  49.490  1.00  0.00    -0.004 A 
HETATM   21  C   UNL     1      26.504  43.119  49.223  1.00  0.00     0.016 A 
HETATM   22  C   UNL     1      26.669  41.783  48.833  1.00  0.00     0.037 A 
HETATM   23  C   UNL     1      25.558  40.958  48.693  1.00  0.00     0.068 A 
HETATM   24  C   UNL     1      24.293  41.489  48.934  1.00  0.00     0.037 A 
HETATM   25  C   UNL     1      24.132  42.822  49.342  1.00  0.00     0.016 A 
BRANCH  23  26
HETATM   26  O   UNL     1      25.574  39.640  48.329  1.00  0.00    -0.356 OA
HETATM   27  C   UNL     1      26.719  38.890  48.714  1.00  0.00     0.210 C 
ENDBRANCH  23  26
ENDBRANCH   1  20
BRANCH   3  28
HETATM   28  C   UNL     1      23.837  48.275  49.272  1.00  0.00     0.058 A 
HETATM   29  C   UNL     1      24.598  49.358  48.807  1.00  0.00     0.031 A 
HETATM   30  C   UNL     1      23.969  50.490  48.284  1.00  0.00     0.002 A 
HETATM   31  C   UNL     1      22.579  50.550  48.221  1.00  0.00     0.000 A 
HETATM   32  C   UNL     1      21.815  49.479  48.678  1.00  0.00     0.002 A 
HETATM   33  C   UNL     1      22.437  48.341  49.203  1.00  0.00     0.031 A 
ENDBRANCH   3  28
TORSDOF 6
ENDMDL
