MODEL 1
REMARK VINA RESULT:      -9.3      0.000      0.000
REMARK  3 active torsions:
REMARK  status: ('A' for Active; 'I' for Inactive)
REMARK    1  A    between atoms: C_3  and  N_4 
REMARK       I    between atoms: N_4  and  C_5 
REMARK    2  A    between atoms: C_5  and  C_6 
REMARK    3  A    between atoms: C_7  and  C_8 
ROOT
HETATM    1  C   UNL     1      26.562  42.873  52.379  1.00  0.00     0.062 C 
HETATM    2  C   UNL     1      25.340  43.688  51.933  1.00  0.00     0.199 C 
HETATM    3  N   UNL     1      24.637  42.997  50.857  1.00  0.00    -0.092 N 
HETATM    4  C   UNL     1      25.157  41.964  50.131  1.00  0.00     0.735 A 
HETATM    5  N   UNL     1      26.386  41.503  50.441  1.00  0.00    -0.191 N 
HETATM    6  N   UNL     1      23.380  43.255  50.466  1.00  0.00     0.012 NA
HETATM    7  N   UNL     1      23.167  42.411  49.460  1.00  0.00     0.033 NA
HETATM    8  N   UNL     1      24.267  41.601  49.241  1.00  0.00     0.030 NA
HETATM    9  C   UNL     1      27.065  41.883  51.597  1.00  0.00     0.037 C 
HETATM   10  C   UNL     1      28.356  41.147  51.859  1.00  0.00     0.070 C 
HETATM   11  H   UNL     1      26.753  40.709  49.919  1.00  0.00     0.184 HD
ENDROOT
BRANCH   1  12
HETATM   12  C   UNL     1      27.104  43.265  53.715  1.00  0.00     0.256 C 
HETATM   13  N   UNL     1      28.388  43.759  53.666  1.00  0.00    -0.323 N 
HETATM   14  H   UNL     1      28.900  43.569  52.815  1.00  0.00     0.169 HD
HETATM   15  O   UNL     1      26.473  42.985  54.724  1.00  0.00    -0.267 OA
BRANCH  13  16
HETATM   16  C   UNL     1      29.156  44.332  54.708  1.00  0.00     0.041 A 
HETATM   17  C   UNL     1      28.974  45.603  55.284  1.00  0.00    -0.035 A 
HETATM   18  C   UNL     1      27.954  46.616  54.843  1.00  0.00     0.050 C 
HETATM   19  C   UNL     1      29.828  46.000  56.336  1.00  0.00     0.009 A 
HETATM   20  C   UNL     1      30.876  45.191  56.770  1.00  0.00     0.001 A 
HETATM   21  C   UNL     1      31.092  43.966  56.161  1.00  0.00     0.002 A 
HETATM   22  C   UNL     1      30.242  43.544  55.138  1.00  0.00     0.030 A 
ENDBRANCH  13  16
ENDBRANCH   1  12
BRANCH   2  23
HETATM   23  C   UNL     1      25.683  45.096  51.478  1.00  0.00    -0.011 A 
HETATM   24  C   UNL     1      25.343  46.222  52.229  1.00  0.00     0.125 A 
HETATM   25  N   UNL     1      25.619  47.495  51.866  1.00  0.00    -0.272 NA
HETATM   26  C   UNL     1      26.269  47.664  50.696  1.00  0.00     0.116 A 
HETATM   27  C   UNL     1      26.660  46.621  49.876  1.00  0.00     0.020 A 
HETATM   28  C   UNL     1      26.362  45.320  50.274  1.00  0.00     0.012 A 
ENDBRANCH   2  23
TORSDOF 3
ENDMDL
MODEL 2
REMARK VINA RESULT:      -8.8      1.356      2.119
REMARK  3 active torsions:
REMARK  status: ('A' for Active; 'I' for Inactive)
REMARK    1  A    between atoms: C_3  and  N_4 
REMARK       I    between atoms: N_4  and  C_5 
REMARK    2  A    between atoms: C_5  and  C_6 
REMARK    3  A    between atoms: C_7  and  C_8 
ROOT
HETATM    1  C   UNL     1      25.272  43.685  51.546  1.00  0.00     0.062 C 
HETATM    2  C   UNL     1      24.307  44.713  50.942  1.00  0.00     0.199 C 
HETATM    3  N   UNL     1      23.536  44.108  49.860  1.00  0.00    -0.092 N 
HETATM    4  C   UNL     1      23.850  42.925  49.254  1.00  0.00     0.735 A 
HETATM    5  N   UNL     1      24.915  42.226  49.700  1.00  0.00    -0.191 N 
HETATM    6  N   UNL     1      22.403  44.609  49.347  1.00  0.00     0.012 NA
HETATM    7  N   UNL     1      22.068  43.751  48.387  1.00  0.00     0.033 NA
HETATM    8  N   UNL     1      22.962  42.697  48.319  1.00  0.00     0.030 NA
HETATM    9  C   UNL     1      25.584  42.542  50.880  1.00  0.00     0.037 C 
HETATM   10  C   UNL     1      26.648  41.559  51.302  1.00  0.00     0.070 C 
HETATM   11  H   UNL     1      25.121  41.328  49.267  1.00  0.00     0.184 HD
ENDROOT
BRANCH   1  12
HETATM   12  C   UNL     1      25.800  44.059  52.893  1.00  0.00     0.256 C 
HETATM   13  N   UNL     1      27.155  44.299  52.908  1.00  0.00    -0.323 N 
HETATM   14  H   UNL     1      27.671  43.959  52.108  1.00  0.00     0.169 HD
HETATM   15  O   UNL     1      25.068  43.971  53.868  1.00  0.00    -0.267 OA
BRANCH  13  16
HETATM   16  C   UNL     1      27.956  44.787  53.968  1.00  0.00     0.041 A 
HETATM   17  C   UNL     1      29.034  44.122  54.582  1.00  0.00    -0.035 A 
HETATM   18  C   UNL     1      29.489  42.726  54.256  1.00  0.00     0.050 C 
HETATM   19  C   UNL     1      29.736  44.779  55.616  1.00  0.00     0.009 A 
HETATM   20  C   UNL     1      29.351  46.035  56.077  1.00  0.00     0.001 A 
HETATM   21  C   UNL     1      28.253  46.664  55.513  1.00  0.00     0.002 A 
HETATM   22  C   UNL     1      27.561  46.043  54.471  1.00  0.00     0.030 A 
ENDBRANCH  13  16
ENDBRANCH   1  12
BRANCH   2  23
HETATM   23  C   UNL     1      24.998  45.962  50.422  1.00  0.00    -0.011 A 
HETATM   24  C   UNL     1      24.370  47.209  50.417  1.00  0.00     0.125 A 
HETATM   25  N   UNL     1      24.938  48.348  49.960  1.00  0.00    -0.272 NA
HETATM   26  C   UNL     1      26.195  48.249  49.482  1.00  0.00     0.116 A 
HETATM   27  C   UNL     1      26.912  47.067  49.445  1.00  0.00     0.020 A 
HETATM   28  C   UNL     1      26.304  45.909  49.922  1.00  0.00     0.012 A 
ENDBRANCH   2  23
TORSDOF 3
ENDMDL
MODEL 3
REMARK VINA RESULT:      -8.5      2.168      3.246
REMARK  3 active torsions:
REMARK  status: ('A' for Active; 'I' for Inactive)
REMARK    1  A    between atoms: C_3  and  N_4 
REMARK       I    between atoms: N_4  and  C_5 
REMARK    2  A    between atoms: C_5  and  C_6 
REMARK    3  A    between atoms: C_7  and  C_8 
ROOT
HETATM    1  C   UNL     1      27.643  42.622  52.699  1.00  0.00     0.062 C 
HETATM    2  C   UNL     1      26.467  42.184  51.817  1.00  0.00     0.199 C 
HETATM    3  N   UNL     1      26.822  40.990  51.057  1.00  0.00    -0.092 N 
HETATM    4  C   UNL     1      28.096  40.527  50.894  1.00  0.00     0.735 A 
HETATM    5  N   UNL     1      29.109  41.174  51.508  1.00  0.00    -0.191 N 
HETATM    6  N   UNL     1      25.947  40.172  50.453  1.00  0.00     0.012 NA
HETATM    7  N   UNL     1      26.707  39.245  49.876  1.00  0.00     0.033 NA
HETATM    8  N   UNL     1      28.048  39.455  50.143  1.00  0.00     0.030 NA
HETATM    9  C   UNL     1      28.901  42.162  52.467  1.00  0.00     0.037 C 
HETATM   10  C   UNL     1      30.145  42.663  53.159  1.00  0.00     0.070 C 
HETATM   11  H   UNL     1      30.052  40.801  51.411  1.00  0.00     0.184 HD
ENDROOT
BRANCH   1  12
HETATM   12  C   UNL     1      27.266  43.559  53.801  1.00  0.00     0.256 C 
HETATM   13  N   UNL     1      27.533  44.879  53.517  1.00  0.00    -0.323 N 
HETATM   14  H   UNL     1      28.165  45.044  52.745  1.00  0.00     0.169 HD
HETATM   15  O   UNL     1      26.921  43.105  54.881  1.00  0.00    -0.267 OA
BRANCH  13  16
HETATM   16  C   UNL     1      27.198  46.031  54.268  1.00  0.00     0.041 A 
HETATM   17  C   UNL     1      26.258  47.018  53.917  1.00  0.00    -0.035 A 
HETATM   18  C   UNL     1      25.480  47.055  52.631  1.00  0.00     0.050 C 
HETATM   19  C   UNL     1      26.038  48.092  54.807  1.00  0.00     0.009 A 
HETATM   20  C   UNL     1      26.767  48.225  55.986  1.00  0.00     0.001 A 
HETATM   21  C   UNL     1      27.734  47.285  56.302  1.00  0.00     0.002 A 
HETATM   22  C   UNL     1      27.949  46.202  55.448  1.00  0.00     0.030 A 
ENDBRANCH  13  16
ENDBRANCH   1  12
BRANCH   2  23
HETATM   23  C   UNL     1      25.995  43.263  50.856  1.00  0.00    -0.011 A 
HETATM   24  C   UNL     1      26.885  43.996  50.070  1.00  0.00     0.125 A 
HETATM   25  N   UNL     1      26.518  44.969  49.205  1.00  0.00    -0.272 NA
HETATM   26  C   UNL     1      25.198  45.230  49.112  1.00  0.00     0.116 A 
HETATM   27  C   UNL     1      24.229  44.561  49.839  1.00  0.00     0.020 A 
HETATM   28  C   UNL     1      24.635  43.565  50.721  1.00  0.00     0.012 A 
ENDBRANCH   2  23
TORSDOF 3
ENDMDL
MODEL 4
REMARK VINA RESULT:      -8.1     12.573     15.615
REMARK  3 active torsions:
REMARK  status: ('A' for Active; 'I' for Inactive)
REMARK    1  A    between atoms: C_3  and  N_4 
REMARK       I    between atoms: N_4  and  C_5 
REMARK    2  A    between atoms: C_5  and  C_6 
REMARK    3  A    between atoms: C_7  and  C_8 
ROOT
HETATM    1  C   UNL     1      31.546  49.583  40.458  1.00  0.00     0.062 C 
HETATM    2  C   UNL     1      31.930  50.639  39.414  1.00  0.00     0.199 C 
HETATM    3  N   UNL     1      33.083  51.409  39.872  1.00  0.00    -0.092 N 
HETATM    4  C   UNL     1      33.542  51.422  41.159  1.00  0.00     0.735 A 
HETATM    5  N   UNL     1      32.934  50.642  42.076  1.00  0.00    -0.191 N 
HETATM    6  N   UNL     1      33.863  52.169  39.091  1.00  0.00     0.012 NA
HETATM    7  N   UNL     1      34.760  52.688  39.925  1.00  0.00     0.033 NA
HETATM    8  N   UNL     1      34.571  52.230  41.216  1.00  0.00     0.030 NA
HETATM    9  C   UNL     1      31.998  49.667  41.737  1.00  0.00     0.037 C 
HETATM   10  C   UNL     1      31.541  48.787  42.874  1.00  0.00     0.070 C 
HETATM   11  H   UNL     1      33.305  50.630  43.025  1.00  0.00     0.184 HD
ENDROOT
BRANCH   1  12
HETATM   12  C   UNL     1      30.669  48.493  39.933  1.00  0.00     0.256 C 
HETATM   13  N   UNL     1      29.346  48.630  40.288  1.00  0.00    -0.323 N 
HETATM   14  H   UNL     1      29.158  49.273  41.046  1.00  0.00     0.169 HD
HETATM   15  O   UNL     1      31.178  47.522  39.394  1.00  0.00    -0.267 OA
BRANCH  13  16
HETATM   16  C   UNL     1      28.233  47.863  39.869  1.00  0.00     0.041 A 
HETATM   17  C   UNL     1      27.285  48.221  38.893  1.00  0.00    -0.035 A 
HETATM   18  C   UNL     1      27.252  49.533  38.158  1.00  0.00     0.050 C 
HETATM   19  C   UNL     1      26.248  47.313  38.588  1.00  0.00     0.009 A 
HETATM   20  C   UNL     1      26.111  46.106  39.270  1.00  0.00     0.001 A 
HETATM   21  C   UNL     1      27.010  45.781  40.272  1.00  0.00     0.002 A 
HETATM   22  C   UNL     1      28.057  46.654  40.570  1.00  0.00     0.030 A 
ENDBRANCH  13  16
ENDBRANCH   1  12
BRANCH   2  23
HETATM   23  C   UNL     1      30.799  51.595  39.074  1.00  0.00    -0.011 A 
HETATM   24  C   UNL     1      30.256  51.675  37.790  1.00  0.00     0.125 A 
HETATM   25  N   UNL     1      29.255  52.511  37.434  1.00  0.00    -0.272 NA
HETATM   26  C   UNL     1      28.762  53.312  38.401  1.00  0.00     0.116 A 
HETATM   27  C   UNL     1      29.220  53.312  39.707  1.00  0.00     0.020 A 
HETATM   28  C   UNL     1      30.251  52.441  40.045  1.00  0.00     0.012 A 
ENDBRANCH   2  23
TORSDOF 3
ENDMDL
MODEL 5
REMARK VINA RESULT:      -7.9      4.074      8.010
REMARK  3 active torsions:
REMARK  status: ('A' for Active; 'I' for Inactive)
REMARK    1  A    between atoms: C_3  and  N_4 
REMARK       I    between atoms: N_4  and  C_5 
REMARK    2  A    between atoms: C_5  and  C_6 
REMARK    3  A    between atoms: C_7  and  C_8 
ROOT
HETATM    1  C   UNL     1      24.417  46.479  50.072  1.00  0.00     0.062 C 
HETATM    2  C   UNL     1      24.006  45.225  50.856  1.00  0.00     0.199 C 
HETATM    3  N   UNL     1      24.907  45.018  51.986  1.00  0.00    -0.092 N 
HETATM    4  C   UNL     1      26.116  45.634  52.134  1.00  0.00     0.735 A 
HETATM    5  N   UNL     1      26.506  46.537  51.211  1.00  0.00    -0.191 N 
HETATM    6  N   UNL     1      24.652  44.229  53.040  1.00  0.00     0.012 NA
HETATM    7  N   UNL     1      25.741  44.329  53.797  1.00  0.00     0.033 NA
HETATM    8  N   UNL     1      26.661  45.202  53.244  1.00  0.00     0.030 NA
HETATM    9  C   UNL     1      25.650  47.028  50.227  1.00  0.00     0.037 C 
HETATM   10  C   UNL     1      26.211  48.145  49.382  1.00  0.00     0.070 C 
HETATM   11  H   UNL     1      27.392  47.020  51.348  1.00  0.00     0.184 HD
ENDROOT
BRANCH   1  12
HETATM   12  C   UNL     1      23.353  47.011  49.168  1.00  0.00     0.256 C 
HETATM   13  N   UNL     1      22.697  48.110  49.674  1.00  0.00    -0.323 N 
HETATM   14  H   UNL     1      22.815  48.274  50.665  1.00  0.00     0.169 HD
HETATM   15  O   UNL     1      23.040  46.375  48.172  1.00  0.00    -0.267 OA
BRANCH  13  16
HETATM   16  C   UNL     1      21.733  48.933  49.045  1.00  0.00     0.041 A 
HETATM   17  C   UNL     1      21.982  50.115  48.322  1.00  0.00    -0.035 A 
HETATM   18  C   UNL     1      23.331  50.755  48.145  1.00  0.00     0.050 C 
HETATM   19  C   UNL     1      20.891  50.797  47.741  1.00  0.00     0.009 A 
HETATM   20  C   UNL     1      19.580  50.361  47.916  1.00  0.00     0.001 A 
HETATM   21  C   UNL     1      19.331  49.231  48.678  1.00  0.00     0.002 A 
HETATM   22  C   UNL     1      20.398  48.528  49.239  1.00  0.00     0.030 A 
ENDBRANCH  13  16
ENDBRANCH   1  12
BRANCH   2  23
HETATM   23  C   UNL     1      23.973  43.964  50.009  1.00  0.00    -0.011 A 
HETATM   24  C   UNL     1      22.807  43.217  49.838  1.00  0.00     0.125 A 
HETATM   25  N   UNL     1      22.725  42.085  49.101  1.00  0.00    -0.272 NA
HETATM   26  C   UNL     1      23.860  41.671  48.500  1.00  0.00     0.116 A 
HETATM   27  C   UNL     1      25.068  42.337  48.597  1.00  0.00     0.020 A 
HETATM   28  C   UNL     1      25.123  43.499  49.361  1.00  0.00     0.012 A 
ENDBRANCH   2  23
TORSDOF 3
ENDMDL
MODEL 6
REMARK VINA RESULT:      -7.8     12.523     13.457
REMARK  3 active torsions:
REMARK  status: ('A' for Active; 'I' for Inactive)
REMARK    1  A    between atoms: C_3  and  N_4 
REMARK       I    between atoms: N_4  and  C_5 
REMARK    2  A    between atoms: C_5  and  C_6 
REMARK    3  A    between atoms: C_7  and  C_8 
ROOT
HETATM    1  C   UNL     1      29.806  48.814  41.015  1.00  0.00     0.062 C 
HETATM    2  C   UNL     1      28.515  49.643  41.003  1.00  0.00     0.199 C 
HETATM    3  N   UNL     1      27.489  48.971  40.211  1.00  0.00    -0.092 N 
HETATM    4  C   UNL     1      27.731  47.945  39.344  1.00  0.00     0.735 A 
HETATM    5  N   UNL     1      28.989  47.470  39.229  1.00  0.00    -0.191 N 
HETATM    6  N   UNL     1      26.177  49.244  40.257  1.00  0.00     0.012 NA
HETATM    7  N   UNL     1      25.636  48.414  39.369  1.00  0.00     0.033 NA
HETATM    8  N   UNL     1      26.594  47.599  38.793  1.00  0.00     0.030 NA
HETATM    9  C   UNL     1      30.014  47.831  40.100  1.00  0.00     0.037 C 
HETATM   10  C   UNL     1      31.311  47.082  39.917  1.00  0.00     0.070 C 
HETATM   11  H   UNL     1      29.154  46.680  38.607  1.00  0.00     0.184 HD
ENDROOT
BRANCH   1  12
HETATM   12  C   UNL     1      30.761  49.185  42.102  1.00  0.00     0.256 C 
HETATM   13  N   UNL     1      31.716  50.098  41.711  1.00  0.00    -0.323 N 
HETATM   14  H   UNL     1      31.828  50.216  40.713  1.00  0.00     0.169 HD
HETATM   15  O   UNL     1      30.738  48.568  43.156  1.00  0.00    -0.267 OA
BRANCH  13  16
HETATM   16  C   UNL     1      32.688  50.755  42.501  1.00  0.00     0.041 A 
HETATM   17  C   UNL     1      34.071  50.822  42.247  1.00  0.00    -0.035 A 
HETATM   18  C   UNL     1      34.777  50.139  41.108  1.00  0.00     0.050 C 
HETATM   19  C   UNL     1      34.890  51.546  43.140  1.00  0.00     0.009 A 
HETATM   20  C   UNL     1      34.372  52.142  44.288  1.00  0.00     0.001 A 
HETATM   21  C   UNL     1      33.020  52.025  44.568  1.00  0.00     0.002 A 
HETATM   22  C   UNL     1      32.189  51.335  43.684  1.00  0.00     0.030 A 
ENDBRANCH  13  16
ENDBRANCH   1  12
BRANCH   2  23
HETATM   23  C   UNL     1      28.705  51.055  40.473  1.00  0.00    -0.011 A 
HETATM   24  C   UNL     1      28.676  52.171  41.311  1.00  0.00     0.125 A 
HETATM   25  N   UNL     1      28.833  53.447  40.890  1.00  0.00    -0.272 NA
HETATM   26  C   UNL     1      29.032  53.629  39.568  1.00  0.00     0.116 A 
HETATM   27  C   UNL     1      29.085  52.595  38.650  1.00  0.00     0.020 A 
HETATM   28  C   UNL     1      28.920  51.292  39.111  1.00  0.00     0.012 A 
ENDBRANCH   2  23
TORSDOF 3
ENDMDL
MODEL 7
REMARK VINA RESULT:      -7.8      2.758      5.231
REMARK  3 active torsions:
REMARK  status: ('A' for Active; 'I' for Inactive)
REMARK    1  A    between atoms: C_3  and  N_4 
REMARK       I    between atoms: N_4  and  C_5 
REMARK    2  A    between atoms: C_5  and  C_6 
REMARK    3  A    between atoms: C_7  and  C_8 
ROOT
HETATM    1  C   UNL     1      27.273  41.527  50.629  1.00  0.00     0.062 C 
HETATM    2  C   UNL     1      28.306  40.822  49.740  1.00  0.00     0.199 C 
HETATM    3  N   UNL     1      27.966  40.999  48.331  1.00  0.00    -0.092 N 
HETATM    4  C   UNL     1      26.753  41.431  47.877  1.00  0.00     0.735 A 
HETATM    5  N   UNL     1      25.803  41.767  48.773  1.00  0.00    -0.191 N 
HETATM    6  N   UNL     1      28.806  40.801  47.304  1.00  0.00     0.012 NA
HETATM    7  N   UNL     1      28.073  41.060  46.225  1.00  0.00     0.033 NA
HETATM    8  N   UNL     1      26.792  41.453  46.567  1.00  0.00     0.030 NA
HETATM    9  C   UNL     1      26.063  41.898  50.135  1.00  0.00     0.037 C 
HETATM   10  C   UNL     1      24.920  42.433  50.963  1.00  0.00     0.070 C 
HETATM   11  H   UNL     1      24.913  42.123  48.426  1.00  0.00     0.184 HD
ENDROOT
BRANCH   1  12
HETATM   12  C   UNL     1      27.731  41.760  52.032  1.00  0.00     0.256 C 
HETATM   13  N   UNL     1      28.463  42.916  52.189  1.00  0.00    -0.323 N 
HETATM   14  H   UNL     1      28.820  43.329  51.337  1.00  0.00     0.169 HD
HETATM   15  O   UNL     1      27.579  40.881  52.866  1.00  0.00    -0.267 OA
BRANCH  13  16
HETATM   16  C   UNL     1      28.942  43.505  53.383  1.00  0.00     0.041 A 
HETATM   17  C   UNL     1      28.363  44.583  54.078  1.00  0.00    -0.035 A 
HETATM   18  C   UNL     1      27.150  45.351  53.631  1.00  0.00     0.050 C 
HETATM   19  C   UNL     1      28.973  45.025  55.273  1.00  0.00     0.009 A 
HETATM   20  C   UNL     1      30.157  44.460  55.741  1.00  0.00     0.001 A 
HETATM   21  C   UNL     1      30.758  43.439  55.023  1.00  0.00     0.002 A 
HETATM   22  C   UNL     1      30.157  42.971  53.854  1.00  0.00     0.030 A 
ENDBRANCH  13  16
ENDBRANCH   1  12
BRANCH   2  23
HETATM   23  C   UNL     1      28.446  39.337  50.033  1.00  0.00    -0.011 A 
HETATM   24  C   UNL     1      29.556  38.816  50.700  1.00  0.00     0.125 A 
HETATM   25  N   UNL     1      29.732  37.504  50.980  1.00  0.00    -0.272 NA
HETATM   26  C   UNL     1      28.757  36.663  50.579  1.00  0.00     0.116 A 
HETATM   27  C   UNL     1      27.613  37.072  49.917  1.00  0.00     0.020 A 
HETATM   28  C   UNL     1      27.457  38.427  49.642  1.00  0.00     0.012 A 
ENDBRANCH   2  23
TORSDOF 3
ENDMDL
MODEL 8
REMARK VINA RESULT:      -7.7      2.747      5.165
REMARK  3 active torsions:
REMARK  status: ('A' for Active; 'I' for Inactive)
REMARK    1  A    between atoms: C_3  and  N_4 
REMARK       I    between atoms: N_4  and  C_5 
REMARK    2  A    between atoms: C_5  and  C_6 
REMARK    3  A    between atoms: C_7  and  C_8 
ROOT
HETATM    1  C   UNL     1      25.976  42.260  49.300  1.00  0.00     0.062 C 
HETATM    2  C   UNL     1      26.676  41.466  48.190  1.00  0.00     0.199 C 
HETATM    3  N   UNL     1      25.722  41.108  47.145  1.00  0.00    -0.092 N 
HETATM    4  C   UNL     1      24.365  41.170  47.284  1.00  0.00     0.735 A 
HETATM    5  N   UNL     1      23.847  41.637  48.439  1.00  0.00    -0.191 N 
HETATM    6  N   UNL     1      26.047  40.709  45.907  1.00  0.00     0.012 NA
HETATM    7  N   UNL     1      24.877  40.476  45.318  1.00  0.00     0.033 NA
HETATM    8  N   UNL     1      23.821  40.759  46.165  1.00  0.00     0.030 NA
HETATM    9  C   UNL     1      24.623  42.254  49.418  1.00  0.00     0.037 C 
HETATM   10  C   UNL     1      23.853  42.853  50.569  1.00  0.00     0.070 C 
HETATM   11  H   UNL     1      22.835  41.715  48.520  1.00  0.00     0.184 HD
ENDROOT
BRANCH   1  12
HETATM   12  C   UNL     1      26.907  43.017  50.191  1.00  0.00     0.256 C 
HETATM   13  N   UNL     1      27.037  42.468  51.447  1.00  0.00    -0.323 N 
HETATM   14  H   UNL     1      26.326  41.798  51.710  1.00  0.00     0.169 HD
HETATM   15  O   UNL     1      27.338  44.100  49.826  1.00  0.00    -0.267 OA
BRANCH  13  16
HETATM   16  C   UNL     1      27.915  42.844  52.491  1.00  0.00     0.041 A 
HETATM   17  C   UNL     1      27.614  43.683  53.581  1.00  0.00    -0.035 A 
HETATM   18  C   UNL     1      26.304  44.389  53.793  1.00  0.00     0.050 C 
HETATM   19  C   UNL     1      28.616  43.931  54.543  1.00  0.00     0.009 A 
HETATM   20  C   UNL     1      29.903  43.415  54.408  1.00  0.00     0.001 A 
HETATM   21  C   UNL     1      30.215  42.638  53.304  1.00  0.00     0.002 A 
HETATM   22  C   UNL     1      29.231  42.360  52.354  1.00  0.00     0.030 A 
ENDBRANCH  13  16
ENDBRANCH   1  12
BRANCH   2  23
HETATM   23  C   UNL     1      27.365  40.205  48.687  1.00  0.00    -0.011 A 
HETATM   24  C   UNL     1      28.752  40.061  48.664  1.00  0.00     0.125 A 
HETATM   25  N   UNL     1      29.413  38.960  49.088  1.00  0.00    -0.272 NA
HETATM   26  C   UNL     1      28.660  37.946  49.562  1.00  0.00     0.116 A 
HETATM   27  C   UNL     1      27.279  37.984  49.635  1.00  0.00     0.020 A 
HETATM   28  C   UNL     1      26.625  39.130  49.192  1.00  0.00     0.012 A 
ENDBRANCH   2  23
TORSDOF 3
ENDMDL
MODEL 9
REMARK VINA RESULT:      -7.5      8.687     12.015
REMARK  3 active torsions:
REMARK  status: ('A' for Active; 'I' for Inactive)
REMARK    1  A    between atoms: C_3  and  N_4 
REMARK       I    between atoms: N_4  and  C_5 
REMARK    2  A    between atoms: C_5  and  C_6 
REMARK    3  A    between atoms: C_7  and  C_8 
ROOT
HETATM    1  C   UNL     1      20.259  48.003  47.601  1.00  0.00     0.062 C 
HETATM    2  C   UNL     1      20.793  49.435  47.730  1.00  0.00     0.199 C 
HETATM    3  N   UNL     1      22.096  49.432  48.387  1.00  0.00    -0.092 N 
HETATM    4  C   UNL     1      22.611  48.373  49.079  1.00  0.00     0.735 A 
HETATM    5  N   UNL     1      21.906  47.224  49.132  1.00  0.00    -0.191 N 
HETATM    6  N   UNL     1      22.973  50.447  48.367  1.00  0.00     0.012 NA
HETATM    7  N   UNL     1      23.995  50.015  49.101  1.00  0.00     0.033 NA
HETATM    8  N   UNL     1      23.782  48.724  49.550  1.00  0.00     0.030 NA
HETATM    9  C   UNL     1      20.780  46.992  48.345  1.00  0.00     0.037 C 
HETATM   10  C   UNL     1      20.215  45.595  48.422  1.00  0.00     0.070 C 
HETATM   11  H   UNL     1      22.314  46.427  49.618  1.00  0.00     0.184 HD
ENDROOT
BRANCH   1  12
HETATM   12  C   UNL     1      19.159  47.848  46.602  1.00  0.00     0.256 C 
HETATM   13  N   UNL     1      17.899  47.924  47.152  1.00  0.00    -0.323 N 
HETATM   14  H   UNL     1      17.851  47.817  48.157  1.00  0.00     0.169 HD
HETATM   15  O   UNL     1      19.431  47.518  45.457  1.00  0.00    -0.267 OA
BRANCH  13  16
HETATM   16  C   UNL     1      16.646  47.943  46.495  1.00  0.00     0.041 A 
HETATM   17  C   UNL     1      15.552  48.776  46.797  1.00  0.00    -0.035 A 
HETATM   18  C   UNL     1      15.501  49.762  47.931  1.00  0.00     0.050 C 
HETATM   19  C   UNL     1      14.382  48.669  46.014  1.00  0.00     0.009 A 
HETATM   20  C   UNL     1      14.267  47.725  44.996  1.00  0.00     0.001 A 
HETATM   21  C   UNL     1      15.323  46.865  44.739  1.00  0.00     0.002 A 
HETATM   22  C   UNL     1      16.498  46.972  45.485  1.00  0.00     0.030 A 
ENDBRANCH  13  16
ENDBRANCH   1  12
BRANCH   2  23
HETATM   23  C   UNL     1      19.858  50.365  48.485  1.00  0.00    -0.011 A 
HETATM   24  C   UNL     1      19.250  49.991  49.684  1.00  0.00     0.125 A 
HETATM   25  N   UNL     1      18.406  50.778  50.391  1.00  0.00    -0.272 NA
HETATM   26  C   UNL     1      18.152  52.002  49.885  1.00  0.00     0.116 A 
HETATM   27  C   UNL     1      18.705  52.478  48.709  1.00  0.00     0.020 A 
HETATM   28  C   UNL     1      19.570  51.647  48.002  1.00  0.00     0.012 A 
ENDBRANCH   2  23
TORSDOF 3
ENDMDL
MODEL 10
REMARK VINA RESULT:      -7.5      2.367      6.661
REMARK  3 active torsions:
REMARK  status: ('A' for Active; 'I' for Inactive)
REMARK    1  A    between atoms: C_3  and  N_4 
REMARK       I    between atoms: N_4  and  C_5 
REMARK    2  A    between atoms: C_5  and  C_6 
REMARK    3  A    between atoms: C_7  and  C_8 
ROOT
HETATM    1  C   UNL     1      25.343  44.422  51.433  1.00  0.00     0.062 C 
HETATM    2  C   UNL     1      25.805  44.339  52.894  1.00  0.00     0.199 C 
HETATM    3  N   UNL     1      25.770  45.661  53.511  1.00  0.00    -0.092 N 
HETATM    4  C   UNL     1      25.669  46.835  52.820  1.00  0.00     0.735 A 
HETATM    5  N   UNL     1      25.544  46.793  51.478  1.00  0.00    -0.191 N 
HETATM    6  N   UNL     1      25.793  45.897  54.831  1.00  0.00     0.012 NA
HETATM    7  N   UNL     1      25.765  47.224  54.930  1.00  0.00     0.033 NA
HETATM    8  N   UNL     1      25.688  47.820  53.684  1.00  0.00     0.030 NA
HETATM    9  C   UNL     1      25.302  45.612  50.779  1.00  0.00     0.037 C 
HETATM   10  C   UNL     1      25.034  45.778  49.303  1.00  0.00     0.070 C 
HETATM   11  H   UNL     1      25.433  47.671  50.973  1.00  0.00     0.184 HD
ENDROOT
BRANCH   1  12
HETATM   12  C   UNL     1      24.950  43.107  50.840  1.00  0.00     0.256 C 
HETATM   13  N   UNL     1      25.846  42.633  49.908  1.00  0.00    -0.323 N 
HETATM   14  H   UNL     1      26.505  43.310  49.547  1.00  0.00     0.169 HD
HETATM   15  O   UNL     1      23.845  42.647  51.083  1.00  0.00    -0.267 OA
BRANCH  13  16
HETATM   16  C   UNL     1      25.856  41.382  49.247  1.00  0.00     0.041 A 
HETATM   17  C   UNL     1      26.675  40.278  49.551  1.00  0.00    -0.035 A 
HETATM   18  C   UNL     1      27.746  40.259  50.607  1.00  0.00     0.050 C 
HETATM   19  C   UNL     1      26.529  39.096  48.793  1.00  0.00     0.009 A 
HETATM   20  C   UNL     1      25.641  39.020  47.723  1.00  0.00     0.001 A 
HETATM   21  C   UNL     1      24.878  40.126  47.387  1.00  0.00     0.002 A 
HETATM   22  C   UNL     1      24.989  41.296  48.141  1.00  0.00     0.030 A 
ENDBRANCH  13  16
ENDBRANCH   1  12
BRANCH   2  23
HETATM   23  C   UNL     1      27.196  43.751  53.058  1.00  0.00    -0.011 A 
HETATM   24  C   UNL     1      28.215  43.990  52.136  1.00  0.00     0.125 A 
HETATM   25  N   UNL     1      29.467  43.486  52.232  1.00  0.00    -0.272 NA
HETATM   26  C   UNL     1      29.725  42.703  53.300  1.00  0.00     0.116 A 
HETATM   27  C   UNL     1      28.792  42.405  54.277  1.00  0.00     0.020 A 
HETATM   28  C   UNL     1      27.511  42.938  54.153  1.00  0.00     0.012 A 
ENDBRANCH   2  23
TORSDOF 3
ENDMDL
