MODEL 1
REMARK VINA RESULT:      -8.9      0.000      0.000
REMARK  8 active torsions:
REMARK  status: ('A' for Active; 'I' for Inactive)
REMARK    1  A    between atoms: C_3  and  N_4 
REMARK       I    between atoms: N_4  and  C_5 
REMARK    2  A    between atoms: C_5  and  C_6 
REMARK    3  A    between atoms: C_7  and  C_8 
REMARK    4  A    between atoms: C_17  and  C_18 
REMARK    5  A    between atoms: C_20  and  O_21 
REMARK    6  A    between atoms: C_23  and  O_24 
REMARK    7  A    between atoms: O_24  and  C_25 
REMARK    8  A    between atoms: C_25  and  C_26 
REMARK       I    between atoms: C_26  and  N_27 
ROOT
HETATM    1  C   UNL     1      27.169  42.284  52.082  1.00  0.00     0.062 A 
HETATM    2  C   UNL     1      26.049  42.680  51.155  1.00  0.00     0.176 A 
HETATM    3  N   UNL     1      26.182  41.999  49.875  1.00  0.00    -0.277 N 
HETATM    4  C   UNL     1      27.255  41.211  49.610  1.00  0.00     0.177 A 
HETATM    5  S   UNL     1      27.192  40.576  47.993  1.00  0.00    -0.046 SA
HETATM    6  C   UNL     1      25.608  41.216  47.732  1.00  0.00     0.077 C 
HETATM    7  C   UNL     1      24.935  41.026  46.589  1.00  0.00     0.036 C 
HETATM    8  C   UNL     1      25.160  41.954  48.955  1.00  0.00     0.267 C 
HETATM    9  O   UNL     1      24.030  42.385  49.133  1.00  0.00    -0.266 OA
HETATM   10  N   UNL     1      28.206  40.916  50.424  1.00  0.00    -0.228 NA
HETATM   11  C   UNL     1      28.156  41.451  51.691  1.00  0.00     0.047 A 
HETATM   12  C   UNL     1      29.295  41.005  52.575  1.00  0.00     0.071 C 
ENDROOT
BRANCH   7  13
HETATM   13  C   UNL     1      23.576  41.496  46.323  1.00  0.00    -0.032 A 
HETATM   14  C   UNL     1      22.480  40.640  46.504  1.00  0.00     0.051 A 
HETATM   15  C   UNL     1      21.182  41.092  46.238  1.00  0.00     0.102 A 
HETATM   16  C   UNL     1      20.996  42.398  45.757  1.00  0.00     0.102 A 
HETATM   17  C   UNL     1      22.084  43.262  45.609  1.00  0.00     0.040 A 
HETATM   18  C   UNL     1      23.372  42.809  45.890  1.00  0.00     0.014 A 
BRANCH  15  19
HETATM   19  O   UNL     1      20.046  40.332  46.374  1.00  0.00    -0.353 OA
HETATM   20  C   UNL     1      20.186  39.085  47.044  1.00  0.00     0.210 C 
ENDBRANCH  15  19
BRANCH  16  21
HETATM   21  O   UNL     1      19.710  42.804  45.503  1.00  0.00    -0.339 OA
BRANCH  21  22
HETATM   22  C   UNL     1      19.501  44.205  45.696  1.00  0.00     0.278 C 
BRANCH  22  23
HETATM   23  C   UNL     1      18.605  44.425  46.909  1.00  0.00     0.239 C 
HETATM   24  N   UNL     1      17.293  44.679  46.628  1.00  0.00    -0.368 N 
HETATM   25  H   UNL     1      16.942  44.497  45.691  1.00  0.00     0.159 HD
HETATM   26  H   UNL     1      16.642  44.764  47.396  1.00  0.00     0.159 HD
HETATM   27  O   UNL     1      19.022  44.437  48.063  1.00  0.00    -0.271 OA
ENDBRANCH  22  23
ENDBRANCH  21  22
ENDBRANCH  16  21
ENDBRANCH   7  13
BRANCH   2  28
HETATM   28  C   UNL     1      25.966  44.174  50.903  1.00  0.00     0.011 A 
HETATM   29  S   UNL     1      24.663  45.081  51.563  1.00  0.00    -0.104 SA
HETATM   30  C   UNL     1      25.270  46.543  50.926  1.00  0.00     0.050 A 
HETATM   31  C   UNL     1      26.442  46.358  50.230  1.00  0.00     0.008 A 
HETATM   32  C   UNL     1      26.845  44.990  50.213  1.00  0.00     0.017 A 
ENDBRANCH   2  28
BRANCH   1  33
HETATM   33  C   UNL     1      27.273  42.998  53.391  1.00  0.00     0.256 C 
HETATM   34  N   UNL     1      28.266  43.954  53.438  1.00  0.00    -0.323 N 
HETATM   35  H   UNL     1      28.787  44.135  52.593  1.00  0.00     0.169 HD
HETATM   36  O   UNL     1      26.523  42.671  54.303  1.00  0.00    -0.267 OA
BRANCH  34  37
HETATM   37  C   UNL     1      28.681  44.702  54.571  1.00  0.00     0.041 A 
HETATM   38  C   UNL     1      29.869  44.326  55.240  1.00  0.00    -0.035 A 
HETATM   39  C   UNL     1      30.712  43.159  54.801  1.00  0.00     0.050 C 
HETATM   40  C   UNL     1      30.287  45.054  56.370  1.00  0.00     0.009 A 
HETATM   41  C   UNL     1      29.548  46.137  56.839  1.00  0.00     0.001 A 
HETATM   42  C   UNL     1      28.381  46.506  56.184  1.00  0.00     0.002 A 
HETATM   43  C   UNL     1      27.953  45.794  55.061  1.00  0.00     0.030 A 
ENDBRANCH  34  37
ENDBRANCH   1  33
TORSDOF 8
ENDMDL
MODEL 2
REMARK VINA RESULT:      -8.9      1.976      2.884
REMARK  8 active torsions:
REMARK  status: ('A' for Active; 'I' for Inactive)
REMARK    1  A    between atoms: C_3  and  N_4 
REMARK       I    between atoms: N_4  and  C_5 
REMARK    2  A    between atoms: C_5  and  C_6 
REMARK    3  A    between atoms: C_7  and  C_8 
REMARK    4  A    between atoms: C_17  and  C_18 
REMARK    5  A    between atoms: C_20  and  O_21 
REMARK    6  A    between atoms: C_23  and  O_24 
REMARK    7  A    between atoms: O_24  and  C_25 
REMARK    8  A    between atoms: C_25  and  C_26 
REMARK       I    between atoms: C_26  and  N_27 
ROOT
HETATM    1  C   UNL     1      25.900  43.136  51.691  1.00  0.00     0.062 A 
HETATM    2  C   UNL     1      24.930  44.015  50.943  1.00  0.00     0.176 A 
HETATM    3  N   UNL     1      24.589  43.421  49.659  1.00  0.00    -0.277 N 
HETATM    4  C   UNL     1      25.188  42.280  49.235  1.00  0.00     0.177 A 
HETATM    5  S   UNL     1      24.643  41.829  47.646  1.00  0.00    -0.046 SA
HETATM    6  C   UNL     1      23.450  43.080  47.629  1.00  0.00     0.077 C 
HETATM    7  C   UNL     1      22.608  43.255  46.601  1.00  0.00     0.036 C 
HETATM    8  C   UNL     1      23.524  43.859  48.905  1.00  0.00     0.267 C 
HETATM    9  O   UNL     1      22.713  44.704  49.252  1.00  0.00    -0.266 OA
HETATM   10  N   UNL     1      26.033  41.569  49.895  1.00  0.00    -0.228 NA
HETATM   11  C   UNL     1      26.386  41.997  51.154  1.00  0.00     0.047 A 
HETATM   12  C   UNL     1      27.347  41.067  51.856  1.00  0.00     0.071 C 
ENDROOT
BRANCH   7  13
HETATM   13  C   UNL     1      21.545  44.259  46.544  1.00  0.00    -0.032 A 
HETATM   14  C   UNL     1      20.204  43.883  46.708  1.00  0.00     0.051 A 
HETATM   15  C   UNL     1      19.190  44.846  46.642  1.00  0.00     0.102 A 
HETATM   16  C   UNL     1      19.531  46.183  46.378  1.00  0.00     0.102 A 
HETATM   17  C   UNL     1      20.869  46.562  46.250  1.00  0.00     0.040 A 
HETATM   18  C   UNL     1      21.874  45.600  46.330  1.00  0.00     0.014 A 
BRANCH  15  19
HETATM   19  O   UNL     1      17.849  44.582  46.779  1.00  0.00    -0.353 OA
HETATM   20  C   UNL     1      17.141  44.240  45.593  1.00  0.00     0.210 C 
ENDBRANCH  15  19
BRANCH  16  21
HETATM   21  O   UNL     1      18.510  47.098  46.317  1.00  0.00    -0.339 OA
BRANCH  21  22
HETATM   22  C   UNL     1      18.559  48.083  47.350  1.00  0.00     0.278 C 
BRANCH  22  23
HETATM   23  C   UNL     1      17.618  47.684  48.481  1.00  0.00     0.239 C 
HETATM   24  N   UNL     1      16.504  46.994  48.098  1.00  0.00    -0.368 N 
HETATM   25  H   UNL     1      16.463  46.599  47.162  1.00  0.00     0.159 HD
HETATM   26  H   UNL     1      15.882  46.645  48.813  1.00  0.00     0.159 HD
HETATM   27  O   UNL     1      17.797  48.003  49.653  1.00  0.00    -0.271 OA
ENDBRANCH  22  23
ENDBRANCH  21  22
ENDBRANCH  16  21
ENDBRANCH   7  13
BRANCH   2  28
HETATM   28  C   UNL     1      25.442  45.423  50.706  1.00  0.00     0.011 A 
HETATM   29  S   UNL     1      26.803  45.678  49.688  1.00  0.00    -0.104 SA
HETATM   30  C   UNL     1      26.718  47.371  49.884  1.00  0.00     0.050 A 
HETATM   31  C   UNL     1      25.676  47.746  50.700  1.00  0.00     0.008 A 
HETATM   32  C   UNL     1      24.939  46.623  51.178  1.00  0.00     0.017 A 
ENDBRANCH   2  28
BRANCH   1  33
HETATM   33  C   UNL     1      26.472  43.661  52.967  1.00  0.00     0.256 C 
HETATM   34  N   UNL     1      27.812  43.979  52.900  1.00  0.00    -0.323 N 
HETATM   35  H   UNL     1      28.273  43.896  52.006  1.00  0.00     0.169 HD
HETATM   36  O   UNL     1      25.748  43.732  53.953  1.00  0.00    -0.267 OA
BRANCH  34  37
HETATM   37  C   UNL     1      28.652  44.381  53.973  1.00  0.00     0.041 A 
HETATM   38  C   UNL     1      29.832  43.645  54.227  1.00  0.00    -0.035 A 
HETATM   39  C   UNL     1      30.234  42.448  53.409  1.00  0.00     0.050 C 
HETATM   40  C   UNL     1      30.669  44.027  55.294  1.00  0.00     0.009 A 
HETATM   41  C   UNL     1      30.350  45.117  56.100  1.00  0.00     0.001 A 
HETATM   42  C   UNL     1      29.192  45.839  55.851  1.00  0.00     0.002 A 
HETATM   43  C   UNL     1      28.351  45.472  54.797  1.00  0.00     0.030 A 
ENDBRANCH  34  37
ENDBRANCH   1  33
TORSDOF 8
ENDMDL
MODEL 3
REMARK VINA RESULT:      -8.8      2.244      3.500
REMARK  8 active torsions:
REMARK  status: ('A' for Active; 'I' for Inactive)
REMARK    1  A    between atoms: C_3  and  N_4 
REMARK       I    between atoms: N_4  and  C_5 
REMARK    2  A    between atoms: C_5  and  C_6 
REMARK    3  A    between atoms: C_7  and  C_8 
REMARK    4  A    between atoms: C_17  and  C_18 
REMARK    5  A    between atoms: C_20  and  O_21 
REMARK    6  A    between atoms: C_23  and  O_24 
REMARK    7  A    between atoms: O_24  and  C_25 
REMARK    8  A    between atoms: C_25  and  C_26 
REMARK       I    between atoms: C_26  and  N_27 
ROOT
HETATM    1  C   UNL     1      26.294  42.854  51.849  1.00  0.00     0.062 A 
HETATM    2  C   UNL     1      25.262  43.748  51.210  1.00  0.00     0.176 A 
HETATM    3  N   UNL     1      24.927  43.269  49.878  1.00  0.00    -0.277 N 
HETATM    4  C   UNL     1      25.578  42.210  49.330  1.00  0.00     0.177 A 
HETATM    5  S   UNL     1      25.024  41.892  47.713  1.00  0.00    -0.046 SA
HETATM    6  C   UNL     1      23.765  43.069  47.842  1.00  0.00     0.077 C 
HETATM    7  C   UNL     1      22.893  43.300  46.850  1.00  0.00     0.036 C 
HETATM    8  C   UNL     1      23.824  43.719  49.189  1.00  0.00     0.267 C 
HETATM    9  O   UNL     1      22.976  44.479  49.633  1.00  0.00    -0.266 OA
HETATM   10  N   UNL     1      26.474  41.486  49.901  1.00  0.00    -0.228 NA
HETATM   11  C   UNL     1      26.830  41.804  51.192  1.00  0.00     0.047 A 
HETATM   12  C   UNL     1      27.854  40.864  51.780  1.00  0.00     0.071 C 
ENDROOT
BRANCH   7  13
HETATM   13  C   UNL     1      21.777  44.243  46.913  1.00  0.00    -0.032 A 
HETATM   14  C   UNL     1      22.012  45.625  46.891  1.00  0.00     0.051 A 
HETATM   15  C   UNL     1      20.941  46.523  46.962  1.00  0.00     0.102 A 
HETATM   16  C   UNL     1      19.634  46.023  47.087  1.00  0.00     0.102 A 
HETATM   17  C   UNL     1      19.397  44.646  47.073  1.00  0.00     0.040 A 
HETATM   18  C   UNL     1      20.468  43.759  46.988  1.00  0.00     0.014 A 
BRANCH  15  19
HETATM   19  O   UNL     1      21.065  47.891  46.958  1.00  0.00    -0.353 OA
HETATM   20  C   UNL     1      21.805  48.469  48.027  1.00  0.00     0.210 C 
ENDBRANCH  15  19
BRANCH  16  21
HETATM   21  O   UNL     1      18.611  46.934  47.157  1.00  0.00    -0.339 OA
BRANCH  21  22
HETATM   22  C   UNL     1      17.874  46.877  48.380  1.00  0.00     0.278 C 
BRANCH  22  23
HETATM   23  C   UNL     1      18.229  48.079  49.247  1.00  0.00     0.239 C 
HETATM   24  N   UNL     1      19.022  47.808  50.325  1.00  0.00    -0.368 N 
HETATM   25  H   UNL     1      19.501  46.913  50.376  1.00  0.00     0.159 HD
HETATM   26  H   UNL     1      19.345  48.579  50.893  1.00  0.00     0.159 HD
HETATM   27  O   UNL     1      17.796  49.210  49.044  1.00  0.00    -0.271 OA
ENDBRANCH  22  23
ENDBRANCH  21  22
ENDBRANCH  16  21
ENDBRANCH   7  13
BRANCH   2  28
HETATM   28  C   UNL     1      25.693  45.200  51.109  1.00  0.00     0.011 A 
HETATM   29  S   UNL     1      26.873  45.663  49.949  1.00  0.00    -0.104 SA
HETATM   30  C   UNL     1      26.772  47.305  50.402  1.00  0.00     0.050 A 
HETATM   31  C   UNL     1      25.857  47.509  51.409  1.00  0.00     0.008 A 
HETATM   32  C   UNL     1      25.234  46.295  51.821  1.00  0.00     0.017 A 
ENDBRANCH   2  28
BRANCH   1  33
HETATM   33  C   UNL     1      26.864  43.279  53.163  1.00  0.00     0.256 C 
HETATM   34  N   UNL     1      28.157  43.756  53.094  1.00  0.00    -0.323 N 
HETATM   35  H   UNL     1      28.581  43.838  52.182  1.00  0.00     0.169 HD
HETATM   36  O   UNL     1      26.184  43.145  54.173  1.00  0.00    -0.267 OA
BRANCH  34  37
HETATM   37  C   UNL     1      28.997  44.116  54.181  1.00  0.00     0.041 A 
HETATM   38  C   UNL     1      28.763  45.341  54.847  1.00  0.00    -0.035 A 
HETATM   39  C   UNL     1      27.660  46.284  54.448  1.00  0.00     0.050 C 
HETATM   40  C   UNL     1      29.594  45.714  55.921  1.00  0.00     0.009 A 
HETATM   41  C   UNL     1      30.642  44.895  56.334  1.00  0.00     0.001 A 
HETATM   42  C   UNL     1      30.872  43.693  55.680  1.00  0.00     0.002 A 
HETATM   43  C   UNL     1      30.057  43.309  54.612  1.00  0.00     0.030 A 
ENDBRANCH  34  37
ENDBRANCH   1  33
TORSDOF 8
ENDMDL
MODEL 4
REMARK VINA RESULT:      -8.7      4.194     10.946
REMARK  8 active torsions:
REMARK  status: ('A' for Active; 'I' for Inactive)
REMARK    1  A    between atoms: C_3  and  N_4 
REMARK       I    between atoms: N_4  and  C_5 
REMARK    2  A    between atoms: C_5  and  C_6 
REMARK    3  A    between atoms: C_7  and  C_8 
REMARK    4  A    between atoms: C_17  and  C_18 
REMARK    5  A    between atoms: C_20  and  O_21 
REMARK    6  A    between atoms: C_23  and  O_24 
REMARK    7  A    between atoms: O_24  and  C_25 
REMARK    8  A    between atoms: C_25  and  C_26 
REMARK       I    between atoms: C_26  and  N_27 
ROOT
HETATM    1  C   UNL     1      20.453  49.207  48.699  1.00  0.00     0.062 A 
HETATM    2  C   UNL     1      21.310  48.012  49.029  1.00  0.00     0.176 A 
HETATM    3  N   UNL     1      22.719  48.375  49.018  1.00  0.00    -0.277 N 
HETATM    4  C   UNL     1      23.117  49.621  48.652  1.00  0.00     0.177 A 
HETATM    5  S   UNL     1      24.850  49.763  48.668  1.00  0.00    -0.046 SA
HETATM    6  C   UNL     1      25.038  48.191  49.363  1.00  0.00     0.077 C 
HETATM    7  C   UNL     1      26.239  47.683  49.674  1.00  0.00     0.036 C 
HETATM    8  C   UNL     1      23.692  47.564  49.554  1.00  0.00     0.267 C 
HETATM    9  O   UNL     1      23.490  46.524  50.161  1.00  0.00    -0.266 OA
HETATM   10  N   UNL     1      22.353  50.610  48.353  1.00  0.00    -0.228 NA
HETATM   11  C   UNL     1      20.992  50.405  48.390  1.00  0.00     0.047 A 
HETATM   12  C   UNL     1      20.190  51.642  48.066  1.00  0.00     0.071 C 
ENDROOT
BRANCH   7  13
HETATM   13  C   UNL     1      26.465  46.384  50.308  1.00  0.00    -0.032 A 
HETATM   14  C   UNL     1      26.771  45.257  49.532  1.00  0.00     0.051 A 
HETATM   15  C   UNL     1      26.975  44.015  50.143  1.00  0.00     0.102 A 
HETATM   16  C   UNL     1      26.839  43.906  51.537  1.00  0.00     0.102 A 
HETATM   17  C   UNL     1      26.569  45.035  52.314  1.00  0.00     0.040 A 
HETATM   18  C   UNL     1      26.380  46.272  51.699  1.00  0.00     0.014 A 
BRANCH  15  19
HETATM   19  O   UNL     1      27.268  42.852  49.474  1.00  0.00    -0.353 OA
HETATM   20  C   UNL     1      26.183  42.192  48.833  1.00  0.00     0.210 C 
ENDBRANCH  15  19
BRANCH  16  21
HETATM   21  O   UNL     1      27.043  42.672  52.100  1.00  0.00    -0.339 OA
BRANCH  21  22
HETATM   22  C   UNL     1      27.946  42.688  53.207  1.00  0.00     0.278 C 
BRANCH  22  23
HETATM   23  C   UNL     1      29.308  42.167  52.762  1.00  0.00     0.239 C 
HETATM   24  N   UNL     1      29.295  40.947  52.149  1.00  0.00    -0.368 N 
HETATM   25  H   UNL     1      28.411  40.563  51.828  1.00  0.00     0.159 HD
HETATM   26  H   UNL     1      30.161  40.587  51.772  1.00  0.00     0.159 HD
HETATM   27  O   UNL     1      30.362  42.757  52.983  1.00  0.00    -0.271 OA
ENDBRANCH  22  23
ENDBRANCH  21  22
ENDBRANCH  16  21
ENDBRANCH   7  13
BRANCH   2  28
HETATM   28  C   UNL     1      21.105  46.837  48.090  1.00  0.00     0.011 A 
HETATM   29  S   UNL     1      20.407  45.382  48.680  1.00  0.00    -0.104 SA
HETATM   30  C   UNL     1      20.469  44.648  47.141  1.00  0.00     0.050 A 
HETATM   31  C   UNL     1      21.001  45.486  46.189  1.00  0.00     0.008 A 
HETATM   32  C   UNL     1      21.371  46.750  46.734  1.00  0.00     0.017 A 
ENDBRANCH   2  28
BRANCH   1  33
HETATM   33  C   UNL     1      18.986  48.983  48.522  1.00  0.00     0.256 C 
HETATM   34  N   UNL     1      18.546  49.110  47.221  1.00  0.00    -0.323 N 
HETATM   35  H   UNL     1      19.235  49.276  46.503  1.00  0.00     0.169 HD
HETATM   36  O   UNL     1      18.301  48.750  49.510  1.00  0.00    -0.267 OA
BRANCH  34  37
HETATM   37  C   UNL     1      17.201  49.075  46.764  1.00  0.00     0.041 A 
HETATM   38  C   UNL     1      16.688  47.863  46.248  1.00  0.00    -0.035 A 
HETATM   39  C   UNL     1      17.510  46.605  46.160  1.00  0.00     0.050 C 
HETATM   40  C   UNL     1      15.358  47.817  45.784  1.00  0.00     0.009 A 
HETATM   41  C   UNL     1      14.546  48.947  45.824  1.00  0.00     0.001 A 
HETATM   42  C   UNL     1      15.051  50.137  46.330  1.00  0.00     0.002 A 
HETATM   43  C   UNL     1      16.367  50.199  46.794  1.00  0.00     0.030 A 
ENDBRANCH  34  37
ENDBRANCH   1  33
TORSDOF 8
ENDMDL
MODEL 5
REMARK VINA RESULT:      -8.6      4.205     10.903
REMARK  8 active torsions:
REMARK  status: ('A' for Active; 'I' for Inactive)
REMARK    1  A    between atoms: C_3  and  N_4 
REMARK       I    between atoms: N_4  and  C_5 
REMARK    2  A    between atoms: C_5  and  C_6 
REMARK    3  A    between atoms: C_7  and  C_8 
REMARK    4  A    between atoms: C_17  and  C_18 
REMARK    5  A    between atoms: C_20  and  O_21 
REMARK    6  A    between atoms: C_23  and  O_24 
REMARK    7  A    between atoms: O_24  and  C_25 
REMARK    8  A    between atoms: C_25  and  C_26 
REMARK       I    between atoms: C_26  and  N_27 
ROOT
HETATM    1  C   UNL     1      20.514  49.182  48.797  1.00  0.00     0.062 A 
HETATM    2  C   UNL     1      21.351  47.961  49.084  1.00  0.00     0.176 A 
HETATM    3  N   UNL     1      22.765  48.303  49.094  1.00  0.00    -0.277 N 
HETATM    4  C   UNL     1      23.185  49.555  48.778  1.00  0.00     0.177 A 
HETATM    5  S   UNL     1      24.919  49.670  48.807  1.00  0.00    -0.046 SA
HETATM    6  C   UNL     1      25.080  48.070  49.440  1.00  0.00     0.077 C 
HETATM    7  C   UNL     1      26.272  47.531  49.737  1.00  0.00     0.036 C 
HETATM    8  C   UNL     1      23.724  47.457  49.602  1.00  0.00     0.267 C 
HETATM    9  O   UNL     1      23.502  46.397  50.167  1.00  0.00    -0.266 OA
HETATM   10  N   UNL     1      22.437  50.567  48.514  1.00  0.00    -0.228 NA
HETATM   11  C   UNL     1      21.073  50.382  48.538  1.00  0.00     0.047 A 
HETATM   12  C   UNL     1      20.292  51.643  48.259  1.00  0.00     0.071 C 
ENDROOT
BRANCH   7  13
HETATM   13  C   UNL     1      26.475  46.205  50.321  1.00  0.00    -0.032 A 
HETATM   14  C   UNL     1      26.401  46.022  51.709  1.00  0.00     0.051 A 
HETATM   15  C   UNL     1      26.607  44.754  52.264  1.00  0.00     0.102 A 
HETATM   16  C   UNL     1      26.920  43.677  51.417  1.00  0.00     0.102 A 
HETATM   17  C   UNL     1      26.959  43.853  50.032  1.00  0.00     0.040 A 
HETATM   18  C   UNL     1      26.739  45.116  49.486  1.00  0.00     0.014 A 
BRANCH  15  19
HETATM   19  O   UNL     1      26.566  44.471  53.608  1.00  0.00    -0.353 OA
HETATM   20  C   UNL     1      25.288  44.511  54.231  1.00  0.00     0.210 C 
ENDBRANCH  15  19
BRANCH  16  21
HETATM   21  O   UNL     1      27.118  42.450  51.998  1.00  0.00    -0.339 OA
BRANCH  21  22
HETATM   22  C   UNL     1      28.440  41.937  51.818  1.00  0.00     0.278 C 
BRANCH  22  23
HETATM   23  C   UNL     1      28.370  40.580  51.126  1.00  0.00     0.239 C 
HETATM   24  N   UNL     1      29.126  39.595  51.693  1.00  0.00    -0.368 N 
HETATM   25  H   UNL     1      29.503  39.735  52.627  1.00  0.00     0.159 HD
HETATM   26  H   UNL     1      29.063  38.660  51.316  1.00  0.00     0.159 HD
HETATM   27  O   UNL     1      27.733  40.379  50.095  1.00  0.00    -0.271 OA
ENDBRANCH  22  23
ENDBRANCH  21  22
ENDBRANCH  16  21
ENDBRANCH   7  13
BRANCH   2  28
HETATM   28  C   UNL     1      21.132  46.827  48.099  1.00  0.00     0.011 A 
HETATM   29  S   UNL     1      20.410  45.361  48.630  1.00  0.00    -0.104 SA
HETATM   30  C   UNL     1      20.468  44.686  47.064  1.00  0.00     0.050 A 
HETATM   31  C   UNL     1      21.017  45.553  46.147  1.00  0.00     0.008 A 
HETATM   32  C   UNL     1      21.403  46.789  46.742  1.00  0.00     0.017 A 
ENDBRANCH   2  28
BRANCH   1  33
HETATM   33  C   UNL     1      19.045  48.988  48.606  1.00  0.00     0.256 C 
HETATM   34  N   UNL     1      18.612  49.179  47.310  1.00  0.00    -0.323 N 
HETATM   35  H   UNL     1      19.307  49.367  46.603  1.00  0.00     0.169 HD
HETATM   36  O   UNL     1      18.353  48.720  49.580  1.00  0.00    -0.267 OA
BRANCH  34  37
HETATM   37  C   UNL     1      17.269  49.185  46.848  1.00  0.00     0.041 A 
HETATM   38  C   UNL     1      16.693  47.969  46.412  1.00  0.00    -0.035 A 
HETATM   39  C   UNL     1      17.446  46.667  46.415  1.00  0.00     0.050 C 
HETATM   40  C   UNL     1      15.364  47.963  45.944  1.00  0.00     0.009 A 
HETATM   41  C   UNL     1      14.613  49.135  45.901  1.00  0.00     0.001 A 
HETATM   42  C   UNL     1      15.179  50.328  46.328  1.00  0.00     0.002 A 
HETATM   43  C   UNL     1      16.496  50.351  46.796  1.00  0.00     0.030 A 
ENDBRANCH  34  37
ENDBRANCH   1  33
TORSDOF 8
ENDMDL
MODEL 6
REMARK VINA RESULT:      -8.6      1.354      2.092
REMARK  8 active torsions:
REMARK  status: ('A' for Active; 'I' for Inactive)
REMARK    1  A    between atoms: C_3  and  N_4 
REMARK       I    between atoms: N_4  and  C_5 
REMARK    2  A    between atoms: C_5  and  C_6 
REMARK    3  A    between atoms: C_7  and  C_8 
REMARK    4  A    between atoms: C_17  and  C_18 
REMARK    5  A    between atoms: C_20  and  O_21 
REMARK    6  A    between atoms: C_23  and  O_24 
REMARK    7  A    between atoms: O_24  and  C_25 
REMARK    8  A    between atoms: C_25  and  C_26 
REMARK       I    between atoms: C_26  and  N_27 
ROOT
HETATM    1  C   UNL     1      26.583  42.760  52.051  1.00  0.00     0.062 A 
HETATM    2  C   UNL     1      25.590  43.372  51.096  1.00  0.00     0.176 A 
HETATM    3  N   UNL     1      25.533  42.606  49.860  1.00  0.00    -0.277 N 
HETATM    4  C   UNL     1      26.369  41.557  49.647  1.00  0.00     0.177 A 
HETATM    5  S   UNL     1      26.130  40.865  48.071  1.00  0.00    -0.046 SA
HETATM    6  C   UNL     1      24.757  41.870  47.765  1.00  0.00     0.077 C 
HETATM    7  C   UNL     1      24.045  41.789  46.632  1.00  0.00     0.036 C 
HETATM    8  C   UNL     1      24.523  42.767  48.940  1.00  0.00     0.267 C 
HETATM    9  O   UNL     1      23.541  43.480  49.086  1.00  0.00    -0.266 OA
HETATM   10  N   UNL     1      27.223  41.080  50.481  1.00  0.00    -0.228 NA
HETATM   11  C   UNL     1      27.324  41.683  51.714  1.00  0.00     0.047 A 
HETATM   12  C   UNL     1      28.322  41.016  52.629  1.00  0.00     0.071 C 
ENDROOT
BRANCH   7  13
HETATM   13  C   UNL     1      22.846  42.571  46.332  1.00  0.00    -0.032 A 
HETATM   14  C   UNL     1      22.932  43.958  46.144  1.00  0.00     0.051 A 
HETATM   15  C   UNL     1      21.780  44.704  45.868  1.00  0.00     0.102 A 
HETATM   16  C   UNL     1      20.537  44.051  45.815  1.00  0.00     0.102 A 
HETATM   17  C   UNL     1      20.457  42.665  45.968  1.00  0.00     0.040 A 
HETATM   18  C   UNL     1      21.610  41.927  46.229  1.00  0.00     0.014 A 
BRANCH  15  19
HETATM   19  O   UNL     1      21.754  46.064  45.678  1.00  0.00    -0.353 OA
HETATM   20  C   UNL     1      21.629  46.871  46.843  1.00  0.00     0.210 C 
ENDBRANCH  15  19
BRANCH  16  21
HETATM   21  O   UNL     1      19.430  44.815  45.546  1.00  0.00    -0.339 OA
BRANCH  21  22
HETATM   22  C   UNL     1      18.267  44.420  46.277  1.00  0.00     0.278 C 
BRANCH  22  23
HETATM   23  C   UNL     1      17.884  45.520  47.259  1.00  0.00     0.239 C 
HETATM   24  N   UNL     1      18.236  45.292  48.559  1.00  0.00    -0.368 N 
HETATM   25  H   UNL     1      18.899  44.552  48.770  1.00  0.00     0.159 HD
HETATM   26  H   UNL     1      18.067  46.020  49.239  1.00  0.00     0.159 HD
HETATM   27  O   UNL     1      17.249  46.521  46.938  1.00  0.00    -0.271 OA
ENDBRANCH  22  23
ENDBRANCH  21  22
ENDBRANCH  16  21
ENDBRANCH   7  13
BRANCH   2  28
HETATM   28  C   UNL     1      25.885  44.821  50.756  1.00  0.00     0.011 A 
HETATM   29  S   UNL     1      25.021  46.078  51.548  1.00  0.00    -0.104 SA
HETATM   30  C   UNL     1      25.892  47.290  50.721  1.00  0.00     0.050 A 
HETATM   31  C   UNL     1      26.828  46.760  49.862  1.00  0.00     0.008 A 
HETATM   32  C   UNL     1      26.824  45.335  49.879  1.00  0.00     0.017 A 
ENDBRANCH   2  28
BRANCH   1  33
HETATM   33  C   UNL     1      26.878  43.501  53.315  1.00  0.00     0.256 C 
HETATM   34  N   UNL     1      28.163  43.997  53.395  1.00  0.00    -0.323 N 
HETATM   35  H   UNL     1      28.764  43.881  52.593  1.00  0.00     0.169 HD
HETATM   36  O   UNL     1      26.006  43.579  54.171  1.00  0.00    -0.267 OA
BRANCH  34  37
HETATM   37  C   UNL     1      28.768  44.632  54.512  1.00  0.00     0.041 A 
HETATM   38  C   UNL     1      29.969  44.097  55.032  1.00  0.00    -0.035 A 
HETATM   39  C   UNL     1      30.633  42.878  54.451  1.00  0.00     0.050 C 
HETATM   40  C   UNL     1      30.575  44.712  56.145  1.00  0.00     0.009 A 
HETATM   41  C   UNL     1      30.007  45.835  56.741  1.00  0.00     0.001 A 
HETATM   42  C   UNL     1      28.827  46.358  56.232  1.00  0.00     0.002 A 
HETATM   43  C   UNL     1      28.214  45.761  55.128  1.00  0.00     0.030 A 
ENDBRANCH  34  37
ENDBRANCH   1  33
TORSDOF 8
ENDMDL
MODEL 7
REMARK VINA RESULT:      -8.2      5.391      7.874
REMARK  8 active torsions:
REMARK  status: ('A' for Active; 'I' for Inactive)
REMARK    1  A    between atoms: C_3  and  N_4 
REMARK       I    between atoms: N_4  and  C_5 
REMARK    2  A    between atoms: C_5  and  C_6 
REMARK    3  A    between atoms: C_7  and  C_8 
REMARK    4  A    between atoms: C_17  and  C_18 
REMARK    5  A    between atoms: C_20  and  O_21 
REMARK    6  A    between atoms: C_23  and  O_24 
REMARK    7  A    between atoms: O_24  and  C_25 
REMARK    8  A    between atoms: C_25  and  C_26 
REMARK       I    between atoms: C_26  and  N_27 
ROOT
HETATM    1  C   UNL     1      26.668  41.772  49.984  1.00  0.00     0.062 A 
HETATM    2  C   UNL     1      27.535  41.086  48.959  1.00  0.00     0.176 A 
HETATM    3  N   UNL     1      26.817  40.938  47.702  1.00  0.00    -0.277 N 
HETATM    4  C   UNL     1      25.515  41.307  47.591  1.00  0.00     0.177 A 
HETATM    5  S   UNL     1      24.891  40.963  46.006  1.00  0.00    -0.046 SA
HETATM    6  C   UNL     1      26.449  40.497  45.421  1.00  0.00     0.077 C 
HETATM    7  C   UNL     1      26.657  40.121  44.151  1.00  0.00     0.036 C 
HETATM    8  C   UNL     1      27.452  40.608  46.526  1.00  0.00     0.267 C 
HETATM    9  O   UNL     1      28.660  40.495  46.384  1.00  0.00    -0.266 OA
HETATM   10  N   UNL     1      24.801  41.870  48.500  1.00  0.00    -0.228 NA
HETATM   11  C   UNL     1      25.392  42.121  49.718  1.00  0.00     0.047 A 
HETATM   12  C   UNL     1      24.480  42.823  50.694  1.00  0.00     0.071 C 
ENDROOT
BRANCH   7  13
HETATM   13  C   UNL     1      27.955  39.764  43.579  1.00  0.00    -0.032 A 
HETATM   14  C   UNL     1      28.465  38.467  43.730  1.00  0.00     0.051 A 
HETATM   15  C   UNL     1      29.713  38.133  43.191  1.00  0.00     0.102 A 
HETATM   16  C   UNL     1      30.459  39.122  42.528  1.00  0.00     0.102 A 
HETATM   17  C   UNL     1      29.936  40.404  42.347  1.00  0.00     0.040 A 
HETATM   18  C   UNL     1      28.687  40.724  42.875  1.00  0.00     0.014 A 
BRANCH  15  19
HETATM   19  O   UNL     1      30.304  36.898  43.291  1.00  0.00    -0.353 OA
HETATM   20  C   UNL     1      30.240  36.259  44.561  1.00  0.00     0.210 C 
ENDBRANCH  15  19
BRANCH  16  21
HETATM   21  O   UNL     1      31.679  38.758  42.016  1.00  0.00    -0.339 OA
BRANCH  21  22
HETATM   22  C   UNL     1      31.612  38.234  40.688  1.00  0.00     0.278 C 
BRANCH  22  23
HETATM   23  C   UNL     1      32.591  38.984  39.793  1.00  0.00     0.239 C 
HETATM   24  N   UNL     1      33.884  38.550  39.847  1.00  0.00    -0.368 N 
HETATM   25  H   UNL     1      34.088  37.653  40.281  1.00  0.00     0.159 HD
HETATM   26  H   UNL     1      34.560  38.967  39.223  1.00  0.00     0.159 HD
HETATM   27  O   UNL     1      32.274  39.953  39.109  1.00  0.00    -0.271 OA
ENDBRANCH  22  23
ENDBRANCH  21  22
ENDBRANCH  16  21
ENDBRANCH   7  13
BRANCH   2  28
HETATM   28  C   UNL     1      28.032  39.721  49.398  1.00  0.00     0.011 A 
HETATM   29  S   UNL     1      26.931  38.407  49.516  1.00  0.00    -0.104 SA
HETATM   30  C   UNL     1      28.166  37.324  49.978  1.00  0.00     0.050 A 
HETATM   31  C   UNL     1      29.396  37.938  50.037  1.00  0.00     0.008 A 
HETATM   32  C   UNL     1      29.322  39.322  49.705  1.00  0.00     0.017 A 
ENDBRANCH   2  28
BRANCH   1  33
HETATM   33  C   UNL     1      27.193  41.877  51.379  1.00  0.00     0.256 C 
HETATM   34  N   UNL     1      27.924  43.021  51.626  1.00  0.00    -0.323 N 
HETATM   35  H   UNL     1      27.991  43.706  50.888  1.00  0.00     0.169 HD
HETATM   36  O   UNL     1      26.978  40.960  52.162  1.00  0.00    -0.267 OA
BRANCH  34  37
HETATM   37  C   UNL     1      28.643  43.340  52.808  1.00  0.00     0.041 A 
HETATM   38  C   UNL     1      28.118  44.317  53.685  1.00  0.00    -0.035 A 
HETATM   39  C   UNL     1      26.825  45.038  53.414  1.00  0.00     0.050 C 
HETATM   40  C   UNL     1      28.826  44.648  54.856  1.00  0.00     0.009 A 
HETATM   41  C   UNL     1      30.036  44.029  55.161  1.00  0.00     0.001 A 
HETATM   42  C   UNL     1      30.552  43.071  54.300  1.00  0.00     0.002 A 
HETATM   43  C   UNL     1      29.862  42.731  53.134  1.00  0.00     0.030 A 
ENDBRANCH  34  37
ENDBRANCH   1  33
TORSDOF 8
ENDMDL
MODEL 8
REMARK VINA RESULT:      -8.1      3.500      4.744
REMARK  8 active torsions:
REMARK  status: ('A' for Active; 'I' for Inactive)
REMARK    1  A    between atoms: C_3  and  N_4 
REMARK       I    between atoms: N_4  and  C_5 
REMARK    2  A    between atoms: C_5  and  C_6 
REMARK    3  A    between atoms: C_7  and  C_8 
REMARK    4  A    between atoms: C_17  and  C_18 
REMARK    5  A    between atoms: C_20  and  O_21 
REMARK    6  A    between atoms: C_23  and  O_24 
REMARK    7  A    between atoms: O_24  and  C_25 
REMARK    8  A    between atoms: C_25  and  C_26 
REMARK       I    between atoms: C_26  and  N_27 
ROOT
HETATM    1  C   UNL     1      26.503  43.695  51.015  1.00  0.00     0.062 A 
HETATM    2  C   UNL     1      25.596  44.826  50.602  1.00  0.00     0.176 A 
HETATM    3  N   UNL     1      24.684  44.392  49.554  1.00  0.00    -0.277 N 
HETATM    4  C   UNL     1      24.777  43.149  49.016  1.00  0.00     0.177 A 
HETATM    5  S   UNL     1      23.612  42.917  47.747  1.00  0.00    -0.046 SA
HETATM    6  C   UNL     1      22.858  44.438  48.072  1.00  0.00     0.077 C 
HETATM    7  C   UNL     1      21.784  44.867  47.393  1.00  0.00     0.036 C 
HETATM    8  C   UNL     1      23.575  45.122  49.194  1.00  0.00     0.267 C 
HETATM    9  O   UNL     1      23.187  46.138  49.750  1.00  0.00    -0.266 OA
HETATM   10  N   UNL     1      25.584  42.217  49.382  1.00  0.00    -0.228 NA
HETATM   11  C   UNL     1      26.456  42.489  50.412  1.00  0.00     0.047 A 
HETATM   12  C   UNL     1      27.325  41.314  50.789  1.00  0.00     0.071 C 
ENDROOT
BRANCH   7  13
HETATM   13  C   UNL     1      21.069  46.117  47.651  1.00  0.00    -0.032 A 
HETATM   14  C   UNL     1      19.843  46.107  48.331  1.00  0.00     0.051 A 
HETATM   15  C   UNL     1      19.157  47.304  48.564  1.00  0.00     0.102 A 
HETATM   16  C   UNL     1      19.697  48.508  48.082  1.00  0.00     0.102 A 
HETATM   17  C   UNL     1      20.935  48.522  47.435  1.00  0.00     0.040 A 
HETATM   18  C   UNL     1      21.618  47.327  47.219  1.00  0.00     0.014 A 
BRANCH  15  19
HETATM   19  O   UNL     1      17.949  47.402  49.210  1.00  0.00    -0.353 OA
HETATM   20  C   UNL     1      16.864  46.671  48.650  1.00  0.00     0.210 C 
ENDBRANCH  15  19
BRANCH  16  21
HETATM   21  O   UNL     1      18.995  49.661  48.327  1.00  0.00    -0.339 OA
BRANCH  21  22
HETATM   22  C   UNL     1      19.824  50.811  48.510  1.00  0.00     0.278 C 
BRANCH  22  23
HETATM   23  C   UNL     1      18.964  51.999  48.924  1.00  0.00     0.239 C 
HETATM   24  N   UNL     1      18.650  52.872  47.922  1.00  0.00    -0.368 N 
HETATM   25  H   UNL     1      18.801  52.592  46.956  1.00  0.00     0.159 HD
HETATM   26  H   UNL     1      18.026  53.639  48.127  1.00  0.00     0.159 HD
HETATM   27  O   UNL     1      18.616  52.210  50.083  1.00  0.00    -0.271 OA
ENDBRANCH  22  23
ENDBRANCH  21  22
ENDBRANCH  16  21
ENDBRANCH   7  13
BRANCH   2  28
HETATM   28  C   UNL     1      26.339  46.057  50.117  1.00  0.00     0.011 A 
HETATM   29  S   UNL     1      25.870  47.614  50.674  1.00  0.00    -0.104 SA
HETATM   30  C   UNL     1      27.110  48.380  49.788  1.00  0.00     0.050 A 
HETATM   31  C   UNL     1      27.876  47.479  49.085  1.00  0.00     0.008 A 
HETATM   32  C   UNL     1      27.432  46.138  49.272  1.00  0.00     0.017 A 
ENDBRANCH   2  28
BRANCH   1  33
HETATM   33  C   UNL     1      27.602  44.003  51.979  1.00  0.00     0.256 C 
HETATM   34  N   UNL     1      27.168  44.409  53.224  1.00  0.00    -0.323 N 
HETATM   35  H   UNL     1      26.175  44.405  53.402  1.00  0.00     0.169 HD
HETATM   36  O   UNL     1      28.763  43.914  51.599  1.00  0.00    -0.267 OA
BRANCH  34  37
HETATM   37  C   UNL     1      27.968  44.881  54.298  1.00  0.00     0.041 A 
HETATM   38  C   UNL     1      27.611  46.093  54.933  1.00  0.00    -0.035 A 
HETATM   39  C   UNL     1      26.416  46.907  54.514  1.00  0.00     0.050 C 
HETATM   40  C   UNL     1      28.401  46.577  55.994  1.00  0.00     0.009 A 
HETATM   41  C   UNL     1      29.528  45.882  56.424  1.00  0.00     0.001 A 
HETATM   42  C   UNL     1      29.879  44.693  55.800  1.00  0.00     0.002 A 
HETATM   43  C   UNL     1      29.106  44.199  54.746  1.00  0.00     0.030 A 
ENDBRANCH  34  37
ENDBRANCH   1  33
TORSDOF 8
ENDMDL
MODEL 9
REMARK VINA RESULT:      -7.8     15.602     18.408
REMARK  8 active torsions:
REMARK  status: ('A' for Active; 'I' for Inactive)
REMARK    1  A    between atoms: C_3  and  N_4 
REMARK       I    between atoms: N_4  and  C_5 
REMARK    2  A    between atoms: C_5  and  C_6 
REMARK    3  A    between atoms: C_7  and  C_8 
REMARK    4  A    between atoms: C_17  and  C_18 
REMARK    5  A    between atoms: C_20  and  O_21 
REMARK    6  A    between atoms: C_23  and  O_24 
REMARK    7  A    between atoms: O_24  and  C_25 
REMARK    8  A    between atoms: C_25  and  C_26 
REMARK       I    between atoms: C_26  and  N_27 
ROOT
HETATM    1  C   UNL     1      32.074  49.464  40.090  1.00  0.00     0.062 A 
HETATM    2  C   UNL     1      32.469  50.835  39.604  1.00  0.00     0.176 A 
HETATM    3  N   UNL     1      33.735  51.241  40.196  1.00  0.00    -0.277 N 
HETATM    4  C   UNL     1      34.353  50.468  41.125  1.00  0.00     0.177 A 
HETATM    5  S   UNL     1      35.808  51.217  41.709  1.00  0.00    -0.046 SA
HETATM    6  C   UNL     1      35.693  52.496  40.551  1.00  0.00     0.077 C 
HETATM    7  C   UNL     1      36.613  53.467  40.459  1.00  0.00     0.036 C 
HETATM    8  C   UNL     1      34.463  52.307  39.719  1.00  0.00     0.267 C 
HETATM    9  O   UNL     1      34.190  52.960  38.723  1.00  0.00    -0.266 OA
HETATM   10  N   UNL     1      33.969  49.310  41.533  1.00  0.00    -0.228 NA
HETATM   11  C   UNL     1      32.814  48.790  40.995  1.00  0.00     0.047 A 
HETATM   12  C   UNL     1      32.481  47.410  41.509  1.00  0.00     0.071 C 
ENDROOT
BRANCH   7  13
HETATM   13  C   UNL     1      36.602  54.546  39.472  1.00  0.00    -0.032 A 
HETATM   14  C   UNL     1      36.014  55.782  39.777  1.00  0.00     0.051 A 
HETATM   15  C   UNL     1      35.996  56.808  38.825  1.00  0.00     0.102 A 
HETATM   16  C   UNL     1      36.544  56.573  37.554  1.00  0.00     0.102 A 
HETATM   17  C   UNL     1      37.161  55.354  37.261  1.00  0.00     0.040 A 
HETATM   18  C   UNL     1      37.187  54.342  38.219  1.00  0.00     0.014 A 
BRANCH  15  19
HETATM   19  O   UNL     1      35.438  58.048  39.021  1.00  0.00    -0.353 OA
HETATM   20  C   UNL     1      34.038  58.087  39.273  1.00  0.00     0.210 C 
ENDBRANCH  15  19
BRANCH  16  21
HETATM   21  O   UNL     1      36.505  57.601  36.646  1.00  0.00    -0.339 OA
BRANCH  21  22
HETATM   22  C   UNL     1      37.739  58.313  36.531  1.00  0.00     0.278 C 
BRANCH  22  23
HETATM   23  C   UNL     1      37.499  59.795  36.795  1.00  0.00     0.239 C 
HETATM   24  N   UNL     1      36.198  60.146  37.013  1.00  0.00    -0.368 N 
HETATM   25  H   UNL     1      35.513  59.420  37.205  1.00  0.00     0.159 HD
HETATM   26  H   UNL     1      35.992  61.104  37.261  1.00  0.00     0.159 HD
HETATM   27  O   UNL     1      38.389  60.640  36.760  1.00  0.00    -0.271 OA
ENDBRANCH  22  23
ENDBRANCH  21  22
ENDBRANCH  16  21
ENDBRANCH   7  13
BRANCH   2  28
HETATM   28  C   UNL     1      31.433  51.906  39.892  1.00  0.00     0.011 A 
HETATM   29  S   UNL     1      30.303  52.352  38.677  1.00  0.00    -0.104 SA
HETATM   30  C   UNL     1      29.530  53.470  39.709  1.00  0.00     0.050 A 
HETATM   31  C   UNL     1      30.108  53.506  40.957  1.00  0.00     0.008 A 
HETATM   32  C   UNL     1      31.208  52.605  41.065  1.00  0.00     0.017 A 
ENDBRANCH   2  28
BRANCH   1  33
HETATM   33  C   UNL     1      30.728  48.949  39.697  1.00  0.00     0.256 C 
HETATM   34  N   UNL     1      29.848  48.800  40.748  1.00  0.00    -0.323 N 
HETATM   35  H   UNL     1      30.150  49.101  41.663  1.00  0.00     0.169 HD
HETATM   36  O   UNL     1      30.522  48.671  38.521  1.00  0.00    -0.267 OA
BRANCH  34  37
HETATM   37  C   UNL     1      28.551  48.223  40.705  1.00  0.00     0.041 A 
HETATM   38  C   UNL     1      27.424  49.076  40.698  1.00  0.00    -0.035 A 
HETATM   39  C   UNL     1      27.542  50.576  40.738  1.00  0.00     0.050 C 
HETATM   40  C   UNL     1      26.132  48.516  40.664  1.00  0.00     0.009 A 
HETATM   41  C   UNL     1      25.950  47.136  40.639  1.00  0.00     0.001 A 
HETATM   42  C   UNL     1      27.056  46.298  40.647  1.00  0.00     0.002 A 
HETATM   43  C   UNL     1      28.344  46.838  40.681  1.00  0.00     0.030 A 
ENDBRANCH  34  37
ENDBRANCH   1  33
TORSDOF 8
ENDMDL
MODEL 10
REMARK VINA RESULT:      -7.7     10.801     12.356
REMARK  8 active torsions:
REMARK  status: ('A' for Active; 'I' for Inactive)
REMARK    1  A    between atoms: C_3  and  N_4 
REMARK       I    between atoms: N_4  and  C_5 
REMARK    2  A    between atoms: C_5  and  C_6 
REMARK    3  A    between atoms: C_7  and  C_8 
REMARK    4  A    between atoms: C_17  and  C_18 
REMARK    5  A    between atoms: C_20  and  O_21 
REMARK    6  A    between atoms: C_23  and  O_24 
REMARK    7  A    between atoms: O_24  and  C_25 
REMARK    8  A    between atoms: C_25  and  C_26 
REMARK       I    between atoms: C_26  and  N_27 
ROOT
HETATM    1  C   UNL     1      31.234  49.032  41.692  1.00  0.00     0.062 A 
HETATM    2  C   UNL     1      29.814  49.466  41.437  1.00  0.00     0.176 A 
HETATM    3  N   UNL     1      29.179  48.589  40.466  1.00  0.00    -0.277 N 
HETATM    4  C   UNL     1      29.879  47.600  39.853  1.00  0.00     0.177 A 
HETATM    5  S   UNL     1      28.897  46.748  38.698  1.00  0.00    -0.046 SA
HETATM    6  C   UNL     1      27.473  47.600  39.182  1.00  0.00     0.077 C 
HETATM    7  C   UNL     1      26.271  47.356  38.642  1.00  0.00     0.036 C 
HETATM    8  C   UNL     1      27.818  48.578  40.262  1.00  0.00     0.267 C 
HETATM    9  O   UNL     1      27.002  49.215  40.910  1.00  0.00    -0.266 OA
HETATM   10  N   UNL     1      31.102  47.275  40.082  1.00  0.00    -0.228 NA
HETATM   11  C   UNL     1      31.791  47.995  41.031  1.00  0.00     0.047 A 
HETATM   12  C   UNL     1      33.200  47.502  41.251  1.00  0.00     0.071 C 
ENDROOT
BRANCH   7  13
HETATM   13  C   UNL     1      25.021  48.002  39.040  1.00  0.00    -0.032 A 
HETATM   14  C   UNL     1      24.127  47.351  39.902  1.00  0.00     0.051 A 
HETATM   15  C   UNL     1      22.927  47.970  40.271  1.00  0.00     0.102 A 
HETATM   16  C   UNL     1      22.617  49.234  39.742  1.00  0.00     0.102 A 
HETATM   17  C   UNL     1      23.523  49.897  38.911  1.00  0.00     0.040 A 
HETATM   18  C   UNL     1      24.722  49.280  38.559  1.00  0.00     0.014 A 
BRANCH  15  19
HETATM   19  O   UNL     1      21.982  47.415  41.099  1.00  0.00    -0.353 OA
HETATM   20  C   UNL     1      22.340  46.205  41.756  1.00  0.00     0.210 C 
ENDBRANCH  15  19
BRANCH  16  21
HETATM   21  O   UNL     1      21.430  49.807  40.123  1.00  0.00    -0.339 OA
BRANCH  21  22
HETATM   22  C   UNL     1      21.136  51.028  39.441  1.00  0.00     0.278 C 
BRANCH  22  23
HETATM   23  C   UNL     1      19.949  50.817  38.508  1.00  0.00     0.239 C 
HETATM   24  N   UNL     1      18.721  50.875  39.103  1.00  0.00    -0.368 N 
HETATM   25  H   UNL     1      18.642  51.259  40.041  1.00  0.00     0.159 HD
HETATM   26  H   UNL     1      17.898  50.811  38.520  1.00  0.00     0.159 HD
HETATM   27  O   UNL     1      20.065  50.552  37.315  1.00  0.00    -0.271 OA
ENDBRANCH  22  23
ENDBRANCH  21  22
ENDBRANCH  16  21
ENDBRANCH   7  13
BRANCH   2  28
HETATM   28  C   UNL     1      29.693  50.898  40.949  1.00  0.00     0.011 A 
HETATM   29  S   UNL     1      30.358  51.342  39.427  1.00  0.00    -0.104 SA
HETATM   30  C   UNL     1      29.810  52.950  39.580  1.00  0.00     0.050 A 
HETATM   31  C   UNL     1      29.128  53.155  40.758  1.00  0.00     0.008 A 
HETATM   32  C   UNL     1      29.061  51.972  41.551  1.00  0.00     0.017 A 
ENDBRANCH   2  28
BRANCH   1  33
HETATM   33  C   UNL     1      32.084  49.907  42.555  1.00  0.00     0.256 C 
HETATM   34  N   UNL     1      33.229  50.371  41.939  1.00  0.00    -0.323 N 
HETATM   35  H   UNL     1      33.367  50.142  40.966  1.00  0.00     0.169 HD
HETATM   36  O   UNL     1      31.738  50.112  43.712  1.00  0.00    -0.267 OA
BRANCH  34  37
HETATM   37  C   UNL     1      34.281  51.114  42.537  1.00  0.00     0.041 A 
HETATM   38  C   UNL     1      35.545  51.138  41.902  1.00  0.00    -0.035 A 
HETATM   39  C   UNL     1      35.822  50.404  40.618  1.00  0.00     0.050 C 
HETATM   40  C   UNL     1      36.599  51.865  42.488  1.00  0.00     0.009 A 
HETATM   41  C   UNL     1      36.416  52.556  43.683  1.00  0.00     0.001 A 
HETATM   42  C   UNL     1      35.177  52.531  44.306  1.00  0.00     0.002 A 
HETATM   43  C   UNL     1      34.120  51.816  43.738  1.00  0.00     0.030 A 
ENDBRANCH  34  37
ENDBRANCH   1  33
TORSDOF 8
ENDMDL
