MODEL 1
REMARK VINA RESULT:     -10.5      0.000      0.000
REMARK  8 active torsions:
REMARK  status: ('A' for Active; 'I' for Inactive)
REMARK    1  A    between atoms: C_6  and  N_7 
REMARK       I    between atoms: N_7  and  C_8 
REMARK    2  A    between atoms: C_8  and  C_9 
REMARK    3  A    between atoms: C_9  and  N_10 
REMARK    4  A    between atoms: C_13  and  C_14 
REMARK       I    between atoms: C_14  and  N_15 
REMARK    5  A    between atoms: N_15  and  C_16 
REMARK    6  A    between atoms: C_16  and  C_17 
REMARK    7  A    between atoms: C_20  and  O_21 
REMARK    8  A    between atoms: C_26  and  N_27 
ROOT
HETATM    1  N   UNL     1      25.133  45.441  51.832  1.00  0.00    -0.248 N 
HETATM    2  N   UNL     1      25.462  46.506  52.594  1.00  0.00     0.007 NA
HETATM    3  N   UNL     1      25.252  47.591  51.866  1.00  0.00    -0.150 NA
HETATM    4  C   UNL     1      24.796  47.200  50.622  1.00  0.00     0.186 A 
HETATM    5  C   UNL     1      24.704  45.819  50.586  1.00  0.00     0.151 A 
ENDROOT
BRANCH   1   6
HETATM    6  C   UNL     1      25.306  44.116  52.377  1.00  0.00     0.251 C 
BRANCH   6   7
HETATM    7  C   UNL     1      26.205  44.119  53.593  1.00  0.00     0.241 C 
HETATM    8  N   UNL     1      27.538  44.380  53.311  1.00  0.00    -0.325 N 
HETATM    9  H   UNL     1      27.783  44.367  52.326  1.00  0.00     0.169 HD
HETATM   10  O   UNL     1      25.747  43.786  54.683  1.00  0.00    -0.271 OA
BRANCH   8  11
HETATM   11  C   UNL     1      28.625  44.325  54.218  1.00  0.00     0.046 A 
HETATM   12  C   UNL     1      29.480  43.198  54.129  1.00  0.00    -0.034 A 
HETATM   13  C   UNL     1      30.530  43.042  55.052  1.00  0.00     0.015 A 
HETATM   14  C   UNL     1      29.283  42.113  53.099  1.00  0.00     0.050 C 
HETATM   15  C   UNL     1      30.762  43.990  56.046  1.00  0.00    -0.061 A 
HETATM   16  C   UNL     1      31.854  43.806  57.057  1.00  0.00     0.048 C 
HETATM   17  C   UNL     1      29.956  45.130  56.086  1.00  0.00     0.015 A 
HETATM   18  C   UNL     1      28.914  45.332  55.160  1.00  0.00    -0.034 A 
HETATM   19  C   UNL     1      28.221  46.669  55.218  1.00  0.00     0.050 C 
ENDBRANCH   8  11
ENDBRANCH   6   7
ENDBRANCH   1   6
BRANCH   5  20
HETATM   20  N   UNL     1      24.326  44.954  49.618  1.00  0.00    -0.382 N 
HETATM   21  H   UNL     1      23.348  44.955  49.314  1.00  0.00     0.157 HD
HETATM   22  H   UNL     1      24.796  44.073  49.426  1.00  0.00     0.157 HD
ENDBRANCH   5  20
BRANCH   4  23
HETATM   23  C   UNL     1      24.490  48.155  49.566  1.00  0.00     0.275 C 
HETATM   24  N   UNL     1      23.149  48.229  49.286  1.00  0.00    -0.351 N 
HETATM   25  H   UNL     1      22.528  47.593  49.777  1.00  0.00     0.163 HD
HETATM   26  O   UNL     1      25.340  48.831  48.993  1.00  0.00    -0.266 OA
BRANCH  24  27
HETATM   27  C   UNL     1      22.596  49.145  48.323  1.00  0.00     0.161 C 
BRANCH  27  28
HETATM   28  C   UNL     1      21.333  49.755  48.871  1.00  0.00    -0.040 A 
HETATM   29  C   UNL     1      20.381  48.942  49.501  1.00  0.00     0.011 A 
HETATM   30  C   UNL     1      19.171  49.481  49.940  1.00  0.00     0.037 A 
HETATM   31  C   UNL     1      18.887  50.835  49.755  1.00  0.00     0.068 A 
HETATM   32  C   UNL     1      19.837  51.653  49.144  1.00  0.00     0.037 A 
HETATM   33  C   UNL     1      21.051  51.116  48.700  1.00  0.00     0.011 A 
BRANCH  31  34
HETATM   34  O   UNL     1      17.659  51.228  50.212  1.00  0.00    -0.356 OA
HETATM   35  C   UNL     1      17.215  52.522  49.824  1.00  0.00     0.210 C 
ENDBRANCH  31  34
ENDBRANCH  27  28
ENDBRANCH  24  27
ENDBRANCH   4  23
TORSDOF 8
ENDMDL
MODEL 2
REMARK VINA RESULT:     -10.3      1.459      2.074
REMARK  8 active torsions:
REMARK  status: ('A' for Active; 'I' for Inactive)
REMARK    1  A    between atoms: C_6  and  N_7 
REMARK       I    between atoms: N_7  and  C_8 
REMARK    2  A    between atoms: C_8  and  C_9 
REMARK    3  A    between atoms: C_9  and  N_10 
REMARK    4  A    between atoms: C_13  and  C_14 
REMARK       I    between atoms: C_14  and  N_15 
REMARK    5  A    between atoms: N_15  and  C_16 
REMARK    6  A    between atoms: C_16  and  C_17 
REMARK    7  A    between atoms: C_20  and  O_21 
REMARK    8  A    between atoms: C_26  and  N_27 
ROOT
HETATM    1  N   UNL     1      26.361  45.040  50.995  1.00  0.00    -0.248 N 
HETATM    2  N   UNL     1      27.222  44.796  49.984  1.00  0.00     0.007 NA
HETATM    3  N   UNL     1      27.384  45.930  49.321  1.00  0.00    -0.150 NA
HETATM    4  C   UNL     1      26.601  46.899  49.916  1.00  0.00     0.186 A 
HETATM    5  C   UNL     1      25.942  46.346  51.002  1.00  0.00     0.151 A 
ENDROOT
BRANCH   1   6
HETATM    6  C   UNL     1      25.978  43.952  51.861  1.00  0.00     0.251 C 
BRANCH   6   7
HETATM    7  C   UNL     1      26.667  44.031  53.205  1.00  0.00     0.241 C 
HETATM    8  N   UNL     1      28.020  44.330  53.131  1.00  0.00    -0.325 N 
HETATM    9  H   UNL     1      28.422  44.291  52.199  1.00  0.00     0.169 HD
HETATM   10  O   UNL     1      26.048  43.721  54.220  1.00  0.00    -0.271 OA
BRANCH   8  11
HETATM   11  C   UNL     1      28.947  44.346  54.202  1.00  0.00     0.046 A 
HETATM   12  C   UNL     1      29.886  43.286  54.256  1.00  0.00    -0.034 A 
HETATM   13  C   UNL     1      30.782  43.199  55.337  1.00  0.00     0.015 A 
HETATM   14  C   UNL     1      29.940  42.200  53.210  1.00  0.00     0.050 C 
HETATM   15  C   UNL     1      30.778  44.152  56.353  1.00  0.00    -0.061 A 
HETATM   16  C   UNL     1      31.703  44.039  57.528  1.00  0.00     0.048 C 
HETATM   17  C   UNL     1      29.894  45.229  56.259  1.00  0.00     0.015 A 
HETATM   18  C   UNL     1      29.003  45.363  55.176  1.00  0.00    -0.034 A 
HETATM   19  C   UNL     1      28.213  46.643  55.118  1.00  0.00     0.050 C 
ENDBRANCH   8  11
ENDBRANCH   6   7
ENDBRANCH   1   6
BRANCH   5  20
HETATM   20  N   UNL     1      25.068  46.858  51.897  1.00  0.00    -0.382 N 
HETATM   21  H   UNL     1      25.436  47.355  52.714  1.00  0.00     0.157 HD
HETATM   22  H   UNL     1      24.130  46.496  52.049  1.00  0.00     0.157 HD
ENDBRANCH   5  20
BRANCH   4  23
HETATM   23  C   UNL     1      26.528  48.263  49.413  1.00  0.00     0.275 C 
HETATM   24  N   UNL     1      25.281  48.593  48.943  1.00  0.00    -0.351 N 
HETATM   25  H   UNL     1      24.573  47.865  48.934  1.00  0.00     0.163 HD
HETATM   26  O   UNL     1      27.477  49.042  49.417  1.00  0.00    -0.266 OA
BRANCH  24  27
HETATM   27  C   UNL     1      24.946  49.904  48.451  1.00  0.00     0.161 C 
BRANCH  27  28
HETATM   28  C   UNL     1      23.454  50.018  48.290  1.00  0.00    -0.040 A 
HETATM   29  C   UNL     1      22.820  51.248  48.507  1.00  0.00     0.011 A 
HETATM   30  C   UNL     1      21.429  51.348  48.441  1.00  0.00     0.037 A 
HETATM   31  C   UNL     1      20.648  50.225  48.163  1.00  0.00     0.068 A 
HETATM   32  C   UNL     1      21.274  49.001  47.929  1.00  0.00     0.037 A 
HETATM   33  C   UNL     1      22.669  48.896  47.997  1.00  0.00     0.011 A 
BRANCH  31  34
HETATM   34  O   UNL     1      19.300  50.457  48.149  1.00  0.00    -0.356 OA
HETATM   35  C   UNL     1      18.885  51.817  48.151  1.00  0.00     0.210 C 
ENDBRANCH  31  34
ENDBRANCH  27  28
ENDBRANCH  24  27
ENDBRANCH   4  23
TORSDOF 8
ENDMDL
MODEL 3
REMARK VINA RESULT:     -10.0      1.429      2.351
REMARK  8 active torsions:
REMARK  status: ('A' for Active; 'I' for Inactive)
REMARK    1  A    between atoms: C_6  and  N_7 
REMARK       I    between atoms: N_7  and  C_8 
REMARK    2  A    between atoms: C_8  and  C_9 
REMARK    3  A    between atoms: C_9  and  N_10 
REMARK    4  A    between atoms: C_13  and  C_14 
REMARK       I    between atoms: C_14  and  N_15 
REMARK    5  A    between atoms: N_15  and  C_16 
REMARK    6  A    between atoms: C_16  and  C_17 
REMARK    7  A    between atoms: C_20  and  O_21 
REMARK    8  A    between atoms: C_26  and  N_27 
ROOT
HETATM    1  N   UNL     1      24.552  45.625  50.616  1.00  0.00    -0.248 N 
HETATM    2  N   UNL     1      25.047  46.625  51.377  1.00  0.00     0.007 NA
HETATM    3  N   UNL     1      24.631  47.765  50.849  1.00  0.00    -0.150 NA
HETATM    4  C   UNL     1      23.875  47.478  49.730  1.00  0.00     0.186 A 
HETATM    5  C   UNL     1      23.805  46.104  49.570  1.00  0.00     0.151 A 
ENDROOT
BRANCH   1   6
HETATM    6  C   UNL     1      24.889  44.263  50.951  1.00  0.00     0.251 C 
BRANCH   6   7
HETATM    7  C   UNL     1      26.292  44.149  51.503  1.00  0.00     0.241 C 
HETATM    8  N   UNL     1      26.346  43.920  52.871  1.00  0.00    -0.325 N 
HETATM    9  H   UNL     1      25.464  44.026  53.363  1.00  0.00     0.169 HD
HETATM   10  O   UNL     1      27.251  44.375  50.769  1.00  0.00    -0.271 OA
BRANCH   8  11
HETATM   11  C   UNL     1      27.506  43.892  53.683  1.00  0.00     0.046 A 
HETATM   12  C   UNL     1      27.782  45.052  54.449  1.00  0.00    -0.034 A 
HETATM   13  C   UNL     1      28.960  45.121  55.215  1.00  0.00     0.015 A 
HETATM   14  C   UNL     1      26.876  46.258  54.445  1.00  0.00     0.050 C 
HETATM   15  C   UNL     1      29.858  44.057  55.252  1.00  0.00    -0.061 A 
HETATM   16  C   UNL     1      31.134  44.143  56.034  1.00  0.00     0.048 C 
HETATM   17  C   UNL     1      29.546  42.892  54.547  1.00  0.00     0.015 A 
HETATM   18  C   UNL     1      28.362  42.778  53.793  1.00  0.00    -0.034 A 
HETATM   19  C   UNL     1      28.074  41.421  53.206  1.00  0.00     0.050 C 
ENDBRANCH   8  11
ENDBRANCH   6   7
ENDBRANCH   1   6
BRANCH   5  20
HETATM   20  N   UNL     1      23.206  45.321  48.645  1.00  0.00    -0.382 N 
HETATM   21  H   UNL     1      22.654  44.519  48.964  1.00  0.00     0.157 HD
HETATM   22  H   UNL     1      23.535  45.216  47.688  1.00  0.00     0.157 HD
ENDBRANCH   5  20
BRANCH   4  23
HETATM   23  C   UNL     1      23.284  48.517  48.897  1.00  0.00     0.275 C 
HETATM   24  N   UNL     1      23.026  49.673  49.591  1.00  0.00    -0.351 N 
HETATM   25  H   UNL     1      23.205  49.674  50.590  1.00  0.00     0.163 HD
HETATM   26  O   UNL     1      23.052  48.378  47.700  1.00  0.00    -0.266 OA
BRANCH  24  27
HETATM   27  C   UNL     1      22.499  50.861  48.971  1.00  0.00     0.161 C 
BRANCH  27  28
HETATM   28  C   UNL     1      21.012  50.929  49.190  1.00  0.00    -0.040 A 
HETATM   29  C   UNL     1      20.243  51.860  48.479  1.00  0.00     0.011 A 
HETATM   30  C   UNL     1      18.876  51.990  48.733  1.00  0.00     0.037 A 
HETATM   31  C   UNL     1      18.255  51.198  49.701  1.00  0.00     0.068 A 
HETATM   32  C   UNL     1      19.011  50.258  50.400  1.00  0.00     0.037 A 
HETATM   33  C   UNL     1      20.383  50.127  50.150  1.00  0.00     0.011 A 
BRANCH  31  34
HETATM   34  O   UNL     1      16.919  51.441  49.864  1.00  0.00    -0.356 OA
HETATM   35  C   UNL     1      16.529  52.799  50.019  1.00  0.00     0.210 C 
ENDBRANCH  31  34
ENDBRANCH  27  28
ENDBRANCH  24  27
ENDBRANCH   4  23
TORSDOF 8
ENDMDL
MODEL 4
REMARK VINA RESULT:      -9.0      5.073      8.755
REMARK  8 active torsions:
REMARK  status: ('A' for Active; 'I' for Inactive)
REMARK    1  A    between atoms: C_6  and  N_7 
REMARK       I    between atoms: N_7  and  C_8 
REMARK    2  A    between atoms: C_8  and  C_9 
REMARK    3  A    between atoms: C_9  and  N_10 
REMARK    4  A    between atoms: C_13  and  C_14 
REMARK       I    between atoms: C_14  and  N_15 
REMARK    5  A    between atoms: N_15  and  C_16 
REMARK    6  A    between atoms: C_16  and  C_17 
REMARK    7  A    between atoms: C_20  and  O_21 
REMARK    8  A    between atoms: C_26  and  N_27 
ROOT
HETATM    1  N   UNL     1      25.145  44.484  51.571  1.00  0.00    -0.248 N 
HETATM    2  N   UNL     1      23.849  44.107  51.539  1.00  0.00     0.007 NA
HETATM    3  N   UNL     1      23.743  43.136  50.647  1.00  0.00    -0.150 NA
HETATM    4  C   UNL     1      24.989  42.908  50.099  1.00  0.00     0.186 A 
HETATM    5  C   UNL     1      25.907  43.762  50.689  1.00  0.00     0.151 A 
ENDROOT
BRANCH   1   6
HETATM    6  C   UNL     1      25.535  45.566  52.442  1.00  0.00     0.251 C 
BRANCH   6   7
HETATM    7  C   UNL     1      26.321  45.074  53.636  1.00  0.00     0.241 C 
HETATM    8  N   UNL     1      27.697  45.142  53.476  1.00  0.00    -0.325 N 
HETATM    9  H   UNL     1      28.014  45.347  52.533  1.00  0.00     0.169 HD
HETATM   10  O   UNL     1      25.727  44.556  54.579  1.00  0.00    -0.271 OA
BRANCH   8  11
HETATM   11  C   UNL     1      28.683  44.642  54.362  1.00  0.00     0.046 A 
HETATM   12  C   UNL     1      29.060  45.479  55.442  1.00  0.00    -0.034 A 
HETATM   13  C   UNL     1      30.090  45.077  56.312  1.00  0.00     0.015 A 
HETATM   14  C   UNL     1      28.427  46.827  55.679  1.00  0.00     0.050 C 
HETATM   15  C   UNL     1      30.738  43.855  56.144  1.00  0.00    -0.061 A 
HETATM   16  C   UNL     1      31.864  43.443  57.044  1.00  0.00     0.048 C 
HETATM   17  C   UNL     1      30.316  43.008  55.118  1.00  0.00     0.015 A 
HETATM   18  C   UNL     1      29.269  43.366  54.246  1.00  0.00    -0.034 A 
HETATM   19  C   UNL     1      28.812  42.303  53.281  1.00  0.00     0.050 C 
ENDBRANCH   8  11
ENDBRANCH   6   7
ENDBRANCH   1   6
BRANCH   5  20
HETATM   20  N   UNL     1      27.234  43.943  50.506  1.00  0.00    -0.382 N 
HETATM   21  H   UNL     1      27.878  43.212  50.824  1.00  0.00     0.157 HD
HETATM   22  H   UNL     1      27.680  44.854  50.433  1.00  0.00     0.157 HD
ENDBRANCH   5  20
BRANCH   4  23
HETATM   23  C   UNL     1      25.217  41.913  49.060  1.00  0.00     0.275 C 
HETATM   24  N   UNL     1      26.474  41.991  48.514  1.00  0.00    -0.351 N 
HETATM   25  H   UNL     1      27.080  42.742  48.829  1.00  0.00     0.163 HD
HETATM   26  O   UNL     1      24.378  41.086  48.715  1.00  0.00    -0.266 OA
BRANCH  24  27
HETATM   27  C   UNL     1      26.954  41.074  47.513  1.00  0.00     0.161 C 
BRANCH  27  28
HETATM   28  C   UNL     1      27.770  39.992  48.167  1.00  0.00    -0.040 A 
HETATM   29  C   UNL     1      28.161  40.124  49.506  1.00  0.00     0.011 A 
HETATM   30  C   UNL     1      28.985  39.167  50.100  1.00  0.00     0.037 A 
HETATM   31  C   UNL     1      29.437  38.067  49.369  1.00  0.00     0.068 A 
HETATM   32  C   UNL     1      29.038  37.920  48.041  1.00  0.00     0.037 A 
HETATM   33  C   UNL     1      28.213  38.879  47.441  1.00  0.00     0.011 A 
BRANCH  31  34
HETATM   34  O   UNL     1      30.255  37.218  50.064  1.00  0.00    -0.356 OA
HETATM   35  C   UNL     1      29.920  36.978  51.425  1.00  0.00     0.210 C 
ENDBRANCH  31  34
ENDBRANCH  27  28
ENDBRANCH  24  27
ENDBRANCH   4  23
TORSDOF 8
ENDMDL
MODEL 5
REMARK VINA RESULT:      -8.9      2.426      3.042
REMARK  8 active torsions:
REMARK  status: ('A' for Active; 'I' for Inactive)
REMARK    1  A    between atoms: C_6  and  N_7 
REMARK       I    between atoms: N_7  and  C_8 
REMARK    2  A    between atoms: C_8  and  C_9 
REMARK    3  A    between atoms: C_9  and  N_10 
REMARK    4  A    between atoms: C_13  and  C_14 
REMARK       I    between atoms: C_14  and  N_15 
REMARK    5  A    between atoms: N_15  and  C_16 
REMARK    6  A    between atoms: C_16  and  C_17 
REMARK    7  A    between atoms: C_20  and  O_21 
REMARK    8  A    between atoms: C_26  and  N_27 
ROOT
HETATM    1  N   UNL     1      24.828  43.148  49.873  1.00  0.00    -0.248 N 
HETATM    2  N   UNL     1      24.209  43.535  51.010  1.00  0.00     0.007 NA
HETATM    3  N   UNL     1      23.011  43.984  50.673  1.00  0.00    -0.150 NA
HETATM    4  C   UNL     1      22.880  43.891  49.301  1.00  0.00     0.186 A 
HETATM    5  C   UNL     1      24.037  43.346  48.770  1.00  0.00     0.151 A 
ENDROOT
BRANCH   1   6
HETATM    6  C   UNL     1      26.179  42.648  49.952  1.00  0.00     0.251 C 
BRANCH   6   7
HETATM    7  C   UNL     1      27.064  43.544  50.790  1.00  0.00     0.241 C 
HETATM    8  N   UNL     1      27.072  43.228  52.140  1.00  0.00    -0.325 N 
HETATM    9  H   UNL     1      26.367  42.559  52.434  1.00  0.00     0.169 HD
HETATM   10  O   UNL     1      27.598  44.521  50.271  1.00  0.00    -0.271 OA
BRANCH   8  11
HETATM   11  C   UNL     1      27.700  43.957  53.180  1.00  0.00     0.046 A 
HETATM   12  C   UNL     1      28.963  43.488  53.622  1.00  0.00    -0.034 A 
HETATM   13  C   UNL     1      29.604  44.118  54.705  1.00  0.00     0.015 A 
HETATM   14  C   UNL     1      29.644  42.294  53.001  1.00  0.00     0.050 C 
HETATM   15  C   UNL     1      29.027  45.213  55.344  1.00  0.00    -0.061 A 
HETATM   16  C   UNL     1      29.687  45.860  56.524  1.00  0.00     0.048 C 
HETATM   17  C   UNL     1      27.814  45.710  54.861  1.00  0.00     0.015 A 
HETATM   18  C   UNL     1      27.159  45.121  53.761  1.00  0.00    -0.034 A 
HETATM   19  C   UNL     1      25.941  45.842  53.248  1.00  0.00     0.050 C 
ENDBRANCH   8  11
ENDBRANCH   6   7
ENDBRANCH   1   6
BRANCH   5  20
HETATM   20  N   UNL     1      24.414  43.059  47.504  1.00  0.00    -0.382 N 
HETATM   21  H   UNL     1      25.106  43.663  47.050  1.00  0.00     0.157 HD
HETATM   22  H   UNL     1      23.836  42.554  46.838  1.00  0.00     0.157 HD
ENDBRANCH   5  20
BRANCH   4  23
HETATM   23  C   UNL     1      21.681  44.329  48.599  1.00  0.00     0.275 C 
HETATM   24  N   UNL     1      21.094  45.425  49.179  1.00  0.00    -0.351 N 
HETATM   25  H   UNL     1      21.498  45.776  50.042  1.00  0.00     0.163 HD
HETATM   26  O   UNL     1      21.247  43.782  47.589  1.00  0.00    -0.266 OA
BRANCH  24  27
HETATM   27  C   UNL     1      19.933  46.078  48.632  1.00  0.00     0.161 C 
BRANCH  27  28
HETATM   28  C   UNL     1      19.912  47.519  49.064  1.00  0.00    -0.040 A 
HETATM   29  C   UNL     1      18.730  48.082  49.564  1.00  0.00     0.011 A 
HETATM   30  C   UNL     1      18.675  49.438  49.891  1.00  0.00     0.037 A 
HETATM   31  C   UNL     1      19.793  50.255  49.723  1.00  0.00     0.068 A 
HETATM   32  C   UNL     1      20.978  49.699  49.242  1.00  0.00     0.037 A 
HETATM   33  C   UNL     1      21.036  48.339  48.910  1.00  0.00     0.011 A 
BRANCH  31  34
HETATM   34  O   UNL     1      19.597  51.566  50.061  1.00  0.00    -0.356 OA
HETATM   35  C   UNL     1      18.303  52.102  49.822  1.00  0.00     0.210 C 
ENDBRANCH  31  34
ENDBRANCH  27  28
ENDBRANCH  24  27
ENDBRANCH   4  23
TORSDOF 8
ENDMDL
MODEL 6
REMARK VINA RESULT:      -8.7      3.218      9.917
REMARK  8 active torsions:
REMARK  status: ('A' for Active; 'I' for Inactive)
REMARK    1  A    between atoms: C_6  and  N_7 
REMARK       I    between atoms: N_7  and  C_8 
REMARK    2  A    between atoms: C_8  and  C_9 
REMARK    3  A    between atoms: C_9  and  N_10 
REMARK    4  A    between atoms: C_13  and  C_14 
REMARK       I    between atoms: C_14  and  N_15 
REMARK    5  A    between atoms: N_15  and  C_16 
REMARK    6  A    between atoms: C_16  and  C_17 
REMARK    7  A    between atoms: C_20  and  O_21 
REMARK    8  A    between atoms: C_26  and  N_27 
ROOT
HETATM    1  N   UNL     1      24.207  42.210  49.755  1.00  0.00    -0.248 N 
HETATM    2  N   UNL     1      24.566  41.190  48.946  1.00  0.00     0.007 NA
HETATM    3  N   UNL     1      25.711  40.709  49.401  1.00  0.00    -0.150 NA
HETATM    4  C   UNL     1      26.086  41.448  50.505  1.00  0.00     0.186 A 
HETATM    5  C   UNL     1      25.125  42.414  50.754  1.00  0.00     0.151 A 
ENDROOT
BRANCH   1   6
HETATM    6  C   UNL     1      23.001  42.943  49.458  1.00  0.00     0.251 C 
BRANCH   6   7
HETATM    7  C   UNL     1      23.292  44.244  48.743  1.00  0.00     0.241 C 
HETATM    8  N   UNL     1      22.977  45.377  49.478  1.00  0.00    -0.325 N 
HETATM    9  H   UNL     1      22.438  45.210  50.323  1.00  0.00     0.169 HD
HETATM   10  O   UNL     1      23.657  44.219  47.570  1.00  0.00    -0.271 OA
BRANCH   8  11
HETATM   11  C   UNL     1      23.020  46.720  49.031  1.00  0.00     0.046 A 
HETATM   12  C   UNL     1      24.122  47.504  49.457  1.00  0.00    -0.034 A 
HETATM   13  C   UNL     1      24.184  48.867  49.115  1.00  0.00     0.015 A 
HETATM   14  C   UNL     1      25.229  46.944  50.315  1.00  0.00     0.050 C 
HETATM   15  C   UNL     1      23.189  49.462  48.343  1.00  0.00    -0.061 A 
HETATM   16  C   UNL     1      23.231  50.924  48.012  1.00  0.00     0.048 C 
HETATM   17  C   UNL     1      22.141  48.668  47.872  1.00  0.00     0.015 A 
HETATM   18  C   UNL     1      22.062  47.293  48.172  1.00  0.00    -0.034 A 
HETATM   19  C   UNL     1      20.968  46.523  47.480  1.00  0.00     0.050 C 
ENDBRANCH   8  11
ENDBRANCH   6   7
ENDBRANCH   1   6
BRANCH   5  20
HETATM   20  N   UNL     1      25.021  43.379  51.695  1.00  0.00    -0.382 N 
HETATM   21  H   UNL     1      24.093  43.604  52.066  1.00  0.00     0.157 HD
HETATM   22  H   UNL     1      25.683  44.142  51.803  1.00  0.00     0.157 HD
ENDBRANCH   5  20
BRANCH   4  23
HETATM   23  C   UNL     1      27.322  41.193  51.234  1.00  0.00     0.275 C 
HETATM   24  N   UNL     1      27.223  41.490  52.570  1.00  0.00    -0.351 N 
HETATM   25  H   UNL     1      26.355  41.900  52.900  1.00  0.00     0.163 HD
HETATM   26  O   UNL     1      28.340  40.750  50.712  1.00  0.00    -0.266 OA
BRANCH  24  27
HETATM   27  C   UNL     1      28.293  41.264  53.507  1.00  0.00     0.161 C 
BRANCH  27  28
HETATM   28  C   UNL     1      28.703  42.571  54.131  1.00  0.00    -0.040 A 
HETATM   29  C   UNL     1      29.983  42.710  54.685  1.00  0.00     0.011 A 
HETATM   30  C   UNL     1      30.346  43.889  55.338  1.00  0.00     0.037 A 
HETATM   31  C   UNL     1      29.441  44.945  55.454  1.00  0.00     0.068 A 
HETATM   32  C   UNL     1      28.172  44.820  54.891  1.00  0.00     0.037 A 
HETATM   33  C   UNL     1      27.802  43.638  54.237  1.00  0.00     0.011 A 
BRANCH  31  34
HETATM   34  O   UNL     1      29.917  46.031  56.136  1.00  0.00    -0.356 OA
HETATM   35  C   UNL     1      30.036  45.900  57.547  1.00  0.00     0.210 C 
ENDBRANCH  31  34
ENDBRANCH  27  28
ENDBRANCH  24  27
ENDBRANCH   4  23
TORSDOF 8
ENDMDL
MODEL 7
REMARK VINA RESULT:      -8.1      5.164      8.375
REMARK  8 active torsions:
REMARK  status: ('A' for Active; 'I' for Inactive)
REMARK    1  A    between atoms: C_6  and  N_7 
REMARK       I    between atoms: N_7  and  C_8 
REMARK    2  A    between atoms: C_8  and  C_9 
REMARK    3  A    between atoms: C_9  and  N_10 
REMARK    4  A    between atoms: C_13  and  C_14 
REMARK       I    between atoms: C_14  and  N_15 
REMARK    5  A    between atoms: N_15  and  C_16 
REMARK    6  A    between atoms: C_16  and  C_17 
REMARK    7  A    between atoms: C_20  and  O_21 
REMARK    8  A    between atoms: C_26  and  N_27 
ROOT
HETATM    1  N   UNL     1      25.210  43.823  51.633  1.00  0.00    -0.248 N 
HETATM    2  N   UNL     1      26.221  42.928  51.607  1.00  0.00     0.007 NA
HETATM    3  N   UNL     1      25.975  42.083  50.619  1.00  0.00    -0.150 NA
HETATM    4  C   UNL     1      24.783  42.444  50.023  1.00  0.00     0.186 A 
HETATM    5  C   UNL     1      24.281  43.569  50.657  1.00  0.00     0.151 A 
ENDROOT
BRANCH   1   6
HETATM    6  C   UNL     1      25.211  44.845  52.651  1.00  0.00     0.251 C 
BRANCH   6   7
HETATM    7  C   UNL     1      26.105  44.481  53.815  1.00  0.00     0.241 C 
HETATM    8  N   UNL     1      27.451  44.737  53.597  1.00  0.00    -0.325 N 
HETATM    9  H   UNL     1      27.699  44.971  52.640  1.00  0.00     0.169 HD
HETATM   10  O   UNL     1      25.627  43.897  54.785  1.00  0.00    -0.271 OA
BRANCH   8  11
HETATM   11  C   UNL     1      28.531  44.389  54.445  1.00  0.00     0.046 A 
HETATM   12  C   UNL     1      28.985  45.383  55.349  1.00  0.00    -0.034 A 
HETATM   13  C   UNL     1      30.105  45.130  56.162  1.00  0.00     0.015 A 
HETATM   14  C   UNL     1      28.337  46.741  55.448  1.00  0.00     0.050 C 
HETATM   15  C   UNL     1      30.770  43.907  56.112  1.00  0.00    -0.061 A 
HETATM   16  C   UNL     1      31.988  43.650  56.947  1.00  0.00     0.048 C 
HETATM   17  C   UNL     1      30.277  42.910  55.267  1.00  0.00     0.015 A 
HETATM   18  C   UNL     1      29.141  43.119  54.460  1.00  0.00    -0.034 A 
HETATM   19  C   UNL     1      28.627  41.918  53.711  1.00  0.00     0.050 C 
ENDBRANCH   8  11
ENDBRANCH   6   7
ENDBRANCH   1   6
BRANCH   5  20
HETATM   20  N   UNL     1      23.161  44.301  50.467  1.00  0.00    -0.382 N 
HETATM   21  H   UNL     1      22.356  43.858  50.013  1.00  0.00     0.157 HD
HETATM   22  H   UNL     1      23.149  45.314  50.384  1.00  0.00     0.157 HD
ENDBRANCH   5  20
BRANCH   4  23
HETATM   23  C   UNL     1      24.207  41.700  48.911  1.00  0.00     0.275 C 
HETATM   24  N   UNL     1      25.109  40.857  48.311  1.00  0.00    -0.351 N 
HETATM   25  H   UNL     1      26.067  40.876  48.644  1.00  0.00     0.163 HD
HETATM   26  O   UNL     1      23.038  41.807  48.554  1.00  0.00    -0.266 OA
BRANCH  24  27
HETATM   27  C   UNL     1      24.759  39.973  47.229  1.00  0.00     0.161 C 
BRANCH  27  28
HETATM   28  C   UNL     1      25.879  39.937  46.224  1.00  0.00    -0.040 A 
HETATM   29  C   UNL     1      25.825  39.039  45.150  1.00  0.00     0.011 A 
HETATM   30  C   UNL     1      26.894  38.938  44.257  1.00  0.00     0.037 A 
HETATM   31  C   UNL     1      28.034  39.726  44.423  1.00  0.00     0.068 A 
HETATM   32  C   UNL     1      28.088  40.634  45.480  1.00  0.00     0.037 A 
HETATM   33  C   UNL     1      27.019  40.736  46.378  1.00  0.00     0.011 A 
BRANCH  31  34
HETATM   34  O   UNL     1      29.014  39.512  43.493  1.00  0.00    -0.356 OA
HETATM   35  C   UNL     1      29.568  38.204  43.435  1.00  0.00     0.210 C 
ENDBRANCH  31  34
ENDBRANCH  27  28
ENDBRANCH  24  27
ENDBRANCH   4  23
TORSDOF 8
ENDMDL
MODEL 8
REMARK VINA RESULT:      -8.1      3.318     10.965
REMARK  8 active torsions:
REMARK  status: ('A' for Active; 'I' for Inactive)
REMARK    1  A    between atoms: C_6  and  N_7 
REMARK       I    between atoms: N_7  and  C_8 
REMARK    2  A    between atoms: C_8  and  C_9 
REMARK    3  A    between atoms: C_9  and  N_10 
REMARK    4  A    between atoms: C_13  and  C_14 
REMARK       I    between atoms: C_14  and  N_15 
REMARK    5  A    between atoms: N_15  and  C_16 
REMARK    6  A    between atoms: C_16  and  C_17 
REMARK    7  A    between atoms: C_20  and  O_21 
REMARK    8  A    between atoms: C_26  and  N_27 
ROOT
HETATM    1  N   UNL     1      20.597  46.933  47.460  1.00  0.00    -0.248 N 
HETATM    2  N   UNL     1      21.780  47.492  47.126  1.00  0.00     0.007 NA
HETATM    3  N   UNL     1      22.728  46.806  47.741  1.00  0.00    -0.150 NA
HETATM    4  C   UNL     1      22.132  45.807  48.486  1.00  0.00     0.186 A 
HETATM    5  C   UNL     1      20.759  45.868  48.309  1.00  0.00     0.151 A 
ENDROOT
BRANCH   1   6
HETATM    6  C   UNL     1      19.381  47.518  46.949  1.00  0.00     0.251 C 
BRANCH   6   7
HETATM    7  C   UNL     1      18.689  48.375  47.985  1.00  0.00     0.241 C 
HETATM    8  N   UNL     1      18.227  49.589  47.499  1.00  0.00    -0.325 N 
HETATM    9  H   UNL     1      18.551  49.835  46.568  1.00  0.00     0.169 HD
HETATM   10  O   UNL     1      18.686  48.018  49.161  1.00  0.00    -0.271 OA
BRANCH   8  11
HETATM   11  C   UNL     1      17.657  50.646  48.251  1.00  0.00     0.046 A 
HETATM   12  C   UNL     1      16.255  50.604  48.457  1.00  0.00    -0.034 A 
HETATM   13  C   UNL     1      15.614  51.663  49.126  1.00  0.00     0.015 A 
HETATM   14  C   UNL     1      15.396  49.476  47.941  1.00  0.00     0.050 C 
HETATM   15  C   UNL     1      16.337  52.750  49.612  1.00  0.00    -0.061 A 
HETATM   16  C   UNL     1      15.652  53.899  50.288  1.00  0.00     0.048 C 
HETATM   17  C   UNL     1      17.726  52.752  49.463  1.00  0.00     0.015 A 
HETATM   18  C   UNL     1      18.403  51.695  48.823  1.00  0.00    -0.034 A 
HETATM   19  C   UNL     1      19.908  51.748  48.863  1.00  0.00     0.050 C 
ENDBRANCH   8  11
ENDBRANCH   6   7
ENDBRANCH   1   6
BRANCH   5  20
HETATM   20  N   UNL     1      19.740  45.135  48.811  1.00  0.00    -0.382 N 
HETATM   21  H   UNL     1      19.954  44.235  49.250  1.00  0.00     0.157 HD
HETATM   22  H   UNL     1      18.780  45.194  48.483  1.00  0.00     0.157 HD
ENDBRANCH   5  20
BRANCH   4  23
HETATM   23  C   UNL     1      22.898  44.882  49.309  1.00  0.00     0.275 C 
HETATM   24  N   UNL     1      24.228  45.210  49.383  1.00  0.00    -0.351 N 
HETATM   25  H   UNL     1      24.551  45.999  48.831  1.00  0.00     0.163 HD
HETATM   26  O   UNL     1      22.405  43.916  49.884  1.00  0.00    -0.266 OA
BRANCH  24  27
HETATM   27  C   UNL     1      25.175  44.481  50.186  1.00  0.00     0.161 C 
BRANCH  27  28
HETATM   28  C   UNL     1      25.335  45.159  51.520  1.00  0.00    -0.040 A 
HETATM   29  C   UNL     1      25.539  46.544  51.580  1.00  0.00     0.011 A 
HETATM   30  C   UNL     1      25.771  47.173  52.805  1.00  0.00     0.037 A 
HETATM   31  C   UNL     1      25.808  46.432  53.988  1.00  0.00     0.068 A 
HETATM   32  C   UNL     1      25.590  45.056  53.937  1.00  0.00     0.037 A 
HETATM   33  C   UNL     1      25.359  44.422  52.710  1.00  0.00     0.011 A 
BRANCH  31  34
HETATM   34  O   UNL     1      26.066  47.167  55.112  1.00  0.00    -0.356 OA
HETATM   35  C   UNL     1      27.314  47.845  55.163  1.00  0.00     0.210 C 
ENDBRANCH  31  34
ENDBRANCH  27  28
ENDBRANCH  24  27
ENDBRANCH   4  23
TORSDOF 8
ENDMDL
MODEL 9
REMARK VINA RESULT:      -8.0      6.625     10.090
REMARK  8 active torsions:
REMARK  status: ('A' for Active; 'I' for Inactive)
REMARK    1  A    between atoms: C_6  and  N_7 
REMARK       I    between atoms: N_7  and  C_8 
REMARK    2  A    between atoms: C_8  and  C_9 
REMARK    3  A    between atoms: C_9  and  N_10 
REMARK    4  A    between atoms: C_13  and  C_14 
REMARK       I    between atoms: C_14  and  N_15 
REMARK    5  A    between atoms: N_15  and  C_16 
REMARK    6  A    between atoms: C_16  and  C_17 
REMARK    7  A    between atoms: C_20  and  O_21 
REMARK    8  A    between atoms: C_26  and  N_27 
ROOT
HETATM    1  N   UNL     1      25.470  41.660  49.593  1.00  0.00    -0.248 N 
HETATM    2  N   UNL     1      25.299  42.157  48.349  1.00  0.00     0.007 NA
HETATM    3  N   UNL     1      25.594  41.190  47.494  1.00  0.00    -0.150 NA
HETATM    4  C   UNL     1      25.970  40.072  48.212  1.00  0.00     0.186 A 
HETATM    5  C   UNL     1      25.886  40.353  49.566  1.00  0.00     0.151 A 
ENDROOT
BRANCH   1   6
HETATM    6  C   UNL     1      25.250  42.526  50.725  1.00  0.00     0.251 C 
BRANCH   6   7
HETATM    7  C   UNL     1      26.548  43.060  51.287  1.00  0.00     0.241 C 
HETATM    8  N   UNL     1      26.745  42.771  52.630  1.00  0.00    -0.325 N 
HETATM    9  H   UNL     1      25.937  42.394  53.115  1.00  0.00     0.169 HD
HETATM   10  O   UNL     1      27.255  43.785  50.591  1.00  0.00    -0.271 OA
BRANCH   8  11
HETATM   11  C   UNL     1      27.796  43.241  53.456  1.00  0.00     0.046 A 
HETATM   12  C   UNL     1      28.941  42.414  53.571  1.00  0.00    -0.034 A 
HETATM   13  C   UNL     1      29.986  42.782  54.438  1.00  0.00     0.015 A 
HETATM   14  C   UNL     1      29.073  41.108  52.828  1.00  0.00     0.050 C 
HETATM   15  C   UNL     1      29.927  43.963  55.175  1.00  0.00    -0.061 A 
HETATM   16  C   UNL     1      31.019  44.338  56.131  1.00  0.00     0.048 C 
HETATM   17  C   UNL     1      28.825  44.805  55.006  1.00  0.00     0.015 A 
HETATM   18  C   UNL     1      27.774  44.480  54.125  1.00  0.00    -0.034 A 
HETATM   19  C   UNL     1      26.724  45.540  53.923  1.00  0.00     0.050 C 
ENDBRANCH   8  11
ENDBRANCH   6   7
ENDBRANCH   1   6
BRANCH   5  20
HETATM   20  N   UNL     1      26.147  39.617  50.670  1.00  0.00    -0.382 N 
HETATM   21  H   UNL     1      25.501  38.862  50.919  1.00  0.00     0.157 HD
HETATM   22  H   UNL     1      26.684  39.952  51.465  1.00  0.00     0.157 HD
ENDBRANCH   5  20
BRANCH   4  23
HETATM   23  C   UNL     1      26.384  38.833  47.570  1.00  0.00     0.275 C 
HETATM   24  N   UNL     1      26.601  38.978  46.222  1.00  0.00    -0.351 N 
HETATM   25  H   UNL     1      26.401  39.882  45.806  1.00  0.00     0.163 HD
HETATM   26  O   UNL     1      26.533  37.773  48.170  1.00  0.00    -0.266 OA
BRANCH  24  27
HETATM   27  C   UNL     1      27.075  37.909  45.382  1.00  0.00     0.161 C 
BRANCH  27  28
HETATM   28  C   UNL     1      28.254  38.384  44.576  1.00  0.00    -0.040 A 
HETATM   29  C   UNL     1      28.324  39.720  44.160  1.00  0.00     0.011 A 
HETATM   30  C   UNL     1      29.370  40.153  43.344  1.00  0.00     0.037 A 
HETATM   31  C   UNL     1      30.361  39.262  42.926  1.00  0.00     0.068 A 
HETATM   32  C   UNL     1      30.307  37.934  43.350  1.00  0.00     0.037 A 
HETATM   33  C   UNL     1      29.257  37.496  44.167  1.00  0.00     0.011 A 
BRANCH  31  34
HETATM   34  O   UNL     1      31.314  39.810  42.113  1.00  0.00    -0.356 OA
HETATM   35  C   UNL     1      31.902  38.950  41.145  1.00  0.00     0.210 C 
ENDBRANCH  31  34
ENDBRANCH  27  28
ENDBRANCH  24  27
ENDBRANCH   4  23
TORSDOF 8
ENDMDL
MODEL 10
REMARK VINA RESULT:      -8.0      6.339     10.207
REMARK  8 active torsions:
REMARK  status: ('A' for Active; 'I' for Inactive)
REMARK    1  A    between atoms: C_6  and  N_7 
REMARK       I    between atoms: N_7  and  C_8 
REMARK    2  A    between atoms: C_8  and  C_9 
REMARK    3  A    between atoms: C_9  and  N_10 
REMARK    4  A    between atoms: C_13  and  C_14 
REMARK       I    between atoms: C_14  and  N_15 
REMARK    5  A    between atoms: N_15  and  C_16 
REMARK    6  A    between atoms: C_16  and  C_17 
REMARK    7  A    between atoms: C_20  and  O_21 
REMARK    8  A    between atoms: C_26  and  N_27 
ROOT
HETATM    1  N   UNL     1      26.480  42.201  50.054  1.00  0.00    -0.248 N 
HETATM    2  N   UNL     1      26.998  42.571  48.863  1.00  0.00     0.007 NA
HETATM    3  N   UNL     1      27.549  41.497  48.322  1.00  0.00    -0.150 NA
HETATM    4  C   UNL     1      27.388  40.438  49.194  1.00  0.00     0.186 A 
HETATM    5  C   UNL     1      26.693  40.871  50.311  1.00  0.00     0.151 A 
ENDROOT
BRANCH   1   6
HETATM    6  C   UNL     1      25.847  43.202  50.879  1.00  0.00     0.251 C 
BRANCH   6   7
HETATM    7  C   UNL     1      26.858  44.025  51.645  1.00  0.00     0.241 C 
HETATM    8  N   UNL     1      27.063  43.599  52.949  1.00  0.00    -0.325 N 
HETATM    9  H   UNL     1      26.400  42.909  53.289  1.00  0.00     0.169 HD
HETATM   10  O   UNL     1      27.322  45.041  51.133  1.00  0.00    -0.271 OA
BRANCH   8  11
HETATM   11  C   UNL     1      27.847  44.240  53.939  1.00  0.00     0.046 A 
HETATM   12  C   UNL     1      29.137  43.705  54.183  1.00  0.00    -0.034 A 
HETATM   13  C   UNL     1      29.936  44.243  55.208  1.00  0.00     0.015 A 
HETATM   14  C   UNL     1      29.685  42.532  53.409  1.00  0.00     0.050 C 
HETATM   15  C   UNL     1      29.490  45.313  55.981  1.00  0.00    -0.061 A 
HETATM   16  C   UNL     1      30.321  45.862  57.101  1.00  0.00     0.048 C 
HETATM   17  C   UNL     1      28.246  45.877  55.692  1.00  0.00     0.015 A 
HETATM   18  C   UNL     1      27.432  45.381  54.654  1.00  0.00    -0.034 A 
HETATM   19  C   UNL     1      26.187  46.171  54.349  1.00  0.00     0.050 C 
ENDBRANCH   8  11
ENDBRANCH   6   7
ENDBRANCH   1   6
BRANCH   5  20
HETATM   20  N   UNL     1      26.292  40.242  51.438  1.00  0.00    -0.382 N 
HETATM   21  H   UNL     1      25.764  39.369  51.351  1.00  0.00     0.157 HD
HETATM   22  H   UNL     1      26.133  40.710  52.326  1.00  0.00     0.157 HD
ENDBRANCH   5  20
BRANCH   4  23
HETATM   23  C   UNL     1      27.906  39.106  48.911  1.00  0.00     0.275 C 
HETATM   24  N   UNL     1      27.630  38.687  47.633  1.00  0.00    -0.351 N 
HETATM   25  H   UNL     1      27.061  39.294  47.050  1.00  0.00     0.163 HD
HETATM   26  O   UNL     1      28.533  38.434  49.724  1.00  0.00    -0.266 OA
BRANCH  24  27
HETATM   27  C   UNL     1      28.091  37.432  47.100  1.00  0.00     0.161 C 
BRANCH  27  28
HETATM   28  C   UNL     1      28.749  37.660  45.766  1.00  0.00    -0.040 A 
HETATM   29  C   UNL     1      28.379  38.762  44.983  1.00  0.00     0.011 A 
HETATM   30  C   UNL     1      28.922  38.939  43.709  1.00  0.00     0.037 A 
HETATM   31  C   UNL     1      29.837  38.021  43.193  1.00  0.00     0.068 A 
HETATM   32  C   UNL     1      30.223  36.931  43.973  1.00  0.00     0.037 A 
HETATM   33  C   UNL     1      29.679  36.749  45.250  1.00  0.00     0.011 A 
BRANCH  31  34
HETATM   34  O   UNL     1      30.274  38.301  41.927  1.00  0.00    -0.356 OA
HETATM   35  C   UNL     1      31.598  38.804  41.803  1.00  0.00     0.210 C 
ENDBRANCH  31  34
ENDBRANCH  27  28
ENDBRANCH  24  27
ENDBRANCH   4  23
TORSDOF 8
ENDMDL
