MODEL 1
REMARK VINA RESULT:      -7.5      0.000      0.000
REMARK  9 active torsions:
REMARK  status: ('A' for Active; 'I' for Inactive)
REMARK    1  A    between atoms: C_2  and  C_3 
REMARK    2  A    between atoms: C_3  and  C_4 
REMARK    3  A    between atoms: C_4  and  N_5 
REMARK    4  A    between atoms: C_9  and  C_10 
REMARK    5  A    between atoms: C_13  and  C_14 
REMARK    6  A    between atoms: C_14  and  O_15 
REMARK    7  A    between atoms: C_20  and  C_21 
REMARK       I    between atoms: C_21  and  N_22 
REMARK    8  A    between atoms: N_22  and  C_23 
REMARK    9  A    between atoms: C_24  and  O_25 
ROOT
HETATM    1  N   UNL     1      17.870  48.157  46.234  1.00  0.00    -0.303 N 
HETATM    2  C   UNL     1      18.136  49.391  45.646  1.00  0.00     0.323 C 
HETATM    3  O   UNL     1      17.967  49.645  44.455  1.00  0.00    -0.247 OA
HETATM    4  N   UNL     1      18.658  50.354  46.449  1.00  0.00    -0.330 N 
HETATM    5  C   UNL     1      18.741  50.293  47.887  1.00  0.00     0.160 C 
HETATM    6  C   UNL     1      18.630  48.874  48.364  1.00  0.00     0.059 C 
HETATM    7  C   UNL     1      18.081  47.905  47.601  1.00  0.00     0.026 C 
HETATM    8  C   UNL     1      17.657  46.565  48.159  1.00  0.00     0.069 C 
HETATM    9  H   UNL     1      18.774  51.249  45.997  1.00  0.00     0.165 HD
ENDROOT
BRANCH   6  10
HETATM   10  C   UNL     1      19.113  48.658  49.759  1.00  0.00     0.256 C 
HETATM   11  N   UNL     1      20.409  48.893  50.114  1.00  0.00    -0.321 N 
HETATM   12  H   UNL     1      20.639  48.464  51.007  1.00  0.00     0.169 HD
HETATM   13  O   UNL     1      18.340  48.241  50.621  1.00  0.00    -0.267 OA
BRANCH  11  14
HETATM   14  C   UNL     1      21.514  49.454  49.445  1.00  0.00     0.068 A 
HETATM   15  C   UNL     1      22.307  48.567  48.695  1.00  0.00     0.095 A 
HETATM   16  C   UNL     1      23.384  49.032  47.940  1.00  0.00     0.039 A 
HETATM   17  C   UNL     1      23.673  50.395  47.923  1.00  0.00     0.003 A 
HETATM   18  C   UNL     1      22.911  51.278  48.688  1.00  0.00     0.002 A 
HETATM   19  C   UNL     1      21.842  50.809  49.460  1.00  0.00     0.032 A 
BRANCH  15  20
HETATM   20  O   UNL     1      21.992  47.229  48.735  1.00  0.00    -0.354 OA
HETATM   21  C   UNL     1      21.673  46.724  47.438  1.00  0.00     0.210 C 
ENDBRANCH  15  20
ENDBRANCH  11  14
ENDBRANCH   6  10
BRANCH   5  22
HETATM   22  C   UNL     1      17.694  51.216  48.507  1.00  0.00    -0.031 A 
HETATM   23  C   UNL     1      16.320  50.943  48.394  1.00  0.00     0.010 A 
HETATM   24  C   UNL     1      15.377  51.728  49.066  1.00  0.00     0.018 A 
HETATM   25  C   UNL     1      15.789  52.807  49.856  1.00  0.00     0.039 A 
HETATM   26  C   UNL     1      17.153  53.117  49.934  1.00  0.00     0.018 A 
HETATM   27  C   UNL     1      18.095  52.328  49.264  1.00  0.00     0.010 A 
BRANCH  25  28
HETATM   28  C   UNL     1      14.753  53.560  50.615  1.00  0.00     0.292 C 
HETATM   29  O   UNL     1      13.705  53.063  50.998  1.00  0.00    -0.259 OA
BRANCH  28  30
HETATM   30  O   UNL     1      15.152  54.837  50.840  1.00  0.00    -0.323 OA
HETATM   31  C   UNL     1      14.604  55.786  49.925  1.00  0.00     0.213 C 
ENDBRANCH  28  30
ENDBRANCH  25  28
ENDBRANCH   5  22
BRANCH   1  32
HETATM   32  C   UNL     1      17.584  47.058  45.303  1.00  0.00     0.133 C 
BRANCH  32  33
HETATM   33  C   UNL     1      18.821  46.312  44.804  1.00  0.00     0.020 C 
BRANCH  33  34
HETATM   34  C   UNL     1      18.553  44.804  44.800  1.00  0.00    -0.003 C 
HETATM   35  C   UNL     1      19.291  44.090  45.918  1.00  0.00     0.005 C 
ENDBRANCH  33  34
ENDBRANCH  32  33
ENDBRANCH   1  32
TORSDOF 9
ENDMDL
MODEL 2
REMARK VINA RESULT:      -7.4     12.284     15.117
REMARK  9 active torsions:
REMARK  status: ('A' for Active; 'I' for Inactive)
REMARK    1  A    between atoms: C_2  and  C_3 
REMARK    2  A    between atoms: C_3  and  C_4 
REMARK    3  A    between atoms: C_4  and  N_5 
REMARK    4  A    between atoms: C_9  and  C_10 
REMARK    5  A    between atoms: C_13  and  C_14 
REMARK    6  A    between atoms: C_14  and  O_15 
REMARK    7  A    between atoms: C_20  and  C_21 
REMARK       I    between atoms: C_21  and  N_22 
REMARK    8  A    between atoms: N_22  and  C_23 
REMARK    9  A    between atoms: C_24  and  O_25 
ROOT
HETATM    1  N   UNL     1      27.657  48.090  39.673  1.00  0.00    -0.303 N 
HETATM    2  C   UNL     1      27.984  47.356  40.811  1.00  0.00     0.323 C 
HETATM    3  O   UNL     1      27.861  46.137  40.911  1.00  0.00    -0.247 OA
HETATM    4  N   UNL     1      28.426  48.057  41.886  1.00  0.00    -0.330 N 
HETATM    5  C   UNL     1      28.808  49.447  41.884  1.00  0.00     0.160 C 
HETATM    6  C   UNL     1      28.221  50.155  40.698  1.00  0.00     0.059 C 
HETATM    7  C   UNL     1      27.808  49.486  39.599  1.00  0.00     0.026 C 
HETATM    8  C   UNL     1      27.525  50.172  38.281  1.00  0.00     0.069 C 
HETATM    9  H   UNL     1      28.712  47.480  42.664  1.00  0.00     0.165 HD
ENDROOT
BRANCH   6  10
HETATM   10  C   UNL     1      28.201  51.641  40.820  1.00  0.00     0.256 C 
HETATM   11  N   UNL     1      29.235  52.411  40.373  1.00  0.00    -0.321 N 
HETATM   12  H   UNL     1      29.194  53.354  40.751  1.00  0.00     0.169 HD
HETATM   13  O   UNL     1      27.244  52.204  41.352  1.00  0.00    -0.267 OA
BRANCH  11  14
HETATM   14  C   UNL     1      30.408  52.136  39.644  1.00  0.00     0.068 A 
HETATM   15  C   UNL     1      31.586  52.754  40.099  1.00  0.00     0.095 A 
HETATM   16  C   UNL     1      32.814  52.494  39.489  1.00  0.00     0.039 A 
HETATM   17  C   UNL     1      32.874  51.602  38.420  1.00  0.00     0.003 A 
HETATM   18  C   UNL     1      31.705  51.008  37.942  1.00  0.00     0.002 A 
HETATM   19  C   UNL     1      30.472  51.284  38.542  1.00  0.00     0.032 A 
BRANCH  15  20
HETATM   20  O   UNL     1      31.489  53.628  41.157  1.00  0.00    -0.354 OA
HETATM   21  C   UNL     1      31.145  54.944  40.722  1.00  0.00     0.210 C 
ENDBRANCH  15  20
ENDBRANCH  11  14
ENDBRANCH   6  10
BRANCH   5  22
HETATM   22  C   UNL     1      30.328  49.568  41.960  1.00  0.00    -0.031 A 
HETATM   23  C   UNL     1      31.164  48.859  41.080  1.00  0.00     0.010 A 
HETATM   24  C   UNL     1      32.547  49.070  41.081  1.00  0.00     0.018 A 
HETATM   25  C   UNL     1      33.122  49.986  41.968  1.00  0.00     0.039 A 
HETATM   26  C   UNL     1      32.303  50.660  42.883  1.00  0.00     0.018 A 
HETATM   27  C   UNL     1      30.919  50.451  42.878  1.00  0.00     0.010 A 
BRANCH  25  28
HETATM   28  C   UNL     1      34.587  50.233  41.873  1.00  0.00     0.292 C 
HETATM   29  O   UNL     1      35.228  50.822  42.730  1.00  0.00    -0.259 OA
BRANCH  28  30
HETATM   30  O   UNL     1      35.095  49.690  40.738  1.00  0.00    -0.323 OA
HETATM   31  C   UNL     1      36.192  50.419  40.187  1.00  0.00     0.213 C 
ENDBRANCH  28  30
ENDBRANCH  25  28
ENDBRANCH   5  22
BRANCH   1  32
HETATM   32  C   UNL     1      26.917  47.359  38.636  1.00  0.00     0.133 C 
BRANCH  32  33
HETATM   33  C   UNL     1      27.800  46.644  37.614  1.00  0.00     0.020 C 
BRANCH  33  34
HETATM   34  C   UNL     1      27.132  45.337  37.173  1.00  0.00    -0.003 C 
HETATM   35  C   UNL     1      26.019  44.919  38.117  1.00  0.00     0.005 C 
ENDBRANCH  33  34
ENDBRANCH  32  33
ENDBRANCH   1  32
TORSDOF 9
ENDMDL
MODEL 3
REMARK VINA RESULT:      -7.3      2.914      6.503
REMARK  9 active torsions:
REMARK  status: ('A' for Active; 'I' for Inactive)
REMARK    1  A    between atoms: C_2  and  C_3 
REMARK    2  A    between atoms: C_3  and  C_4 
REMARK    3  A    between atoms: C_4  and  N_5 
REMARK    4  A    between atoms: C_9  and  C_10 
REMARK    5  A    between atoms: C_13  and  C_14 
REMARK    6  A    between atoms: C_14  and  O_15 
REMARK    7  A    between atoms: C_20  and  C_21 
REMARK       I    between atoms: C_21  and  N_22 
REMARK    8  A    between atoms: N_22  and  C_23 
REMARK    9  A    between atoms: C_24  and  O_25 
ROOT
HETATM    1  N   UNL     1      20.211  49.432  49.597  1.00  0.00    -0.303 N 
HETATM    2  C   UNL     1      19.264  48.681  50.290  1.00  0.00     0.323 C 
HETATM    3  O   UNL     1      18.542  49.123  51.181  1.00  0.00    -0.247 OA
HETATM    4  N   UNL     1      19.178  47.363  49.975  1.00  0.00    -0.330 N 
HETATM    5  C   UNL     1      19.801  46.727  48.841  1.00  0.00     0.160 C 
HETATM    6  C   UNL     1      20.932  47.566  48.320  1.00  0.00     0.059 C 
HETATM    7  C   UNL     1      21.021  48.888  48.586  1.00  0.00     0.026 C 
HETATM    8  C   UNL     1      21.940  49.815  47.822  1.00  0.00     0.069 C 
HETATM    9  H   UNL     1      18.436  46.873  50.455  1.00  0.00     0.165 HD
ENDROOT
BRANCH   6  10
HETATM   10  C   UNL     1      21.886  46.830  47.442  1.00  0.00     0.256 C 
HETATM   11  N   UNL     1      23.081  46.368  47.912  1.00  0.00    -0.321 N 
HETATM   12  H   UNL     1      23.715  46.124  47.155  1.00  0.00     0.169 HD
HETATM   13  O   UNL     1      21.614  46.640  46.257  1.00  0.00    -0.267 OA
BRANCH  11  14
HETATM   14  C   UNL     1      23.666  46.309  49.191  1.00  0.00     0.068 A 
HETATM   15  C   UNL     1      23.793  45.031  49.763  1.00  0.00     0.095 A 
HETATM   16  C   UNL     1      24.422  44.856  50.996  1.00  0.00     0.039 A 
HETATM   17  C   UNL     1      24.938  45.963  51.666  1.00  0.00     0.003 A 
HETATM   18  C   UNL     1      24.790  47.239  51.121  1.00  0.00     0.002 A 
HETATM   19  C   UNL     1      24.143  47.415  49.893  1.00  0.00     0.032 A 
BRANCH  15  20
HETATM   20  O   UNL     1      23.272  43.961  49.072  1.00  0.00    -0.354 OA
HETATM   21  C   UNL     1      22.824  42.933  49.956  1.00  0.00     0.210 C 
ENDBRANCH  15  20
ENDBRANCH  11  14
ENDBRANCH   6  10
BRANCH   5  22
HETATM   22  C   UNL     1      18.750  46.413  47.779  1.00  0.00    -0.031 A 
HETATM   23  C   UNL     1      18.031  47.434  47.137  1.00  0.00     0.010 A 
HETATM   24  C   UNL     1      17.159  47.142  46.083  1.00  0.00     0.018 A 
HETATM   25  C   UNL     1      16.982  45.821  45.658  1.00  0.00     0.039 A 
HETATM   26  C   UNL     1      17.657  44.791  46.324  1.00  0.00     0.018 A 
HETATM   27  C   UNL     1      18.532  45.086  47.376  1.00  0.00     0.010 A 
BRANCH  25  28
HETATM   28  C   UNL     1      16.106  45.572  44.480  1.00  0.00     0.292 C 
HETATM   29  O   UNL     1      16.061  44.504  43.888  1.00  0.00    -0.259 OA
BRANCH  28  30
HETATM   30  O   UNL     1      15.361  46.669  44.193  1.00  0.00    -0.323 OA
HETATM   31  C   UNL     1      15.396  47.050  42.817  1.00  0.00     0.213 C 
ENDBRANCH  28  30
ENDBRANCH  25  28
ENDBRANCH   5  22
BRANCH   1  32
HETATM   32  C   UNL     1      20.487  50.767  50.145  1.00  0.00     0.133 C 
BRANCH  32  33
HETATM   33  C   UNL     1      19.388  51.797  49.887  1.00  0.00     0.020 C 
BRANCH  33  34
HETATM   34  C   UNL     1      19.488  52.316  48.449  1.00  0.00    -0.003 C 
HETATM   35  C   UNL     1      18.387  51.761  47.564  1.00  0.00     0.005 C 
ENDBRANCH  33  34
ENDBRANCH  32  33
ENDBRANCH   1  32
TORSDOF 9
ENDMDL
MODEL 4
REMARK VINA RESULT:      -7.1     24.899     28.503
REMARK  9 active torsions:
REMARK  status: ('A' for Active; 'I' for Inactive)
REMARK    1  A    between atoms: C_2  and  C_3 
REMARK    2  A    between atoms: C_3  and  C_4 
REMARK    3  A    between atoms: C_4  and  N_5 
REMARK    4  A    between atoms: C_9  and  C_10 
REMARK    5  A    between atoms: C_13  and  C_14 
REMARK    6  A    between atoms: C_14  and  O_15 
REMARK    7  A    between atoms: C_20  and  C_21 
REMARK       I    between atoms: C_21  and  N_22 
REMARK    8  A    between atoms: N_22  and  C_23 
REMARK    9  A    between atoms: C_24  and  O_25 
ROOT
HETATM    1  N   UNL     1      40.955  45.061  65.216  1.00  0.00    -0.303 N 
HETATM    2  C   UNL     1      41.454  44.711  63.964  1.00  0.00     0.323 C 
HETATM    3  O   UNL     1      42.461  45.200  63.456  1.00  0.00    -0.247 OA
HETATM    4  N   UNL     1      40.743  43.798  63.254  1.00  0.00    -0.330 N 
HETATM    5  C   UNL     1      39.663  42.992  63.765  1.00  0.00     0.160 C 
HETATM    6  C   UNL     1      39.096  43.599  65.016  1.00  0.00     0.059 C 
HETATM    7  C   UNL     1      39.796  44.481  65.762  1.00  0.00     0.026 C 
HETATM    8  C   UNL     1      39.401  44.853  67.174  1.00  0.00     0.069 C 
HETATM    9  H   UNL     1      41.176  43.527  62.382  1.00  0.00     0.165 HD
ENDROOT
BRANCH   6  10
HETATM   10  C   UNL     1      37.742  43.093  65.382  1.00  0.00     0.256 C 
HETATM   11  N   UNL     1      36.683  43.936  65.551  1.00  0.00    -0.321 N 
HETATM   12  H   UNL     1      35.914  43.483  66.040  1.00  0.00     0.169 HD
HETATM   13  O   UNL     1      37.561  41.888  65.558  1.00  0.00    -0.267 OA
BRANCH  11  14
HETATM   14  C   UNL     1      36.494  45.315  65.341  1.00  0.00     0.068 A 
HETATM   15  C   UNL     1      35.949  46.043  66.414  1.00  0.00     0.095 A 
HETATM   16  C   UNL     1      35.786  47.426  66.333  1.00  0.00     0.039 A 
HETATM   17  C   UNL     1      36.177  48.097  65.175  1.00  0.00     0.003 A 
HETATM   18  C   UNL     1      36.690  47.379  64.094  1.00  0.00     0.002 A 
HETATM   19  C   UNL     1      36.836  45.990  64.169  1.00  0.00     0.032 A 
BRANCH  15  20
HETATM   20  O   UNL     1      35.575  45.348  67.540  1.00  0.00    -0.354 OA
HETATM   21  C   UNL     1      35.991  46.015  68.732  1.00  0.00     0.210 C 
ENDBRANCH  15  20
ENDBRANCH  11  14
ENDBRANCH   6  10
BRANCH   5  22
HETATM   22  C   UNL     1      40.135  41.553  63.960  1.00  0.00    -0.031 A 
HETATM   23  C   UNL     1      41.035  41.210  64.985  1.00  0.00     0.010 A 
HETATM   24  C   UNL     1      41.366  39.874  65.228  1.00  0.00     0.018 A 
HETATM   25  C   UNL     1      40.813  38.855  64.446  1.00  0.00     0.039 A 
HETATM   26  C   UNL     1      39.955  39.190  63.391  1.00  0.00     0.018 A 
HETATM   27  C   UNL     1      39.621  40.527  63.151  1.00  0.00     0.010 A 
BRANCH  25  28
HETATM   28  C   UNL     1      41.135  37.444  64.798  1.00  0.00     0.292 C 
HETATM   29  O   UNL     1      40.518  36.802  65.634  1.00  0.00    -0.259 OA
BRANCH  28  30
HETATM   30  O   UNL     1      42.165  36.982  64.047  1.00  0.00    -0.323 OA
HETATM   31  C   UNL     1      43.345  36.691  64.796  1.00  0.00     0.213 C 
ENDBRANCH  28  30
ENDBRANCH  25  28
ENDBRANCH   5  22
BRANCH   1  32
HETATM   32  C   UNL     1      41.566  46.244  65.836  1.00  0.00     0.133 C 
BRANCH  32  33
HETATM   33  C   UNL     1      41.237  47.565  65.142  1.00  0.00     0.020 C 
BRANCH  33  34
HETATM   34  C   UNL     1      40.051  48.238  65.840  1.00  0.00    -0.003 C 
HETATM   35  C   UNL     1      39.612  49.503  65.126  1.00  0.00     0.005 C 
ENDBRANCH  33  34
ENDBRANCH  32  33
ENDBRANCH   1  32
TORSDOF 9
ENDMDL
MODEL 5
REMARK VINA RESULT:      -7.0     11.949     15.191
REMARK  9 active torsions:
REMARK  status: ('A' for Active; 'I' for Inactive)
REMARK    1  A    between atoms: C_2  and  C_3 
REMARK    2  A    between atoms: C_3  and  C_4 
REMARK    3  A    between atoms: C_4  and  N_5 
REMARK    4  A    between atoms: C_9  and  C_10 
REMARK    5  A    between atoms: C_13  and  C_14 
REMARK    6  A    between atoms: C_14  and  O_15 
REMARK    7  A    between atoms: C_20  and  C_21 
REMARK       I    between atoms: C_21  and  N_22 
REMARK    8  A    between atoms: N_22  and  C_23 
REMARK    9  A    between atoms: C_24  and  O_25 
ROOT
HETATM    1  N   UNL     1      31.348  49.412  41.452  1.00  0.00    -0.303 N 
HETATM    2  C   UNL     1      32.050  48.283  41.038  1.00  0.00     0.323 C 
HETATM    3  O   UNL     1      32.913  47.717  41.707  1.00  0.00    -0.247 OA
HETATM    4  N   UNL     1      31.781  47.816  39.792  1.00  0.00    -0.330 N 
HETATM    5  C   UNL     1      30.682  48.232  38.958  1.00  0.00     0.160 C 
HETATM    6  C   UNL     1      30.150  49.562  39.409  1.00  0.00     0.059 C 
HETATM    7  C   UNL     1      30.371  50.034  40.655  1.00  0.00     0.026 C 
HETATM    8  C   UNL     1      29.591  51.189  41.242  1.00  0.00     0.069 C 
HETATM    9  H   UNL     1      32.265  46.960  39.560  1.00  0.00     0.165 HD
ENDROOT
BRANCH   6  10
HETATM   10  C   UNL     1      29.316  50.264  38.391  1.00  0.00     0.256 C 
HETATM   11  N   UNL     1      27.981  50.018  38.265  1.00  0.00    -0.321 N 
HETATM   12  H   UNL     1      27.614  50.368  37.383  1.00  0.00     0.169 HD
HETATM   13  O   UNL     1      29.833  51.077  37.625  1.00  0.00    -0.267 OA
BRANCH  11  14
HETATM   14  C   UNL     1      27.058  49.257  39.008  1.00  0.00     0.068 A 
HETATM   15  C   UNL     1      26.149  48.479  38.268  1.00  0.00     0.095 A 
HETATM   16  C   UNL     1      25.239  47.637  38.907  1.00  0.00     0.039 A 
HETATM   17  C   UNL     1      25.237  47.559  40.299  1.00  0.00     0.003 A 
HETATM   18  C   UNL     1      26.114  48.350  41.042  1.00  0.00     0.002 A 
HETATM   19  C   UNL     1      27.013  49.208  40.400  1.00  0.00     0.032 A 
BRANCH  15  20
HETATM   20  O   UNL     1      26.180  48.582  36.897  1.00  0.00    -0.354 OA
HETATM   21  C   UNL     1      25.488  47.500  36.272  1.00  0.00     0.210 C 
ENDBRANCH  15  20
ENDBRANCH  11  14
ENDBRANCH   6  10
BRANCH   5  22
HETATM   22  C   UNL     1      29.614  47.142  38.924  1.00  0.00    -0.031 A 
HETATM   23  C   UNL     1      29.133  46.625  37.708  1.00  0.00     0.010 A 
HETATM   24  C   UNL     1      28.244  45.545  37.692  1.00  0.00     0.018 A 
HETATM   25  C   UNL     1      27.811  44.968  38.889  1.00  0.00     0.039 A 
HETATM   26  C   UNL     1      28.246  45.507  40.107  1.00  0.00     0.018 A 
HETATM   27  C   UNL     1      29.137  46.586  40.122  1.00  0.00     0.010 A 
BRANCH  25  28
HETATM   28  C   UNL     1      26.930  43.769  38.814  1.00  0.00     0.292 C 
HETATM   29  O   UNL     1      27.266  42.662  39.204  1.00  0.00    -0.259 OA
BRANCH  28  30
HETATM   30  O   UNL     1      25.720  44.092  38.294  1.00  0.00    -0.323 OA
HETATM   31  C   UNL     1      24.637  43.955  39.215  1.00  0.00     0.213 C 
ENDBRANCH  28  30
ENDBRANCH  25  28
ENDBRANCH   5  22
BRANCH   1  32
HETATM   32  C   UNL     1      31.852  50.064  42.667  1.00  0.00     0.133 C 
BRANCH  32  33
HETATM   33  C   UNL     1      32.994  51.052  42.429  1.00  0.00     0.020 C 
BRANCH  33  34
HETATM   34  C   UNL     1      33.477  51.622  43.767  1.00  0.00    -0.003 C 
HETATM   35  C   UNL     1      32.323  51.942  44.700  1.00  0.00     0.005 C 
ENDBRANCH  33  34
ENDBRANCH  32  33
ENDBRANCH   1  32
TORSDOF 9
ENDMDL
MODEL 6
REMARK VINA RESULT:      -7.0      2.960      8.285
REMARK  9 active torsions:
REMARK  status: ('A' for Active; 'I' for Inactive)
REMARK    1  A    between atoms: C_2  and  C_3 
REMARK    2  A    between atoms: C_3  and  C_4 
REMARK    3  A    between atoms: C_4  and  N_5 
REMARK    4  A    between atoms: C_9  and  C_10 
REMARK    5  A    between atoms: C_13  and  C_14 
REMARK    6  A    between atoms: C_14  and  O_15 
REMARK    7  A    between atoms: C_20  and  C_21 
REMARK       I    between atoms: C_21  and  N_22 
REMARK    8  A    between atoms: N_22  and  C_23 
REMARK    9  A    between atoms: C_24  and  O_25 
ROOT
HETATM    1  N   UNL     1      20.608  49.931  49.371  1.00  0.00    -0.303 N 
HETATM    2  C   UNL     1      21.730  50.173  48.580  1.00  0.00     0.323 C 
HETATM    3  O   UNL     1      22.301  51.258  48.498  1.00  0.00    -0.247 OA
HETATM    4  N   UNL     1      22.181  49.139  47.824  1.00  0.00    -0.330 N 
HETATM    5  C   UNL     1      21.757  47.766  47.939  1.00  0.00     0.160 C 
HETATM    6  C   UNL     1      20.436  47.678  48.646  1.00  0.00     0.059 C 
HETATM    7  C   UNL     1      19.980  48.675  49.435  1.00  0.00     0.026 C 
HETATM    8  C   UNL     1      18.836  48.491  50.407  1.00  0.00     0.069 C 
HETATM    9  H   UNL     1      23.031  49.341  47.318  1.00  0.00     0.165 HD
ENDROOT
BRANCH   6  10
HETATM   10  C   UNL     1      19.723  46.382  48.451  1.00  0.00     0.256 C 
HETATM   11  N   UNL     1      18.792  46.217  47.468  1.00  0.00    -0.321 N 
HETATM   12  H   UNL     1      18.224  45.388  47.623  1.00  0.00     0.169 HD
HETATM   13  O   UNL     1      19.955  45.433  49.199  1.00  0.00    -0.267 OA
BRANCH  11  14
HETATM   14  C   UNL     1      18.357  47.019  46.396  1.00  0.00     0.068 A 
HETATM   15  C   UNL     1      17.186  47.769  46.611  1.00  0.00     0.095 A 
HETATM   16  C   UNL     1      16.708  48.647  45.639  1.00  0.00     0.039 A 
HETATM   17  C   UNL     1      17.406  48.790  44.440  1.00  0.00     0.003 A 
HETATM   18  C   UNL     1      18.551  48.028  44.206  1.00  0.00     0.002 A 
HETATM   19  C   UNL     1      19.019  47.134  45.174  1.00  0.00     0.032 A 
BRANCH  15  20
HETATM   20  O   UNL     1      16.524  47.602  47.805  1.00  0.00    -0.354 OA
HETATM   21  C   UNL     1      15.643  48.692  48.075  1.00  0.00     0.210 C 
ENDBRANCH  15  20
ENDBRANCH  11  14
ENDBRANCH   6  10
BRANCH   5  22
HETATM   22  C   UNL     1      22.851  46.940  48.612  1.00  0.00    -0.031 A 
HETATM   23  C   UNL     1      23.090  45.605  48.245  1.00  0.00     0.010 A 
HETATM   24  C   UNL     1      24.170  44.898  48.782  1.00  0.00     0.018 A 
HETATM   25  C   UNL     1      25.027  45.508  49.703  1.00  0.00     0.039 A 
HETATM   26  C   UNL     1      24.769  46.823  50.112  1.00  0.00     0.018 A 
HETATM   27  C   UNL     1      23.689  47.530  49.571  1.00  0.00     0.010 A 
BRANCH  25  28
HETATM   28  C   UNL     1      26.209  44.739  50.182  1.00  0.00     0.292 C 
HETATM   29  O   UNL     1      27.268  44.686  49.576  1.00  0.00    -0.259 OA
BRANCH  28  30
HETATM   30  O   UNL     1      25.950  44.152  51.378  1.00  0.00    -0.323 OA
HETATM   31  C   UNL     1      26.853  44.529  52.417  1.00  0.00     0.213 C 
ENDBRANCH  28  30
ENDBRANCH  25  28
ENDBRANCH   5  22
BRANCH   1  32
HETATM   32  C   UNL     1      19.971  51.121  49.950  1.00  0.00     0.133 C 
BRANCH  32  33
HETATM   33  C   UNL     1      19.002  51.840  49.011  1.00  0.00     0.020 C 
BRANCH  33  34
HETATM   34  C   UNL     1      17.813  52.384  49.809  1.00  0.00    -0.003 C 
HETATM   35  C   UNL     1      16.510  52.272  49.039  1.00  0.00     0.005 C 
ENDBRANCH  33  34
ENDBRANCH  32  33
ENDBRANCH   1  32
TORSDOF 9
ENDMDL
MODEL 7
REMARK VINA RESULT:      -6.9      3.184      8.113
REMARK  9 active torsions:
REMARK  status: ('A' for Active; 'I' for Inactive)
REMARK    1  A    between atoms: C_2  and  C_3 
REMARK    2  A    between atoms: C_3  and  C_4 
REMARK    3  A    between atoms: C_4  and  N_5 
REMARK    4  A    between atoms: C_9  and  C_10 
REMARK    5  A    between atoms: C_13  and  C_14 
REMARK    6  A    between atoms: C_14  and  O_15 
REMARK    7  A    between atoms: C_20  and  C_21 
REMARK       I    between atoms: C_21  and  N_22 
REMARK    8  A    between atoms: N_22  and  C_23 
REMARK    9  A    between atoms: C_24  and  O_25 
ROOT
HETATM    1  N   UNL     1      21.069  49.983  49.184  1.00  0.00    -0.303 N 
HETATM    2  C   UNL     1      22.307  50.129  48.563  1.00  0.00     0.323 C 
HETATM    3  O   UNL     1      22.934  51.185  48.502  1.00  0.00    -0.247 OA
HETATM    4  N   UNL     1      22.820  49.030  47.952  1.00  0.00    -0.330 N 
HETATM    5  C   UNL     1      22.321  47.684  48.086  1.00  0.00     0.160 C 
HETATM    6  C   UNL     1      20.905  47.693  48.584  1.00  0.00     0.059 C 
HETATM    7  C   UNL     1      20.381  48.758  49.229  1.00  0.00     0.026 C 
HETATM    8  C   UNL     1      19.095  48.683  50.021  1.00  0.00     0.069 C 
HETATM    9  H   UNL     1      23.746  49.166  47.572  1.00  0.00     0.165 HD
ENDROOT
BRANCH   6  10
HETATM   10  C   UNL     1      20.171  46.413  48.363  1.00  0.00     0.256 C 
HETATM   11  N   UNL     1      19.340  46.239  47.295  1.00  0.00    -0.321 N 
HETATM   12  H   UNL     1      18.730  45.434  47.420  1.00  0.00     0.169 HD
HETATM   13  O   UNL     1      20.293  45.487  49.164  1.00  0.00    -0.267 OA
BRANCH  11  14
HETATM   14  C   UNL     1      19.044  47.011  46.156  1.00  0.00     0.068 A 
HETATM   15  C   UNL     1      19.455  46.484  44.919  1.00  0.00     0.095 A 
HETATM   16  C   UNL     1      19.150  47.137  43.724  1.00  0.00     0.039 A 
HETATM   17  C   UNL     1      18.421  48.325  43.758  1.00  0.00     0.003 A 
HETATM   18  C   UNL     1      18.036  48.871  44.983  1.00  0.00     0.002 A 
HETATM   19  C   UNL     1      18.359  48.225  46.181  1.00  0.00     0.032 A 
BRANCH  15  20
HETATM   20  O   UNL     1      20.173  45.311  44.924  1.00  0.00    -0.354 OA
HETATM   21  C   UNL     1      21.511  45.510  44.468  1.00  0.00     0.210 C 
ENDBRANCH  15  20
ENDBRANCH  11  14
ENDBRANCH   6  10
BRANCH   5  22
HETATM   22  C   UNL     1      23.261  46.868  48.970  1.00  0.00    -0.031 A 
HETATM   23  C   UNL     1      23.997  47.468  50.006  1.00  0.00     0.010 A 
HETATM   24  C   UNL     1      24.761  46.692  50.883  1.00  0.00     0.018 A 
HETATM   25  C   UNL     1      24.812  45.302  50.736  1.00  0.00     0.039 A 
HETATM   26  C   UNL     1      24.121  44.699  49.677  1.00  0.00     0.018 A 
HETATM   27  C   UNL     1      23.355  45.477  48.802  1.00  0.00     0.010 A 
BRANCH  25  28
HETATM   28  C   UNL     1      25.573  44.514  51.745  1.00  0.00     0.292 C 
HETATM   29  O   UNL     1      26.761  44.254  51.639  1.00  0.00    -0.259 OA
BRANCH  28  30
HETATM   30  O   UNL     1      24.778  44.170  52.789  1.00  0.00    -0.323 OA
HETATM   31  C   UNL     1      25.318  44.508  54.066  1.00  0.00     0.213 C 
ENDBRANCH  28  30
ENDBRANCH  25  28
ENDBRANCH   5  22
BRANCH   1  32
HETATM   32  C   UNL     1      20.406  51.232  49.581  1.00  0.00     0.133 C 
BRANCH  32  33
HETATM   33  C   UNL     1      19.840  52.046  48.419  1.00  0.00     0.020 C 
BRANCH  33  34
HETATM   34  C   UNL     1      18.308  52.020  48.462  1.00  0.00    -0.003 C 
HETATM   35  C   UNL     1      17.772  52.337  49.847  1.00  0.00     0.005 C 
ENDBRANCH  33  34
ENDBRANCH  32  33
ENDBRANCH   1  32
TORSDOF 9
ENDMDL
MODEL 8
REMARK VINA RESULT:      -6.8      2.942      8.266
REMARK  9 active torsions:
REMARK  status: ('A' for Active; 'I' for Inactive)
REMARK    1  A    between atoms: C_2  and  C_3 
REMARK    2  A    between atoms: C_3  and  C_4 
REMARK    3  A    between atoms: C_4  and  N_5 
REMARK    4  A    between atoms: C_9  and  C_10 
REMARK    5  A    between atoms: C_13  and  C_14 
REMARK    6  A    between atoms: C_14  and  O_15 
REMARK    7  A    between atoms: C_20  and  C_21 
REMARK       I    between atoms: C_21  and  N_22 
REMARK    8  A    between atoms: N_22  and  C_23 
REMARK    9  A    between atoms: C_24  and  O_25 
ROOT
HETATM    1  N   UNL     1      20.562  49.993  49.385  1.00  0.00    -0.303 N 
HETATM    2  C   UNL     1      21.604  50.145  48.473  1.00  0.00     0.323 C 
HETATM    3  O   UNL     1      22.196  51.202  48.265  1.00  0.00    -0.247 OA
HETATM    4  N   UNL     1      21.946  49.051  47.744  1.00  0.00    -0.330 N 
HETATM    5  C   UNL     1      21.496  47.704  47.990  1.00  0.00     0.160 C 
HETATM    6  C   UNL     1      20.251  47.707  48.828  1.00  0.00     0.059 C 
HETATM    7  C   UNL     1      19.907  48.767  49.593  1.00  0.00     0.026 C 
HETATM    8  C   UNL     1      18.862  48.684  50.683  1.00  0.00     0.069 C 
HETATM    9  H   UNL     1      22.747  49.191  47.145  1.00  0.00     0.165 HD
ENDROOT
BRANCH   6  10
HETATM   10  C   UNL     1      19.484  46.428  48.789  1.00  0.00     0.256 C 
HETATM   11  N   UNL     1      18.208  46.371  48.310  1.00  0.00    -0.321 N 
HETATM   12  H   UNL     1      17.741  45.510  48.583  1.00  0.00     0.169 HD
HETATM   13  O   UNL     1      19.994  45.391  49.213  1.00  0.00    -0.267 OA
BRANCH  11  14
HETATM   14  C   UNL     1      17.368  47.301  47.670  1.00  0.00     0.068 A 
HETATM   15  C   UNL     1      17.624  47.542  46.308  1.00  0.00     0.095 A 
HETATM   16  C   UNL     1      16.806  48.393  45.564  1.00  0.00     0.039 A 
HETATM   17  C   UNL     1      15.716  49.007  46.177  1.00  0.00     0.003 A 
HETATM   18  C   UNL     1      15.473  48.799  47.536  1.00  0.00     0.002 A 
HETATM   19  C   UNL     1      16.304  47.960  48.285  1.00  0.00     0.032 A 
BRANCH  15  20
HETATM   20  O   UNL     1      18.708  46.918  45.736  1.00  0.00    -0.354 OA
HETATM   21  C   UNL     1      18.471  46.604  44.363  1.00  0.00     0.210 C 
ENDBRANCH  15  20
ENDBRANCH  11  14
ENDBRANCH   6  10
BRANCH   5  22
HETATM   22  C   UNL     1      22.628  46.882  48.602  1.00  0.00    -0.031 A 
HETATM   23  C   UNL     1      22.876  45.560  48.195  1.00  0.00     0.010 A 
HETATM   24  C   UNL     1      23.987  44.860  48.676  1.00  0.00     0.018 A 
HETATM   25  C   UNL     1      24.866  45.465  49.581  1.00  0.00     0.039 A 
HETATM   26  C   UNL     1      24.600  46.764  50.030  1.00  0.00     0.018 A 
HETATM   27  C   UNL     1      23.489  47.464  49.546  1.00  0.00     0.010 A 
BRANCH  25  28
HETATM   28  C   UNL     1      26.078  44.706  49.999  1.00  0.00     0.292 C 
HETATM   29  O   UNL     1      27.158  44.800  49.436  1.00  0.00    -0.259 OA
BRANCH  28  30
HETATM   30  O   UNL     1      25.817  43.943  51.089  1.00  0.00    -0.323 OA
HETATM   31  C   UNL     1      26.049  42.548  50.890  1.00  0.00     0.213 C 
ENDBRANCH  28  30
ENDBRANCH  25  28
ENDBRANCH   5  22
BRANCH   1  32
HETATM   32  C   UNL     1      20.022  51.238  49.946  1.00  0.00     0.133 C 
BRANCH  32  33
HETATM   33  C   UNL     1      19.012  51.951  49.048  1.00  0.00     0.020 C 
BRANCH  33  34
HETATM   34  C   UNL     1      17.809  52.409  49.879  1.00  0.00    -0.003 C 
HETATM   35  C   UNL     1      16.503  51.837  49.356  1.00  0.00     0.005 C 
ENDBRANCH  33  34
ENDBRANCH  32  33
ENDBRANCH   1  32
TORSDOF 9
ENDMDL
MODEL 9
REMARK VINA RESULT:      -6.6      2.668      5.518
REMARK  9 active torsions:
REMARK  status: ('A' for Active; 'I' for Inactive)
REMARK    1  A    between atoms: C_2  and  C_3 
REMARK    2  A    between atoms: C_3  and  C_4 
REMARK    3  A    between atoms: C_4  and  N_5 
REMARK    4  A    between atoms: C_9  and  C_10 
REMARK    5  A    between atoms: C_13  and  C_14 
REMARK    6  A    between atoms: C_14  and  O_15 
REMARK    7  A    between atoms: C_20  and  C_21 
REMARK       I    between atoms: C_21  and  N_22 
REMARK    8  A    between atoms: N_22  and  C_23 
REMARK    9  A    between atoms: C_24  and  O_25 
ROOT
HETATM    1  N   UNL     1      20.323  49.205  49.016  1.00  0.00    -0.303 N 
HETATM    2  C   UNL     1      20.005  50.417  49.623  1.00  0.00     0.323 C 
HETATM    3  O   UNL     1      20.831  51.203  50.082  1.00  0.00    -0.247 OA
HETATM    4  N   UNL     1      18.685  50.714  49.745  1.00  0.00    -0.330 N 
HETATM    5  C   UNL     1      17.603  50.011  49.103  1.00  0.00     0.160 C 
HETATM    6  C   UNL     1      18.043  48.642  48.672  1.00  0.00     0.059 C 
HETATM    7  C   UNL     1      19.348  48.331  48.506  1.00  0.00     0.026 C 
HETATM    8  C   UNL     1      19.805  47.091  47.769  1.00  0.00     0.069 C 
HETATM    9  H   UNL     1      18.504  51.629  50.132  1.00  0.00     0.165 HD
ENDROOT
BRANCH   6  10
HETATM   10  C   UNL     1      16.923  47.701  48.387  1.00  0.00     0.256 C 
HETATM   11  N   UNL     1      16.365  47.606  47.145  1.00  0.00    -0.321 N 
HETATM   12  H   UNL     1      15.468  47.127  47.171  1.00  0.00     0.169 HD
HETATM   13  O   UNL     1      16.464  46.996  49.286  1.00  0.00    -0.267 OA
BRANCH  11  14
HETATM   14  C   UNL     1      16.684  48.160  45.891  1.00  0.00     0.068 A 
HETATM   15  C   UNL     1      15.643  48.821  45.215  1.00  0.00     0.095 A 
HETATM   16  C   UNL     1      15.871  49.463  43.998  1.00  0.00     0.039 A 
HETATM   17  C   UNL     1      17.152  49.456  43.448  1.00  0.00     0.003 A 
HETATM   18  C   UNL     1      18.184  48.775  44.095  1.00  0.00     0.002 A 
HETATM   19  C   UNL     1      17.949  48.116  45.307  1.00  0.00     0.032 A 
BRANCH  15  20
HETATM   20  O   UNL     1      14.392  48.808  45.789  1.00  0.00    -0.354 OA
HETATM   21  C   UNL     1      13.418  49.417  44.940  1.00  0.00     0.210 C 
ENDBRANCH  15  20
ENDBRANCH  11  14
ENDBRANCH   6  10
BRANCH   5  22
HETATM   22  C   UNL     1      17.049  50.850  47.953  1.00  0.00    -0.031 A 
HETATM   23  C   UNL     1      15.698  51.233  47.911  1.00  0.00     0.010 A 
HETATM   24  C   UNL     1      15.230  52.099  46.918  1.00  0.00     0.018 A 
HETATM   25  C   UNL     1      16.102  52.592  45.942  1.00  0.00     0.039 A 
HETATM   26  C   UNL     1      17.440  52.178  45.947  1.00  0.00     0.018 A 
HETATM   27  C   UNL     1      17.907  51.313  46.943  1.00  0.00     0.010 A 
BRANCH  25  28
HETATM   28  C   UNL     1      15.572  53.575  44.957  1.00  0.00     0.292 C 
HETATM   29  O   UNL     1      16.178  53.913  43.952  1.00  0.00    -0.259 OA
BRANCH  28  30
HETATM   30  O   UNL     1      14.335  54.001  45.317  1.00  0.00    -0.323 OA
HETATM   31  C   UNL     1      14.103  55.387  45.068  1.00  0.00     0.213 C 
ENDBRANCH  28  30
ENDBRANCH  25  28
ENDBRANCH   5  22
BRANCH   1  32
HETATM   32  C   UNL     1      21.721  48.774  49.151  1.00  0.00     0.133 C 
BRANCH  32  33
HETATM   33  C   UNL     1      22.598  49.078  47.937  1.00  0.00     0.020 C 
BRANCH  33  34
HETATM   34  C   UNL     1      23.492  50.287  48.230  1.00  0.00    -0.003 C 
HETATM   35  C   UNL     1      24.964  49.966  48.046  1.00  0.00     0.005 C 
ENDBRANCH  33  34
ENDBRANCH  32  33
ENDBRANCH   1  32
TORSDOF 9
ENDMDL
MODEL 10
REMARK VINA RESULT:      -6.6      9.140     13.518
REMARK  9 active torsions:
REMARK  status: ('A' for Active; 'I' for Inactive)
REMARK    1  A    between atoms: C_2  and  C_3 
REMARK    2  A    between atoms: C_3  and  C_4 
REMARK    3  A    between atoms: C_4  and  N_5 
REMARK    4  A    between atoms: C_9  and  C_10 
REMARK    5  A    between atoms: C_13  and  C_14 
REMARK    6  A    between atoms: C_14  and  O_15 
REMARK    7  A    between atoms: C_20  and  C_21 
REMARK       I    between atoms: C_21  and  N_22 
REMARK    8  A    between atoms: N_22  and  C_23 
REMARK    9  A    between atoms: C_24  and  O_25 
ROOT
HETATM    1  N   UNL     1      28.329  39.024  48.728  1.00  0.00    -0.303 N 
HETATM    2  C   UNL     1      27.845  38.398  49.875  1.00  0.00     0.323 C 
HETATM    3  O   UNL     1      28.105  37.240  50.196  1.00  0.00    -0.247 OA
HETATM    4  N   UNL     1      26.995  39.116  50.654  1.00  0.00    -0.330 N 
HETATM    5  C   UNL     1      26.736  40.529  50.534  1.00  0.00     0.160 C 
HETATM    6  C   UNL     1      27.132  41.025  49.173  1.00  0.00     0.059 C 
HETATM    7  C   UNL     1      28.005  40.350  48.393  1.00  0.00     0.026 C 
HETATM    8  C   UNL     1      28.669  40.971  47.184  1.00  0.00     0.069 C 
HETATM    9  H   UNL     1      26.722  38.646  51.505  1.00  0.00     0.165 HD
ENDROOT
BRANCH   6  10
HETATM   10  C   UNL     1      26.534  42.341  48.804  1.00  0.00     0.256 C 
HETATM   11  N   UNL     1      25.426  42.428  48.014  1.00  0.00    -0.321 N 
HETATM   12  H   UNL     1      25.297  43.369  47.648  1.00  0.00     0.169 HD
HETATM   13  O   UNL     1      27.052  43.385  49.200  1.00  0.00    -0.267 OA
BRANCH  11  14
HETATM   14  C   UNL     1      24.535  41.479  47.480  1.00  0.00     0.068 A 
HETATM   15  C   UNL     1      23.244  41.449  48.039  1.00  0.00     0.095 A 
HETATM   16  C   UNL     1      22.264  40.593  47.536  1.00  0.00     0.039 A 
HETATM   17  C   UNL     1      22.566  39.761  46.459  1.00  0.00     0.003 A 
HETATM   18  C   UNL     1      23.853  39.762  45.918  1.00  0.00     0.002 A 
HETATM   19  C   UNL     1      24.840  40.607  46.436  1.00  0.00     0.032 A 
BRANCH  15  20
HETATM   20  O   UNL     1      22.982  42.283  49.101  1.00  0.00    -0.354 OA
HETATM   21  C   UNL     1      22.387  43.509  48.672  1.00  0.00     0.210 C 
ENDBRANCH  15  20
ENDBRANCH  11  14
ENDBRANCH   6  10
BRANCH   5  22
HETATM   22  C   UNL     1      27.426  41.281  51.669  1.00  0.00    -0.031 A 
HETATM   23  C   UNL     1      28.784  41.075  51.965  1.00  0.00     0.010 A 
HETATM   24  C   UNL     1      29.433  41.856  52.926  1.00  0.00     0.018 A 
HETATM   25  C   UNL     1      28.735  42.852  53.618  1.00  0.00     0.039 A 
HETATM   26  C   UNL     1      27.369  43.031  53.365  1.00  0.00     0.018 A 
HETATM   27  C   UNL     1      26.722  42.251  52.400  1.00  0.00     0.010 A 
BRANCH  25  28
HETATM   28  C   UNL     1      29.492  43.709  54.571  1.00  0.00     0.292 C 
HETATM   29  O   UNL     1      29.191  44.866  54.821  1.00  0.00    -0.259 OA
BRANCH  28  30
HETATM   30  O   UNL     1      30.517  43.019  55.132  1.00  0.00    -0.323 OA
HETATM   31  C   UNL     1      31.120  43.678  56.245  1.00  0.00     0.213 C 
ENDBRANCH  28  30
ENDBRANCH  25  28
ENDBRANCH   5  22
BRANCH   1  32
HETATM   32  C   UNL     1      29.003  38.148  47.762  1.00  0.00     0.133 C 
BRANCH  32  33
HETATM   33  C   UNL     1      28.063  37.425  46.799  1.00  0.00     0.020 C 
BRANCH  33  34
HETATM   34  C   UNL     1      28.433  37.771  45.352  1.00  0.00    -0.003 C 
HETATM   35  C   UNL     1      27.310  38.498  44.635  1.00  0.00     0.005 C 
ENDBRANCH  33  34
ENDBRANCH  32  33
ENDBRANCH   1  32
TORSDOF 9
ENDMDL
