MODEL 1
REMARK VINA RESULT:      -8.4      0.000      0.000
REMARK  3 active torsions:
REMARK  status: ('A' for Active; 'I' for Inactive)
REMARK    1  A    between atoms: C_8  and  N_9 
REMARK       I    between atoms: N_9  and  C_10 
REMARK       I    between atoms: C_10  and  N_11 
REMARK    2  A    between atoms: N_11  and  C_12 
REMARK    3  A    between atoms: C_16  and  O_17 
ROOT
HETATM    1  N   UNL     1      28.810  41.047  51.190  1.00  0.00    -0.305 N 
HETATM    2  C   UNL     1      28.767  41.452  52.512  1.00  0.00     0.325 C 
HETATM    3  N   UNL     1      29.564  42.578  52.688  1.00  0.00    -0.309 N 
HETATM    4  O   UNL     1      28.111  40.924  53.397  1.00  0.00    -0.247 OA
HETATM    5  H   UNL     1      29.168  41.716  50.527  1.00  0.00     0.171 HD
HETATM    6  H   UNL     1      30.222  42.765  51.945  1.00  0.00     0.170 HD
ENDROOT
BRANCH   1   7
HETATM    7  C   UNL     1      28.187  39.945  50.628  1.00  0.00     0.086 A 
HETATM    8  C   UNL     1      26.847  39.973  50.285  1.00  0.00     0.052 A 
HETATM    9  C   UNL     1      25.805  41.021  50.398  1.00  0.00     0.072 C 
HETATM   10  N   UNL     1      26.565  38.737  49.776  1.00  0.00    -0.280 N 
HETATM   11  H   UNL     1      25.677  38.386  49.434  1.00  0.00     0.189 HD
HETATM   12  N   UNL     1      27.618  37.918  49.736  1.00  0.00    -0.177 NA
HETATM   13  C   UNL     1      28.624  38.641  50.252  1.00  0.00     0.079 A 
HETATM   14  C   UNL     1      29.968  38.013  50.322  1.00  0.00     0.075 C 
ENDBRANCH   1   7
BRANCH   3  15
HETATM   15  C   UNL     1      29.632  43.428  53.812  1.00  0.00     0.039 A 
HETATM   16  C   UNL     1      28.849  44.572  53.977  1.00  0.00     0.056 A 
HETATM   17  C   UNL     1      29.025  45.394  55.098  1.00  0.00     0.071 A 
HETATM   18 CL   UNL     1      28.037  46.805  55.243  1.00  0.00    -0.081 Cl
HETATM   19  C   UNL     1      29.981  45.080  56.070  1.00  0.00     0.111 A 
HETATM   20  C   UNL     1      30.771  43.940  55.900  1.00  0.00     0.071 A 
HETATM   21 CL   UNL     1      32.019  43.517  57.017  1.00  0.00    -0.081 Cl
HETATM   22  C   UNL     1      30.587  43.114  54.786  1.00  0.00     0.056 A 
BRANCH  19  23
HETATM   23  O   UNL     1      30.192  45.947  57.111  1.00  0.00    -0.352 OA
HETATM   24  C   UNL     1      29.389  45.622  58.246  1.00  0.00     0.210 C 
ENDBRANCH  19  23
ENDBRANCH   3  15
TORSDOF 3
ENDMDL
MODEL 2
REMARK VINA RESULT:      -8.4      0.310      1.783
REMARK  3 active torsions:
REMARK  status: ('A' for Active; 'I' for Inactive)
REMARK    1  A    between atoms: C_8  and  N_9 
REMARK       I    between atoms: N_9  and  C_10 
REMARK       I    between atoms: C_10  and  N_11 
REMARK    2  A    between atoms: N_11  and  C_12 
REMARK    3  A    between atoms: C_16  and  O_17 
ROOT
HETATM    1  N   UNL     1      28.992  40.811  51.245  1.00  0.00    -0.305 N 
HETATM    2  C   UNL     1      28.761  41.342  52.501  1.00  0.00     0.325 C 
HETATM    3  N   UNL     1      29.713  42.316  52.784  1.00  0.00    -0.309 N 
HETATM    4  O   UNL     1      27.848  41.029  53.250  1.00  0.00    -0.247 OA
HETATM    5  H   UNL     1      29.602  41.337  50.639  1.00  0.00     0.171 HD
HETATM    6  H   UNL     1      30.531  42.309  52.193  1.00  0.00     0.170 HD
ENDROOT
BRANCH   1   7
HETATM    7  C   UNL     1      28.291  39.791  50.622  1.00  0.00     0.086 A 
HETATM    8  C   UNL     1      28.839  38.530  50.470  1.00  0.00     0.052 A 
HETATM    9  C   UNL     1      30.150  37.954  50.854  1.00  0.00     0.072 C 
HETATM   10  N   UNL     1      27.897  37.788  49.816  1.00  0.00    -0.280 N 
HETATM   11  H   UNL     1      27.953  36.820  49.521  1.00  0.00     0.189 HD
HETATM   12  N   UNL     1      26.772  38.457  49.554  1.00  0.00    -0.177 NA
HETATM   13  C   UNL     1      26.992  39.688  50.043  1.00  0.00     0.079 A 
HETATM   14  C   UNL     1      25.898  40.686  49.935  1.00  0.00     0.075 C 
ENDBRANCH   1   7
BRANCH   3  15
HETATM   15  C   UNL     1      29.717  43.244  53.846  1.00  0.00     0.039 A 
HETATM   16  C   UNL     1      28.899  44.374  53.904  1.00  0.00     0.056 A 
HETATM   17  C   UNL     1      29.012  45.277  54.969  1.00  0.00     0.071 A 
HETATM   18 CL   UNL     1      27.983  46.665  54.981  1.00  0.00    -0.081 Cl
HETATM   19  C   UNL     1      29.941  45.059  55.993  1.00  0.00     0.111 A 
HETATM   20  C   UNL     1      30.766  43.934  55.931  1.00  0.00     0.071 A 
HETATM   21 CL   UNL     1      31.984  43.626  57.117  1.00  0.00    -0.081 Cl
HETATM   22  C   UNL     1      30.645  43.027  54.872  1.00  0.00     0.056 A 
BRANCH  19  23
HETATM   23  O   UNL     1      30.091  46.003  56.977  1.00  0.00    -0.352 OA
HETATM   24  C   UNL     1      29.114  45.857  58.008  1.00  0.00     0.210 C 
ENDBRANCH  19  23
ENDBRANCH   3  15
TORSDOF 3
ENDMDL
MODEL 3
REMARK VINA RESULT:      -8.0      0.235      1.994
REMARK  3 active torsions:
REMARK  status: ('A' for Active; 'I' for Inactive)
REMARK    1  A    between atoms: C_8  and  N_9 
REMARK       I    between atoms: N_9  and  C_10 
REMARK       I    between atoms: C_10  and  N_11 
REMARK    2  A    between atoms: N_11  and  C_12 
REMARK    3  A    between atoms: C_16  and  O_17 
ROOT
HETATM    1  N   UNL     1      28.869  41.024  51.211  1.00  0.00    -0.305 N 
HETATM    2  C   UNL     1      28.852  41.449  52.528  1.00  0.00     0.325 C 
HETATM    3  N   UNL     1      29.729  42.516  52.691  1.00  0.00    -0.309 N 
HETATM    4  O   UNL     1      28.158  40.981  53.418  1.00  0.00    -0.247 OA
HETATM    5  H   UNL     1      29.276  41.656  50.540  1.00  0.00     0.171 HD
HETATM    6  H   UNL     1      30.400  42.645  51.948  1.00  0.00     0.170 HD
ENDROOT
BRANCH   1   7
HETATM    7  C   UNL     1      28.169  39.963  50.661  1.00  0.00     0.086 A 
HETATM    8  C   UNL     1      26.818  40.061  50.377  1.00  0.00     0.052 A 
HETATM    9  C   UNL     1      25.835  41.156  50.550  1.00  0.00     0.072 C 
HETATM   10  N   UNL     1      26.454  38.848  49.865  1.00  0.00    -0.280 N 
HETATM   11  H   UNL     1      25.537  38.547  49.557  1.00  0.00     0.189 HD
HETATM   12  N   UNL     1      27.463  37.980  49.768  1.00  0.00    -0.177 NA
HETATM   13  C   UNL     1      28.525  38.645  50.250  1.00  0.00     0.079 A 
HETATM   14  C   UNL     1      29.838  37.951  50.252  1.00  0.00     0.075 C 
ENDBRANCH   1   7
BRANCH   3  15
HETATM   15  C   UNL     1      29.855  43.374  53.803  1.00  0.00     0.039 A 
HETATM   16  C   UNL     1      30.740  43.161  54.862  1.00  0.00     0.056 A 
HETATM   17  C   UNL     1      30.755  44.033  55.959  1.00  0.00     0.071 A 
HETATM   18 CL   UNL     1      31.863  43.712  57.246  1.00  0.00    -0.081 Cl
HETATM   19  C   UNL     1      29.891  45.132  56.008  1.00  0.00     0.111 A 
HETATM   20  C   UNL     1      28.999  45.341  54.954  1.00  0.00     0.071 A 
HETATM   21 CL   UNL     1      27.853  46.634  54.967  1.00  0.00    -0.081 Cl
HETATM   22  C   UNL     1      28.991  44.475  53.854  1.00  0.00     0.056 A 
BRANCH  19  23
HETATM   23  O   UNL     1      29.867  45.919  57.131  1.00  0.00    -0.352 OA
HETATM   24  C   UNL     1      28.798  45.562  58.008  1.00  0.00     0.210 C 
ENDBRANCH  19  23
ENDBRANCH   3  15
TORSDOF 3
ENDMDL
MODEL 4
REMARK VINA RESULT:      -7.6      1.034      2.827
REMARK  3 active torsions:
REMARK  status: ('A' for Active; 'I' for Inactive)
REMARK    1  A    between atoms: C_8  and  N_9 
REMARK       I    between atoms: N_9  and  C_10 
REMARK       I    between atoms: C_10  and  N_11 
REMARK    2  A    between atoms: N_11  and  C_12 
REMARK    3  A    between atoms: C_16  and  O_17 
ROOT
HETATM    1  N   UNL     1      28.337  40.557  51.883  1.00  0.00    -0.305 N 
HETATM    2  C   UNL     1      28.704  41.832  52.276  1.00  0.00     0.325 C 
HETATM    3  N   UNL     1      28.728  41.909  53.665  1.00  0.00    -0.309 N 
HETATM    4  O   UNL     1      28.991  42.753  51.527  1.00  0.00    -0.247 OA
HETATM    5  H   UNL     1      28.388  39.837  52.586  1.00  0.00     0.171 HD
HETATM    6  H   UNL     1      28.251  41.164  54.150  1.00  0.00     0.170 HD
ENDROOT
BRANCH   1   7
HETATM    7  C   UNL     1      28.157  40.095  50.590  1.00  0.00     0.086 A 
HETATM    8  C   UNL     1      28.841  38.988  50.119  1.00  0.00     0.052 A 
HETATM    9  C   UNL     1      29.836  38.084  50.744  1.00  0.00     0.072 C 
HETATM   10  N   UNL     1      28.440  38.823  48.824  1.00  0.00    -0.280 N 
HETATM   11  H   UNL     1      28.741  38.119  48.158  1.00  0.00     0.189 HD
HETATM   12  N   UNL     1      27.533  39.716  48.423  1.00  0.00    -0.177 NA
HETATM   13  C   UNL     1      27.344  40.505  49.492  1.00  0.00     0.079 A 
HETATM   14  C   UNL     1      26.351  41.603  49.381  1.00  0.00     0.075 C 
ENDBRANCH   1   7
BRANCH   3  15
HETATM   15  C   UNL     1      29.251  42.944  54.468  1.00  0.00     0.039 A 
HETATM   16  C   UNL     1      30.363  42.805  55.299  1.00  0.00     0.056 A 
HETATM   17  C   UNL     1      30.778  43.869  56.111  1.00  0.00     0.071 A 
HETATM   18 CL   UNL     1      32.154  43.635  57.130  1.00  0.00    -0.081 Cl
HETATM   19  C   UNL     1      30.090  45.087  56.098  1.00  0.00     0.111 A 
HETATM   20  C   UNL     1      28.971  45.224  55.273  1.00  0.00     0.071 A 
HETATM   21 CL   UNL     1      28.025  46.669  55.246  1.00  0.00    -0.081 Cl
HETATM   22  C   UNL     1      28.564  44.164  54.455  1.00  0.00     0.056 A 
BRANCH  19  23
HETATM   23  O   UNL     1      30.464  46.082  56.965  1.00  0.00    -0.352 OA
HETATM   24  C   UNL     1      29.847  45.933  58.244  1.00  0.00     0.210 C 
ENDBRANCH  19  23
ENDBRANCH   3  15
TORSDOF 3
ENDMDL
MODEL 5
REMARK VINA RESULT:      -7.5      2.000      3.622
REMARK  3 active torsions:
REMARK  status: ('A' for Active; 'I' for Inactive)
REMARK    1  A    between atoms: C_8  and  N_9 
REMARK       I    between atoms: N_9  and  C_10 
REMARK       I    between atoms: C_10  and  N_11 
REMARK    2  A    between atoms: N_11  and  C_12 
REMARK    3  A    between atoms: C_16  and  O_17 
ROOT
HETATM    1  N   UNL     1      25.737  41.821  51.426  1.00  0.00    -0.305 N 
HETATM    2  C   UNL     1      26.677  42.789  51.731  1.00  0.00     0.325 C 
HETATM    3  N   UNL     1      26.725  42.983  53.108  1.00  0.00    -0.309 N 
HETATM    4  O   UNL     1      27.384  43.375  50.925  1.00  0.00    -0.247 OA
HETATM    5  H   UNL     1      25.425  41.241  52.188  1.00  0.00     0.171 HD
HETATM    6  H   UNL     1      25.941  42.616  53.626  1.00  0.00     0.170 HD
ENDROOT
BRANCH   1   7
HETATM    7  C   UNL     1      25.365  41.378  50.167  1.00  0.00     0.086 A 
HETATM    8  C   UNL     1      26.027  40.334  49.546  1.00  0.00     0.052 A 
HETATM    9  C   UNL     1      27.174  39.490  49.957  1.00  0.00     0.072 C 
HETATM   10  N   UNL     1      25.418  40.171  48.335  1.00  0.00    -0.280 N 
HETATM   11  H   UNL     1      25.644  39.507  47.603  1.00  0.00     0.189 HD
HETATM   12  N   UNL     1      24.397  41.006  48.129  1.00  0.00    -0.177 NA
HETATM   13  C   UNL     1      24.347  41.754  49.243  1.00  0.00     0.079 A 
HETATM   14  C   UNL     1      23.279  42.781  49.344  1.00  0.00     0.075 C 
ENDBRANCH   1   7
BRANCH   3  15
HETATM   15  C   UNL     1      27.681  43.709  53.850  1.00  0.00     0.039 A 
HETATM   16  C   UNL     1      28.828  43.146  54.412  1.00  0.00     0.056 A 
HETATM   17  C   UNL     1      29.693  43.929  55.188  1.00  0.00     0.071 A 
HETATM   18 CL   UNL     1      31.091  43.176  55.871  1.00  0.00    -0.081 Cl
HETATM   19  C   UNL     1      29.426  45.286  55.405  1.00  0.00     0.111 A 
HETATM   20  C   UNL     1      28.274  45.847  54.850  1.00  0.00     0.071 A 
HETATM   21 CL   UNL     1      27.835  47.495  55.125  1.00  0.00    -0.081 Cl
HETATM   22  C   UNL     1      27.416  45.066  54.067  1.00  0.00     0.056 A 
BRANCH  19  23
HETATM   23  O   UNL     1      30.243  46.007  56.239  1.00  0.00    -0.352 OA
HETATM   24  C   UNL     1      29.802  45.949  57.596  1.00  0.00     0.210 C 
ENDBRANCH  19  23
ENDBRANCH   3  15
TORSDOF 3
ENDMDL
MODEL 6
REMARK VINA RESULT:      -7.3      1.841      3.227
REMARK  3 active torsions:
REMARK  status: ('A' for Active; 'I' for Inactive)
REMARK    1  A    between atoms: C_8  and  N_9 
REMARK       I    between atoms: N_9  and  C_10 
REMARK       I    between atoms: C_10  and  N_11 
REMARK    2  A    between atoms: N_11  and  C_12 
REMARK    3  A    between atoms: C_16  and  O_17 
ROOT
HETATM    1  N   UNL     1      28.942  40.257  50.576  1.00  0.00    -0.305 N 
HETATM    2  C   UNL     1      28.304  41.004  51.550  1.00  0.00     0.325 C 
HETATM    3  N   UNL     1      29.163  41.987  52.029  1.00  0.00    -0.309 N 
HETATM    4  O   UNL     1      27.151  40.850  51.924  1.00  0.00    -0.247 OA
HETATM    5  H   UNL     1      29.780  40.653  50.183  1.00  0.00     0.171 HD
HETATM    6  H   UNL     1      30.139  41.856  51.810  1.00  0.00     0.170 HD
ENDROOT
BRANCH   1   7
HETATM    7  C   UNL     1      28.438  39.163  49.892  1.00  0.00     0.086 A 
HETATM    8  C   UNL     1      28.926  37.887  50.114  1.00  0.00     0.052 A 
HETATM    9  C   UNL     1      29.984  37.361  51.008  1.00  0.00     0.072 C 
HETATM   10  N   UNL     1      28.224  37.067  49.278  1.00  0.00    -0.280 N 
HETATM   11  H   UNL     1      28.319  36.064  49.157  1.00  0.00     0.189 HD
HETATM   12  N   UNL     1      27.302  37.700  48.550  1.00  0.00    -0.177 NA
HETATM   13  C   UNL     1      27.416  38.988  48.913  1.00  0.00     0.079 A 
HETATM   14  C   UNL     1      26.491  39.970  48.293  1.00  0.00     0.075 C 
ENDBRANCH   1   7
BRANCH   3  15
HETATM   15  C   UNL     1      28.850  43.086  52.857  1.00  0.00     0.039 A 
HETATM   16  C   UNL     1      29.577  43.441  53.995  1.00  0.00     0.056 A 
HETATM   17  C   UNL     1      29.158  44.513  54.796  1.00  0.00     0.071 A 
HETATM   18 CL   UNL     1      30.089  44.899  56.200  1.00  0.00    -0.081 Cl
HETATM   19  C   UNL     1      28.012  45.245  54.467  1.00  0.00     0.111 A 
HETATM   20  C   UNL     1      27.280  44.883  53.333  1.00  0.00     0.071 A 
HETATM   21 CL   UNL     1      25.817  45.691  52.893  1.00  0.00    -0.081 Cl
HETATM   22  C   UNL     1      27.704  43.820  52.528  1.00  0.00     0.056 A 
BRANCH  19  23
HETATM   23  O   UNL     1      27.577  46.231  55.314  1.00  0.00    -0.352 OA
HETATM   24  C   UNL     1      27.989  47.527  54.878  1.00  0.00     0.210 C 
ENDBRANCH  19  23
ENDBRANCH   3  15
TORSDOF 3
ENDMDL
MODEL 7
REMARK VINA RESULT:      -7.2      1.658      1.760
REMARK  3 active torsions:
REMARK  status: ('A' for Active; 'I' for Inactive)
REMARK    1  A    between atoms: C_8  and  N_9 
REMARK       I    between atoms: N_9  and  C_10 
REMARK       I    between atoms: C_10  and  N_11 
REMARK    2  A    between atoms: N_11  and  C_12 
REMARK    3  A    between atoms: C_16  and  O_17 
ROOT
HETATM    1  N   UNL     1      27.289  40.125  51.205  1.00  0.00    -0.305 N 
HETATM    2  C   UNL     1      27.589  41.441  51.508  1.00  0.00     0.325 C 
HETATM    3  N   UNL     1      27.335  41.684  52.854  1.00  0.00    -0.309 N 
HETATM    4  O   UNL     1      28.035  42.268  50.727  1.00  0.00    -0.247 OA
HETATM    5  H   UNL     1      27.188  39.495  51.984  1.00  0.00     0.171 HD
HETATM    6  H   UNL     1      26.759  40.998  53.318  1.00  0.00     0.170 HD
ENDROOT
BRANCH   1   7
HETATM    7  C   UNL     1      27.366  39.510  49.966  1.00  0.00     0.086 A 
HETATM    8  C   UNL     1      26.451  39.788  48.966  1.00  0.00     0.052 A 
HETATM    9  C   UNL     1      25.273  40.685  48.907  1.00  0.00     0.072 C 
HETATM   10  N   UNL     1      26.811  39.011  47.902  1.00  0.00    -0.280 N 
HETATM   11  H   UNL     1      26.362  38.940  46.995  1.00  0.00     0.189 HD
HETATM   12  N   UNL     1      27.900  38.271  48.119  1.00  0.00    -0.177 NA
HETATM   13  C   UNL     1      28.258  38.564  49.379  1.00  0.00     0.079 A 
HETATM   14  C   UNL     1      29.475  37.914  49.927  1.00  0.00     0.075 C 
ENDBRANCH   1   7
BRANCH   3  15
HETATM   15  C   UNL     1      27.702  42.813  53.616  1.00  0.00     0.039 A 
HETATM   16  C   UNL     1      26.925  43.967  53.733  1.00  0.00     0.056 A 
HETATM   17  C   UNL     1      27.395  45.067  54.462  1.00  0.00     0.071 A 
HETATM   18 CL   UNL     1      26.396  46.473  54.561  1.00  0.00    -0.081 Cl
HETATM   19  C   UNL     1      28.645  45.025  55.090  1.00  0.00     0.111 A 
HETATM   20  C   UNL     1      29.427  43.874  54.966  1.00  0.00     0.071 A 
HETATM   21 CL   UNL     1      31.009  43.764  55.652  1.00  0.00    -0.081 Cl
HETATM   22  C   UNL     1      28.952  42.772  54.245  1.00  0.00     0.056 A 
BRANCH  19  23
HETATM   23  O   UNL     1      29.118  46.146  55.724  1.00  0.00    -0.352 OA
HETATM   24  C   UNL     1      28.823  46.131  57.121  1.00  0.00     0.210 C 
ENDBRANCH  19  23
ENDBRANCH   3  15
TORSDOF 3
ENDMDL
MODEL 8
REMARK VINA RESULT:      -7.1      5.791      7.261
REMARK  3 active torsions:
REMARK  status: ('A' for Active; 'I' for Inactive)
REMARK    1  A    between atoms: C_8  and  N_9 
REMARK       I    between atoms: N_9  and  C_10 
REMARK       I    between atoms: C_10  and  N_11 
REMARK    2  A    between atoms: N_11  and  C_12 
REMARK    3  A    between atoms: C_16  and  O_17 
ROOT
HETATM    1  N   UNL     1      26.932  43.686  51.751  1.00  0.00    -0.305 N 
HETATM    2  C   UNL     1      26.502  44.398  50.645  1.00  0.00     0.325 C 
HETATM    3  N   UNL     1      25.770  45.507  51.054  1.00  0.00    -0.309 N 
HETATM    4  O   UNL     1      26.744  44.119  49.481  1.00  0.00    -0.247 OA
HETATM    5  H   UNL     1      26.892  44.164  52.637  1.00  0.00     0.171 HD
HETATM    6  H   UNL     1      25.451  45.490  52.011  1.00  0.00     0.170 HD
ENDROOT
BRANCH   1   7
HETATM    7  C   UNL     1      27.650  42.501  51.761  1.00  0.00     0.086 A 
HETATM    8  C   UNL     1      28.897  42.420  52.354  1.00  0.00     0.052 A 
HETATM    9  C   UNL     1      29.741  43.417  53.054  1.00  0.00     0.072 C 
HETATM   10  N   UNL     1      29.315  41.132  52.173  1.00  0.00    -0.280 N 
HETATM   11  H   UNL     1      30.190  40.709  52.463  1.00  0.00     0.189 HD
HETATM   12  N   UNL     1      28.431  40.364  51.533  1.00  0.00    -0.177 NA
HETATM   13  C   UNL     1      27.401  41.185  51.273  1.00  0.00     0.079 A 
HETATM   14  C   UNL     1      26.216  40.617  50.581  1.00  0.00     0.075 C 
ENDBRANCH   1   7
BRANCH   3  15
HETATM   15  C   UNL     1      25.340  46.600  50.272  1.00  0.00     0.039 A 
HETATM   16  C   UNL     1      24.050  46.736  49.756  1.00  0.00     0.056 A 
HETATM   17  C   UNL     1      23.726  47.826  48.936  1.00  0.00     0.071 A 
HETATM   18 CL   UNL     1      22.117  47.935  48.315  1.00  0.00    -0.081 Cl
HETATM   19  C   UNL     1      24.686  48.796  48.627  1.00  0.00     0.111 A 
HETATM   20  C   UNL     1      25.980  48.656  49.136  1.00  0.00     0.071 A 
HETATM   21 CL   UNL     1      27.241  49.771  48.749  1.00  0.00    -0.081 Cl
HETATM   22  C   UNL     1      26.299  47.572  49.963  1.00  0.00     0.056 A 
BRANCH  19  23
HETATM   23  O   UNL     1      24.367  49.804  47.754  1.00  0.00    -0.352 OA
HETATM   24  C   UNL     1      23.690  50.879  48.406  1.00  0.00     0.210 C 
ENDBRANCH  19  23
ENDBRANCH   3  15
TORSDOF 3
ENDMDL
MODEL 9
REMARK VINA RESULT:      -7.1     10.261     12.305
REMARK  3 active torsions:
REMARK  status: ('A' for Active; 'I' for Inactive)
REMARK    1  A    between atoms: C_8  and  N_9 
REMARK       I    between atoms: N_9  and  C_10 
REMARK       I    between atoms: C_10  and  N_11 
REMARK    2  A    between atoms: N_11  and  C_12 
REMARK    3  A    between atoms: C_16  and  O_17 
ROOT
HETATM    1  N   UNL     1      23.585  47.979  49.963  1.00  0.00    -0.305 N 
HETATM    2  C   UNL     1      22.649  48.350  49.014  1.00  0.00     0.325 C 
HETATM    3  N   UNL     1      21.424  48.586  49.628  1.00  0.00    -0.309 N 
HETATM    4  O   UNL     1      22.861  48.481  47.818  1.00  0.00    -0.247 OA
HETATM    5  H   UNL     1      23.351  48.168  50.924  1.00  0.00     0.171 HD
HETATM    6  H   UNL     1      21.328  48.221  50.563  1.00  0.00     0.170 HD
ENDROOT
BRANCH   1   7
HETATM    7  C   UNL     1      24.905  47.619  49.745  1.00  0.00     0.086 A 
HETATM    8  C   UNL     1      25.369  46.354  50.062  1.00  0.00     0.052 A 
HETATM    9  C   UNL     1      24.710  45.165  50.653  1.00  0.00     0.072 C 
HETATM   10  N   UNL     1      26.694  46.348  49.733  1.00  0.00    -0.280 N 
HETATM   11  H   UNL     1      27.363  45.593  49.839  1.00  0.00     0.189 HD
HETATM   12  N   UNL     1      27.123  47.496  49.205  1.00  0.00    -0.177 NA
HETATM   13  C   UNL     1      26.040  48.289  49.201  1.00  0.00     0.079 A 
HETATM   14  C   UNL     1      26.179  49.655  48.636  1.00  0.00     0.075 C 
ENDBRANCH   1   7
BRANCH   3  15
HETATM   15  C   UNL     1      20.274  49.186  49.070  1.00  0.00     0.039 A 
HETATM   16  C   UNL     1      20.141  50.555  48.833  1.00  0.00     0.056 A 
HETATM   17  C   UNL     1      18.939  51.073  48.332  1.00  0.00     0.071 A 
HETATM   18 CL   UNL     1      18.827  52.778  48.071  1.00  0.00    -0.081 Cl
HETATM   19  C   UNL     1      17.858  50.229  48.058  1.00  0.00     0.111 A 
HETATM   20  C   UNL     1      17.987  48.860  48.304  1.00  0.00     0.071 A 
HETATM   21 CL   UNL     1      16.681  47.758  48.056  1.00  0.00    -0.081 Cl
HETATM   22  C   UNL     1      19.192  48.342  48.794  1.00  0.00     0.056 A 
BRANCH  19  23
HETATM   23  O   UNL     1      16.666  50.772  47.651  1.00  0.00    -0.352 OA
HETATM   24  C   UNL     1      15.846  51.145  48.759  1.00  0.00     0.210 C 
ENDBRANCH  19  23
ENDBRANCH   3  15
TORSDOF 3
ENDMDL
MODEL 10
REMARK VINA RESULT:      -7.1     10.259     12.412
REMARK  3 active torsions:
REMARK  status: ('A' for Active; 'I' for Inactive)
REMARK    1  A    between atoms: C_8  and  N_9 
REMARK       I    between atoms: N_9  and  C_10 
REMARK       I    between atoms: C_10  and  N_11 
REMARK    2  A    between atoms: N_11  and  C_12 
REMARK    3  A    between atoms: C_16  and  O_17 
ROOT
HETATM    1  N   UNL     1      23.585  48.007  49.932  1.00  0.00    -0.305 N 
HETATM    2  C   UNL     1      22.618  48.257  48.975  1.00  0.00     0.325 C 
HETATM    3  N   UNL     1      21.393  48.487  49.591  1.00  0.00    -0.309 N 
HETATM    4  O   UNL     1      22.805  48.299  47.768  1.00  0.00    -0.247 OA
HETATM    5  H   UNL     1      23.358  48.263  50.879  1.00  0.00     0.171 HD
HETATM    6  H   UNL     1      21.330  48.196  50.555  1.00  0.00     0.170 HD
ENDROOT
BRANCH   1   7
HETATM    7  C   UNL     1      24.917  47.691  49.718  1.00  0.00     0.086 A 
HETATM    8  C   UNL     1      25.429  46.455  50.072  1.00  0.00     0.052 A 
HETATM    9  C   UNL     1      24.819  45.261  50.703  1.00  0.00     0.072 C 
HETATM   10  N   UNL     1      26.753  46.488  49.736  1.00  0.00    -0.280 N 
HETATM   11  H   UNL     1      27.450  45.763  49.861  1.00  0.00     0.189 HD
HETATM   12  N   UNL     1      27.136  47.634  49.169  1.00  0.00    -0.177 NA
HETATM   13  C   UNL     1      26.024  48.385  49.147  1.00  0.00     0.079 A 
HETATM   14  C   UNL     1      26.109  49.737  48.539  1.00  0.00     0.075 C 
ENDBRANCH   1   7
BRANCH   3  15
HETATM   15  C   UNL     1      20.208  48.987  49.009  1.00  0.00     0.039 A 
HETATM   16  C   UNL     1      19.215  48.186  48.444  1.00  0.00     0.056 A 
HETATM   17  C   UNL     1      18.097  48.770  47.832  1.00  0.00     0.071 A 
HETATM   18 CL   UNL     1      16.906  47.730  47.136  1.00  0.00    -0.081 Cl
HETATM   19  C   UNL     1      17.957  50.162  47.783  1.00  0.00     0.111 A 
HETATM   20  C   UNL     1      18.956  50.963  48.341  1.00  0.00     0.071 A 
HETATM   21 CL   UNL     1      18.894  52.688  48.264  1.00  0.00    -0.081 Cl
HETATM   22  C   UNL     1      20.066  50.379  48.961  1.00  0.00     0.056 A 
BRANCH  19  23
HETATM   23  O   UNL     1      16.899  50.708  47.103  1.00  0.00    -0.352 OA
HETATM   24  C   UNL     1      15.798  50.989  47.968  1.00  0.00     0.210 C 
ENDBRANCH  19  23
ENDBRANCH   3  15
TORSDOF 3
ENDMDL
