MODEL 1
REMARK VINA RESULT:      -9.8      0.000      0.000
REMARK  7 active torsions:
REMARK  status: ('A' for Active; 'I' for Inactive)
REMARK    1  A    between atoms: C_3  and  O_4 
REMARK    2  A    between atoms: O_4  and  C_5 
REMARK    3  A    between atoms: C_5  and  C_6 
REMARK       I    between atoms: C_6  and  N_7 
REMARK    4  A    between atoms: N_7  and  C_8 
REMARK    5  A    between atoms: C_11  and  N_12 
REMARK    6  A    between atoms: N_15  and  C_17 
REMARK    7  A    between atoms: C_17  and  C_18 
ROOT
HETATM    1  C   UNL     1      25.910  46.244  50.649  1.00  0.00     0.034 A 
HETATM    2  C   UNL     1      26.336  47.506  50.246  1.00  0.00     0.032 A 
HETATM    3  C   UNL     1      25.495  48.341  49.492  1.00  0.00     0.031 A 
HETATM    4  C   UNL     1      24.212  47.940  49.101  1.00  0.00     0.030 A 
HETATM    5  C   UNL     1      23.799  46.668  49.525  1.00  0.00     0.031 A 
HETATM    6  C   UNL     1      24.627  45.834  50.287  1.00  0.00     0.032 A 
ENDROOT
BRANCH   4   7
HETATM    7  N   UNL     1      23.345  48.747  48.369  1.00  0.00    -0.378 N 
HETATM    8  C   UNL     1      23.583  50.204  48.400  1.00  0.00     0.150 C 
HETATM    9  C   UNL     1      22.636  50.892  49.409  1.00  0.00     0.255 C 
HETATM   10  N   UNL     1      21.180  50.537  49.090  1.00  0.00    -0.064 N 
HETATM   11  H   UNL     1      21.007  50.852  48.130  1.00  0.00     0.280 HD
HETATM   12  C   UNL     1      20.983  49.023  49.117  1.00  0.00     0.255 C 
HETATM   13  C   UNL     1      21.951  48.340  48.130  1.00  0.00     0.150 C 
BRANCH  10  14
HETATM   14  C   UNL     1      20.187  51.250  49.974  1.00  0.00     0.273 C 
BRANCH  14  15
HETATM   15  C   UNL     1      18.906  51.590  49.263  1.00  0.00    -0.033 A 
HETATM   16  C   UNL     1      17.695  51.686  49.970  1.00  0.00     0.009 A 
HETATM   17  C   UNL     1      16.505  51.968  49.299  1.00  0.00     0.001 A 
HETATM   18  C   UNL     1      16.510  52.163  47.920  1.00  0.00     0.000 A 
HETATM   19  C   UNL     1      17.705  52.084  47.209  1.00  0.00     0.001 A 
HETATM   20  C   UNL     1      18.898  51.798  47.875  1.00  0.00     0.009 A 
ENDBRANCH  14  15
ENDBRANCH  10  14
ENDBRANCH   4   7
BRANCH   1  21
HETATM   21  N   UNL     1      26.679  45.357  51.429  1.00  0.00    -0.325 N 
HETATM   22  C   UNL     1      27.394  44.247  50.989  1.00  0.00     0.246 C 
HETATM   23  O   UNL     1      27.414  43.825  49.837  1.00  0.00    -0.271 OA
HETATM   24  H   UNL     1      26.686  45.536  52.426  1.00  0.00     0.169 HD
BRANCH  22  25
HETATM   25  C   UNL     1      28.173  43.583  52.133  1.00  0.00     0.278 C 
BRANCH  25  26
HETATM   26  O   UNL     1      27.647  43.918  53.414  1.00  0.00    -0.342 OA
BRANCH  26  27
HETATM   27  C   UNL     1      28.660  44.137  54.308  1.00  0.00     0.075 A 
HETATM   28  C   UNL     1      28.757  45.349  55.005  1.00  0.00    -0.029 A 
HETATM   29  C   UNL     1      27.757  46.451  54.813  1.00  0.00     0.051 C 
HETATM   30  C   UNL     1      29.801  45.505  55.927  1.00  0.00     0.009 A 
HETATM   31  C   UNL     1      30.745  44.491  56.112  1.00  0.00     0.001 A 
HETATM   32  C   UNL     1      30.657  43.309  55.378  1.00  0.00     0.003 A 
HETATM   33  C   UNL     1      29.616  43.132  54.470  1.00  0.00     0.037 A 
ENDBRANCH  26  27
ENDBRANCH  25  26
ENDBRANCH  22  25
ENDBRANCH   1  21
TORSDOF 7
ENDMDL
MODEL 2
REMARK VINA RESULT:      -9.8      1.813      2.635
REMARK  7 active torsions:
REMARK  status: ('A' for Active; 'I' for Inactive)
REMARK    1  A    between atoms: C_3  and  O_4 
REMARK    2  A    between atoms: O_4  and  C_5 
REMARK    3  A    between atoms: C_5  and  C_6 
REMARK       I    between atoms: C_6  and  N_7 
REMARK    4  A    between atoms: N_7  and  C_8 
REMARK    5  A    between atoms: C_11  and  N_12 
REMARK    6  A    between atoms: N_15  and  C_17 
REMARK    7  A    between atoms: C_17  and  C_18 
ROOT
HETATM    1  C   UNL     1      25.702  45.856  51.694  1.00  0.00     0.034 A 
HETATM    2  C   UNL     1      25.718  47.140  51.156  1.00  0.00     0.032 A 
HETATM    3  C   UNL     1      24.845  47.493  50.114  1.00  0.00     0.031 A 
HETATM    4  C   UNL     1      23.944  46.575  49.561  1.00  0.00     0.030 A 
HETATM    5  C   UNL     1      23.939  45.289  50.123  1.00  0.00     0.031 A 
HETATM    6  C   UNL     1      24.797  44.933  51.171  1.00  0.00     0.032 A 
ENDROOT
BRANCH   4   7
HETATM    7  N   UNL     1      23.053  46.894  48.539  1.00  0.00    -0.378 N 
HETATM    8  C   UNL     1      22.815  48.326  48.267  1.00  0.00     0.150 C 
HETATM    9  C   UNL     1      21.504  48.799  48.933  1.00  0.00     0.255 C 
HETATM   10  N   UNL     1      20.337  47.910  48.489  1.00  0.00    -0.064 N 
HETATM   11  H   UNL     1      20.292  47.979  47.467  1.00  0.00     0.280 HD
HETATM   12  C   UNL     1      20.619  46.450  48.835  1.00  0.00     0.255 C 
HETATM   13  C   UNL     1      21.944  45.992  48.193  1.00  0.00     0.150 C 
BRANCH  10  14
HETATM   14  C   UNL     1      19.003  48.369  49.022  1.00  0.00     0.273 C 
BRANCH  14  15
HETATM   15  C   UNL     1      18.790  49.851  48.875  1.00  0.00    -0.033 A 
HETATM   16  C   UNL     1      18.703  50.442  47.603  1.00  0.00     0.009 A 
HETATM   17  C   UNL     1      18.539  51.822  47.474  1.00  0.00     0.001 A 
HETATM   18  C   UNL     1      18.453  52.624  48.610  1.00  0.00     0.000 A 
HETATM   19  C   UNL     1      18.524  52.049  49.877  1.00  0.00     0.001 A 
HETATM   20  C   UNL     1      18.692  50.669  50.011  1.00  0.00     0.009 A 
ENDBRANCH  14  15
ENDBRANCH  10  14
ENDBRANCH   4   7
BRANCH   1  21
HETATM   21  N   UNL     1      26.522  45.429  52.757  1.00  0.00    -0.325 N 
HETATM   22  C   UNL     1      26.441  45.809  54.094  1.00  0.00     0.246 C 
HETATM   23  O   UNL     1      25.662  46.640  54.550  1.00  0.00    -0.271 OA
HETATM   24  H   UNL     1      27.273  44.796  52.509  1.00  0.00     0.169 HD
BRANCH  22  25
HETATM   25  C   UNL     1      27.462  45.059  54.960  1.00  0.00     0.278 C 
BRANCH  25  26
HETATM   26  O   UNL     1      28.803  45.456  54.685  1.00  0.00    -0.342 OA
BRANCH  26  27
HETATM   27  C   UNL     1      29.649  44.997  55.659  1.00  0.00     0.075 A 
HETATM   28  C   UNL     1      30.407  43.834  55.466  1.00  0.00    -0.029 A 
HETATM   29  C   UNL     1      30.334  43.048  54.189  1.00  0.00     0.051 C 
HETATM   30  C   UNL     1      31.275  43.427  56.488  1.00  0.00     0.009 A 
HETATM   31  C   UNL     1      31.349  44.144  57.685  1.00  0.00     0.001 A 
HETATM   32  C   UNL     1      30.556  45.275  57.876  1.00  0.00     0.003 A 
HETATM   33  C   UNL     1      29.700  45.700  56.864  1.00  0.00     0.037 A 
ENDBRANCH  26  27
ENDBRANCH  25  26
ENDBRANCH  22  25
ENDBRANCH   1  21
TORSDOF 7
ENDMDL
MODEL 3
REMARK VINA RESULT:      -9.4      1.807      2.564
REMARK  7 active torsions:
REMARK  status: ('A' for Active; 'I' for Inactive)
REMARK    1  A    between atoms: C_3  and  O_4 
REMARK    2  A    between atoms: O_4  and  C_5 
REMARK    3  A    between atoms: C_5  and  C_6 
REMARK       I    between atoms: C_6  and  N_7 
REMARK    4  A    between atoms: N_7  and  C_8 
REMARK    5  A    between atoms: C_11  and  N_12 
REMARK    6  A    between atoms: N_15  and  C_17 
REMARK    7  A    between atoms: C_17  and  C_18 
ROOT
HETATM    1  C   UNL     1      25.187  44.551  51.152  1.00  0.00     0.034 A 
HETATM    2  C   UNL     1      24.188  43.733  50.632  1.00  0.00     0.032 A 
HETATM    3  C   UNL     1      23.268  44.232  49.694  1.00  0.00     0.031 A 
HETATM    4  C   UNL     1      23.303  45.562  49.260  1.00  0.00     0.030 A 
HETATM    5  C   UNL     1      24.323  46.366  49.790  1.00  0.00     0.031 A 
HETATM    6  C   UNL     1      25.251  45.874  50.716  1.00  0.00     0.032 A 
ENDROOT
BRANCH   4   7
HETATM    7  N   UNL     1      22.419  46.086  48.320  1.00  0.00    -0.378 N 
HETATM    8  C   UNL     1      22.424  47.550  48.124  1.00  0.00     0.150 C 
HETATM    9  C   UNL     1      21.265  48.211  48.903  1.00  0.00     0.255 C 
HETATM   10  N   UNL     1      19.932  47.566  48.510  1.00  0.00    -0.064 N 
HETATM   11  H   UNL     1      19.834  47.696  47.497  1.00  0.00     0.280 HD
HETATM   12  C   UNL     1      19.969  46.063  48.775  1.00  0.00     0.255 C 
HETATM   13  C   UNL     1      21.145  45.414  48.019  1.00  0.00     0.150 C 
BRANCH  10  14
HETATM   14  C   UNL     1      18.740  48.224  49.157  1.00  0.00     0.273 C 
BRANCH  14  15
HETATM   15  C   UNL     1      18.699  49.712  48.937  1.00  0.00    -0.033 A 
HETATM   16  C   UNL     1      18.662  50.246  47.638  1.00  0.00     0.009 A 
HETATM   17  C   UNL     1      18.658  51.628  47.442  1.00  0.00     0.001 A 
HETATM   18  C   UNL     1      18.683  52.489  48.536  1.00  0.00     0.000 A 
HETATM   19  C   UNL     1      18.705  51.972  49.830  1.00  0.00     0.001 A 
HETATM   20  C   UNL     1      18.714  50.591  50.032  1.00  0.00     0.009 A 
ENDBRANCH  14  15
ENDBRANCH  10  14
ENDBRANCH   4   7
BRANCH   1  21
HETATM   21  N   UNL     1      26.164  44.123  52.074  1.00  0.00    -0.325 N 
HETATM   22  C   UNL     1      26.011  43.941  53.445  1.00  0.00     0.246 C 
HETATM   23  O   UNL     1      24.995  44.190  54.086  1.00  0.00    -0.271 OA
HETATM   24  H   UNL     1      27.088  43.958  51.694  1.00  0.00     0.169 HD
BRANCH  22  25
HETATM   25  C   UNL     1      27.288  43.384  54.090  1.00  0.00     0.278 C 
BRANCH  25  26
HETATM   26  O   UNL     1      28.447  44.134  53.736  1.00  0.00    -0.342 OA
BRANCH  26  27
HETATM   27  C   UNL     1      29.293  44.245  54.807  1.00  0.00     0.075 A 
HETATM   28  C   UNL     1      29.319  45.408  55.588  1.00  0.00    -0.029 A 
HETATM   29  C   UNL     1      28.421  46.574  55.296  1.00  0.00     0.051 C 
HETATM   30  C   UNL     1      30.188  45.453  56.686  1.00  0.00     0.009 A 
HETATM   31  C   UNL     1      31.037  44.378  56.967  1.00  0.00     0.001 A 
HETATM   32  C   UNL     1      31.027  43.246  56.153  1.00  0.00     0.003 A 
HETATM   33  C   UNL     1      30.158  43.180  55.067  1.00  0.00     0.037 A 
ENDBRANCH  26  27
ENDBRANCH  25  26
ENDBRANCH  22  25
ENDBRANCH   1  21
TORSDOF 7
ENDMDL
MODEL 4
REMARK VINA RESULT:      -9.4      3.026     11.367
REMARK  7 active torsions:
REMARK  status: ('A' for Active; 'I' for Inactive)
REMARK    1  A    between atoms: C_3  and  O_4 
REMARK    2  A    between atoms: O_4  and  C_5 
REMARK    3  A    between atoms: C_5  and  C_6 
REMARK       I    between atoms: C_6  and  N_7 
REMARK    4  A    between atoms: N_7  and  C_8 
REMARK    5  A    between atoms: C_11  and  N_12 
REMARK    6  A    between atoms: N_15  and  C_17 
REMARK    7  A    between atoms: C_17  and  C_18 
ROOT
HETATM    1  C   UNL     1      21.508  47.765  48.539  1.00  0.00     0.034 A 
HETATM    2  C   UNL     1      22.379  48.690  49.106  1.00  0.00     0.032 A 
HETATM    3  C   UNL     1      23.654  48.299  49.550  1.00  0.00     0.031 A 
HETATM    4  C   UNL     1      24.093  46.973  49.460  1.00  0.00     0.030 A 
HETATM    5  C   UNL     1      23.202  46.058  48.878  1.00  0.00     0.031 A 
HETATM    6  C   UNL     1      21.935  46.443  48.422  1.00  0.00     0.032 A 
ENDROOT
BRANCH   4   7
HETATM    7  N   UNL     1      25.354  46.552  49.874  1.00  0.00    -0.378 N 
HETATM    8  C   UNL     1      25.568  45.099  50.031  1.00  0.00     0.150 C 
HETATM    9  C   UNL     1      25.449  44.686  51.515  1.00  0.00     0.255 C 
HETATM   10  N   UNL     1      26.406  45.520  52.372  1.00  0.00    -0.064 N 
HETATM   11  H   UNL     1      27.348  45.352  52.004  1.00  0.00     0.280 HD
HETATM   12  C   UNL     1      26.110  47.009  52.204  1.00  0.00     0.255 C 
HETATM   13  C   UNL     1      26.200  47.409  50.718  1.00  0.00     0.150 C 
BRANCH  10  14
HETATM   14  C   UNL     1      26.420  45.108  53.822  1.00  0.00     0.273 C 
BRANCH  14  15
HETATM   15  C   UNL     1      27.745  44.550  54.263  1.00  0.00    -0.033 A 
HETATM   16  C   UNL     1      28.536  45.232  55.203  1.00  0.00     0.009 A 
HETATM   17  C   UNL     1      29.780  44.725  55.581  1.00  0.00     0.001 A 
HETATM   18  C   UNL     1      30.244  43.531  55.033  1.00  0.00     0.000 A 
HETATM   19  C   UNL     1      29.464  42.838  54.110  1.00  0.00     0.001 A 
HETATM   20  C   UNL     1      28.220  43.343  53.725  1.00  0.00     0.009 A 
ENDBRANCH  14  15
ENDBRANCH  10  14
ENDBRANCH   4   7
BRANCH   1  21
HETATM   21  N   UNL     1      20.227  48.080  48.044  1.00  0.00    -0.325 N 
HETATM   22  C   UNL     1      19.039  48.163  48.765  1.00  0.00     0.246 C 
HETATM   23  O   UNL     1      18.913  47.910  49.958  1.00  0.00    -0.271 OA
HETATM   24  H   UNL     1      20.164  48.234  47.045  1.00  0.00     0.169 HD
BRANCH  22  25
HETATM   25  C   UNL     1      17.869  48.615  47.880  1.00  0.00     0.278 C 
BRANCH  25  26
HETATM   26  O   UNL     1      18.059  49.925  47.353  1.00  0.00    -0.342 OA
BRANCH  26  27
HETATM   27  C   UNL     1      17.523  50.864  48.194  1.00  0.00     0.075 A 
HETATM   28  C   UNL     1      18.339  51.796  48.847  1.00  0.00    -0.029 A 
HETATM   29  C   UNL     1      19.827  51.815  48.652  1.00  0.00     0.051 C 
HETATM   30  C   UNL     1      17.731  52.749  49.675  1.00  0.00     0.009 A 
HETATM   31  C   UNL     1      16.348  52.740  49.874  1.00  0.00     0.001 A 
HETATM   32  C   UNL     1      15.556  51.777  49.248  1.00  0.00     0.003 A 
HETATM   33  C   UNL     1      16.144  50.834  48.410  1.00  0.00     0.037 A 
ENDBRANCH  26  27
ENDBRANCH  25  26
ENDBRANCH  22  25
ENDBRANCH   1  21
TORSDOF 7
ENDMDL
MODEL 5
REMARK VINA RESULT:      -8.8      1.363      2.179
REMARK  7 active torsions:
REMARK  status: ('A' for Active; 'I' for Inactive)
REMARK    1  A    between atoms: C_3  and  O_4 
REMARK    2  A    between atoms: O_4  and  C_5 
REMARK    3  A    between atoms: C_5  and  C_6 
REMARK       I    between atoms: C_6  and  N_7 
REMARK    4  A    between atoms: N_7  and  C_8 
REMARK    5  A    between atoms: C_11  and  N_12 
REMARK    6  A    between atoms: N_15  and  C_17 
REMARK    7  A    between atoms: C_17  and  C_18 
ROOT
HETATM    1  C   UNL     1      24.872  46.264  49.954  1.00  0.00     0.034 A 
HETATM    2  C   UNL     1      23.788  45.632  49.350  1.00  0.00     0.032 A 
HETATM    3  C   UNL     1      22.766  46.381  48.744  1.00  0.00     0.031 A 
HETATM    4  C   UNL     1      22.780  47.781  48.737  1.00  0.00     0.030 A 
HETATM    5  C   UNL     1      23.885  48.398  49.344  1.00  0.00     0.031 A 
HETATM    6  C   UNL     1      24.914  47.658  49.939  1.00  0.00     0.032 A 
ENDROOT
BRANCH   4   7
HETATM    7  N   UNL     1      21.794  48.556  48.132  1.00  0.00    -0.378 N 
HETATM    8  C   UNL     1      21.853  50.016  48.342  1.00  0.00     0.150 C 
HETATM    9  C   UNL     1      20.867  50.451  49.449  1.00  0.00     0.255 C 
HETATM   10  N   UNL     1      19.455  49.957  49.120  1.00  0.00    -0.064 N 
HETATM   11  H   UNL     1      19.209  50.363  48.211  1.00  0.00     0.280 HD
HETATM   12  C   UNL     1      19.445  48.439  48.959  1.00  0.00     0.255 C 
HETATM   13  C   UNL     1      20.452  48.009  47.874  1.00  0.00     0.150 C 
BRANCH  10  14
HETATM   14  C   UNL     1      18.416  50.426  50.108  1.00  0.00     0.273 C 
BRANCH  14  15
HETATM   15  C   UNL     1      17.334  51.257  49.473  1.00  0.00    -0.033 A 
HETATM   16  C   UNL     1      16.977  52.504  50.013  1.00  0.00     0.009 A 
HETATM   17  C   UNL     1      15.950  53.254  49.439  1.00  0.00     0.001 A 
HETATM   18  C   UNL     1      15.275  52.773  48.319  1.00  0.00     0.000 A 
HETATM   19  C   UNL     1      15.629  51.544  47.766  1.00  0.00     0.001 A 
HETATM   20  C   UNL     1      16.653  50.788  48.339  1.00  0.00     0.009 A 
ENDBRANCH  14  15
ENDBRANCH  10  14
ENDBRANCH   4   7
BRANCH   1  21
HETATM   21  N   UNL     1      25.950  45.588  50.558  1.00  0.00    -0.325 N 
HETATM   22  C   UNL     1      26.090  45.247  51.900  1.00  0.00     0.246 C 
HETATM   23  O   UNL     1      25.304  45.544  52.794  1.00  0.00    -0.271 OA
HETATM   24  H   UNL     1      26.722  45.351  49.946  1.00  0.00     0.169 HD
BRANCH  22  25
HETATM   25  C   UNL     1      27.372  44.440  52.150  1.00  0.00     0.278 C 
BRANCH  25  26
HETATM   26  O   UNL     1      27.293  43.647  53.331  1.00  0.00    -0.342 OA
BRANCH  26  27
HETATM   27  C   UNL     1      28.375  43.878  54.138  1.00  0.00     0.075 A 
HETATM   28  C   UNL     1      29.479  43.015  54.129  1.00  0.00    -0.029 A 
HETATM   29  C   UNL     1      29.532  41.812  53.233  1.00  0.00     0.051 C 
HETATM   30  C   UNL     1      30.567  43.318  54.958  1.00  0.00     0.009 A 
HETATM   31  C   UNL     1      30.531  44.430  55.803  1.00  0.00     0.001 A 
HETATM   32  C   UNL     1      29.406  45.253  55.830  1.00  0.00     0.003 A 
HETATM   33  C   UNL     1      28.323  44.975  55.000  1.00  0.00     0.037 A 
ENDBRANCH  26  27
ENDBRANCH  25  26
ENDBRANCH  22  25
ENDBRANCH   1  21
TORSDOF 7
ENDMDL
MODEL 6
REMARK VINA RESULT:      -8.6      2.965     11.260
REMARK  7 active torsions:
REMARK  status: ('A' for Active; 'I' for Inactive)
REMARK    1  A    between atoms: C_3  and  O_4 
REMARK    2  A    between atoms: O_4  and  C_5 
REMARK    3  A    between atoms: C_5  and  C_6 
REMARK       I    between atoms: C_6  and  N_7 
REMARK    4  A    between atoms: N_7  and  C_8 
REMARK    5  A    between atoms: C_11  and  N_12 
REMARK    6  A    between atoms: N_15  and  C_17 
REMARK    7  A    between atoms: C_17  and  C_18 
ROOT
HETATM    1  C   UNL     1      21.826  46.401  48.017  1.00  0.00     0.034 A 
HETATM    2  C   UNL     1      22.093  45.045  47.852  1.00  0.00     0.032 A 
HETATM    3  C   UNL     1      23.268  44.476  48.369  1.00  0.00     0.031 A 
HETATM    4  C   UNL     1      24.223  45.242  49.048  1.00  0.00     0.030 A 
HETATM    5  C   UNL     1      23.931  46.605  49.211  1.00  0.00     0.031 A 
HETATM    6  C   UNL     1      22.755  47.177  48.709  1.00  0.00     0.032 A 
ENDROOT
BRANCH   4   7
HETATM    7  N   UNL     1      25.392  44.710  49.589  1.00  0.00    -0.378 N 
HETATM    8  C   UNL     1      25.273  43.460  50.366  1.00  0.00     0.150 C 
HETATM    9  C   UNL     1      25.254  43.757  51.882  1.00  0.00     0.255 C 
HETATM   10  N   UNL     1      26.484  44.582  52.272  1.00  0.00    -0.064 N 
HETATM   11  H   UNL     1      27.304  44.027  52.003  1.00  0.00     0.280 HD
HETATM   12  C   UNL     1      26.530  45.882  51.471  1.00  0.00     0.255 C 
HETATM   13  C   UNL     1      26.519  45.579  49.959  1.00  0.00     0.150 C 
BRANCH  10  14
HETATM   14  C   UNL     1      26.587  44.830  53.756  1.00  0.00     0.273 C 
BRANCH  14  15
HETATM   15  C   UNL     1      27.941  44.487  54.317  1.00  0.00    -0.033 A 
HETATM   16  C   UNL     1      28.594  43.300  53.941  1.00  0.00     0.009 A 
HETATM   17  C   UNL     1      29.834  42.972  54.491  1.00  0.00     0.001 A 
HETATM   18  C   UNL     1      30.437  43.824  55.413  1.00  0.00     0.000 A 
HETATM   19  C   UNL     1      29.806  45.010  55.783  1.00  0.00     0.001 A 
HETATM   20  C   UNL     1      28.564  45.341  55.239  1.00  0.00     0.009 A 
ENDBRANCH  14  15
ENDBRANCH  10  14
ENDBRANCH   4   7
BRANCH   1  21
HETATM   21  N   UNL     1      20.660  47.043  47.555  1.00  0.00    -0.325 N 
HETATM   22  C   UNL     1      19.677  47.667  48.320  1.00  0.00     0.246 C 
HETATM   23  O   UNL     1      19.646  47.699  49.546  1.00  0.00    -0.271 OA
HETATM   24  H   UNL     1      20.509  47.021  46.554  1.00  0.00     0.169 HD
BRANCH  22  25
HETATM   25  C   UNL     1      18.604  48.323  47.440  1.00  0.00     0.278 C 
BRANCH  25  26
HETATM   26  O   UNL     1      18.934  49.664  47.091  1.00  0.00    -0.342 OA
BRANCH  26  27
HETATM   27  C   UNL     1      18.367  50.544  47.975  1.00  0.00     0.075 A 
HETATM   28  C   UNL     1      19.161  51.411  48.738  1.00  0.00    -0.029 A 
HETATM   29  C   UNL     1      20.656  51.423  48.616  1.00  0.00     0.051 C 
HETATM   30  C   UNL     1      18.523  52.306  49.606  1.00  0.00     0.009 A 
HETATM   31  C   UNL     1      17.131  52.303  49.736  1.00  0.00     0.001 A 
HETATM   32  C   UNL     1      16.361  51.403  49.000  1.00  0.00     0.003 A 
HETATM   33  C   UNL     1      16.979  50.518  48.121  1.00  0.00     0.037 A 
ENDBRANCH  26  27
ENDBRANCH  25  26
ENDBRANCH  22  25
ENDBRANCH   1  21
TORSDOF 7
ENDMDL
MODEL 7
REMARK VINA RESULT:      -8.6      2.511     11.337
REMARK  7 active torsions:
REMARK  status: ('A' for Active; 'I' for Inactive)
REMARK    1  A    between atoms: C_3  and  O_4 
REMARK    2  A    between atoms: O_4  and  C_5 
REMARK    3  A    between atoms: C_5  and  C_6 
REMARK       I    between atoms: C_6  and  N_7 
REMARK    4  A    between atoms: N_7  and  C_8 
REMARK    5  A    between atoms: C_11  and  N_12 
REMARK    6  A    between atoms: N_15  and  C_17 
REMARK    7  A    between atoms: C_17  and  C_18 
ROOT
HETATM    1  C   UNL     1      24.379  45.335  50.496  1.00  0.00     0.034 A 
HETATM    2  C   UNL     1      24.095  43.972  50.492  1.00  0.00     0.032 A 
HETATM    3  C   UNL     1      24.882  43.072  51.229  1.00  0.00     0.031 A 
HETATM    4  C   UNL     1      25.987  43.497  51.977  1.00  0.00     0.030 A 
HETATM    5  C   UNL     1      26.251  44.875  51.974  1.00  0.00     0.031 A 
HETATM    6  C   UNL     1      25.463  45.781  51.251  1.00  0.00     0.032 A 
ENDROOT
BRANCH   4   7
HETATM    7  N   UNL     1      26.779  42.637  52.733  1.00  0.00    -0.378 N 
HETATM    8  C   UNL     1      26.868  42.894  54.185  1.00  0.00     0.150 C 
HETATM    9  C   UNL     1      28.169  43.652  54.528  1.00  0.00     0.255 C 
HETATM   10  N   UNL     1      29.382  42.888  53.987  1.00  0.00    -0.064 N 
HETATM   11  H   UNL     1      29.357  41.959  54.420  1.00  0.00     0.280 HD
HETATM   12  C   UNL     1      29.258  42.692  52.478  1.00  0.00     0.255 C 
HETATM   13  C   UNL     1      27.944  41.961  52.139  1.00  0.00     0.150 C 
BRANCH  10  14
HETATM   14  C   UNL     1      30.699  43.517  54.368  1.00  0.00     0.273 C 
BRANCH  14  15
HETATM   15  C   UNL     1      30.673  44.157  55.729  1.00  0.00    -0.033 A 
HETATM   16  C   UNL     1      29.966  45.352  55.948  1.00  0.00     0.009 A 
HETATM   17  C   UNL     1      29.974  45.958  57.205  1.00  0.00     0.001 A 
HETATM   18  C   UNL     1      30.679  45.376  58.256  1.00  0.00     0.000 A 
HETATM   19  C   UNL     1      31.373  44.185  58.056  1.00  0.00     0.001 A 
HETATM   20  C   UNL     1      31.371  43.577  56.799  1.00  0.00     0.009 A 
ENDBRANCH  14  15
ENDBRANCH  10  14
ENDBRANCH   4   7
BRANCH   1  21
HETATM   21  N   UNL     1      23.624  46.306  49.808  1.00  0.00    -0.325 N 
HETATM   22  C   UNL     1      22.932  46.147  48.610  1.00  0.00     0.246 C 
HETATM   23  O   UNL     1      22.924  45.130  47.924  1.00  0.00    -0.271 OA
HETATM   24  H   UNL     1      23.611  47.230  50.221  1.00  0.00     0.169 HD
BRANCH  22  25
HETATM   25  C   UNL     1      22.163  47.419  48.227  1.00  0.00     0.278 C 
BRANCH  25  26
HETATM   26  O   UNL     1      22.326  48.462  49.183  1.00  0.00    -0.342 OA
BRANCH  26  27
HETATM   27  C   UNL     1      21.317  49.380  49.070  1.00  0.00     0.075 A 
HETATM   28  C   UNL     1      21.586  50.706  48.707  1.00  0.00    -0.029 A 
HETATM   29  C   UNL     1      22.982  51.177  48.418  1.00  0.00     0.051 C 
HETATM   30  C   UNL     1      20.509  51.594  48.583  1.00  0.00     0.009 A 
HETATM   31  C   UNL     1      19.205  51.174  48.856  1.00  0.00     0.001 A 
HETATM   32  C   UNL     1      18.961  49.861  49.257  1.00  0.00     0.003 A 
HETATM   33  C   UNL     1      20.019  48.963  49.370  1.00  0.00     0.037 A 
ENDBRANCH  26  27
ENDBRANCH  25  26
ENDBRANCH  22  25
ENDBRANCH   1  21
TORSDOF 7
ENDMDL
MODEL 8
REMARK VINA RESULT:      -8.6      2.700     11.210
REMARK  7 active torsions:
REMARK  status: ('A' for Active; 'I' for Inactive)
REMARK    1  A    between atoms: C_3  and  O_4 
REMARK    2  A    between atoms: O_4  and  C_5 
REMARK    3  A    between atoms: C_5  and  C_6 
REMARK       I    between atoms: C_6  and  N_7 
REMARK    4  A    between atoms: N_7  and  C_8 
REMARK    5  A    between atoms: C_11  and  N_12 
REMARK    6  A    between atoms: N_15  and  C_17 
REMARK    7  A    between atoms: C_17  and  C_18 
ROOT
HETATM    1  C   UNL     1      22.881  45.692  48.928  1.00  0.00     0.034 A 
HETATM    2  C   UNL     1      23.145  44.423  48.421  1.00  0.00     0.032 A 
HETATM    3  C   UNL     1      24.376  43.792  48.668  1.00  0.00     0.031 A 
HETATM    4  C   UNL     1      25.389  44.412  49.409  1.00  0.00     0.030 A 
HETATM    5  C   UNL     1      25.099  45.687  49.918  1.00  0.00     0.031 A 
HETATM    6  C   UNL     1      23.870  46.318  49.687  1.00  0.00     0.032 A 
ENDROOT
BRANCH   4   7
HETATM    7  N   UNL     1      26.614  43.812  49.688  1.00  0.00    -0.378 N 
HETATM    8  C   UNL     1      26.635  42.341  49.824  1.00  0.00     0.150 C 
HETATM    9  C   UNL     1      26.615  41.929  51.313  1.00  0.00     0.255 C 
HETATM   10  N   UNL     1      27.766  42.609  52.062  1.00  0.00    -0.064 N 
HETATM   11  H   UNL     1      28.631  42.315  51.597  1.00  0.00     0.280 HD
HETATM   12  C   UNL     1      27.668  44.127  51.924  1.00  0.00     0.255 C 
HETATM   13  C   UNL     1      27.657  44.530  50.436  1.00  0.00     0.150 C 
BRANCH  10  14
HETATM   14  C   UNL     1      27.872  42.180  53.504  1.00  0.00     0.273 C 
BRANCH  14  15
HETATM   15  C   UNL     1      28.635  43.160  54.354  1.00  0.00    -0.033 A 
HETATM   16  C   UNL     1      28.028  44.347  54.801  1.00  0.00     0.009 A 
HETATM   17  C   UNL     1      28.752  45.267  55.561  1.00  0.00     0.001 A 
HETATM   18  C   UNL     1      30.081  45.011  55.889  1.00  0.00     0.000 A 
HETATM   19  C   UNL     1      30.690  43.832  55.463  1.00  0.00     0.001 A 
HETATM   20  C   UNL     1      29.972  42.910  54.699  1.00  0.00     0.009 A 
ENDBRANCH  14  15
ENDBRANCH  10  14
ENDBRANCH   4   7
BRANCH   1  21
HETATM   21  N   UNL     1      21.665  46.381  48.751  1.00  0.00    -0.325 N 
HETATM   22  C   UNL     1      21.434  47.499  47.954  1.00  0.00     0.246 C 
HETATM   23  O   UNL     1      22.289  48.104  47.316  1.00  0.00    -0.271 OA
HETATM   24  H   UNL     1      20.879  46.038  49.290  1.00  0.00     0.169 HD
BRANCH  22  25
HETATM   25  C   UNL     1      19.954  47.906  47.962  1.00  0.00     0.278 C 
BRANCH  25  26
HETATM   26  O   UNL     1      19.725  49.137  47.282  1.00  0.00    -0.342 OA
BRANCH  26  27
HETATM   27  C   UNL     1      19.116  50.039  48.113  1.00  0.00     0.075 A 
HETATM   28  C   UNL     1      19.844  51.078  48.707  1.00  0.00    -0.029 A 
HETATM   29  C   UNL     1      21.313  51.256  48.455  1.00  0.00     0.051 C 
HETATM   30  C   UNL     1      19.161  51.986  49.527  1.00  0.00     0.009 A 
HETATM   31  C   UNL     1      17.795  51.830  49.777  1.00  0.00     0.001 A 
HETATM   32  C   UNL     1      17.095  50.765  49.212  1.00  0.00     0.003 A 
HETATM   33  C   UNL     1      17.757  49.864  48.382  1.00  0.00     0.037 A 
ENDBRANCH  26  27
ENDBRANCH  25  26
ENDBRANCH  22  25
ENDBRANCH   1  21
TORSDOF 7
ENDMDL
MODEL 9
REMARK VINA RESULT:      -8.5      1.796      2.376
REMARK  7 active torsions:
REMARK  status: ('A' for Active; 'I' for Inactive)
REMARK    1  A    between atoms: C_3  and  O_4 
REMARK    2  A    between atoms: O_4  and  C_5 
REMARK    3  A    between atoms: C_5  and  C_6 
REMARK       I    between atoms: C_6  and  N_7 
REMARK    4  A    between atoms: N_7  and  C_8 
REMARK    5  A    between atoms: C_11  and  N_12 
REMARK    6  A    between atoms: N_15  and  C_17 
REMARK    7  A    between atoms: C_17  and  C_18 
ROOT
HETATM    1  C   UNL     1      24.053  45.887  49.474  1.00  0.00     0.034 A 
HETATM    2  C   UNL     1      23.897  47.270  49.506  1.00  0.00     0.032 A 
HETATM    3  C   UNL     1      22.721  47.871  49.026  1.00  0.00     0.031 A 
HETATM    4  C   UNL     1      21.674  47.117  48.483  1.00  0.00     0.030 A 
HETATM    5  C   UNL     1      21.849  45.725  48.468  1.00  0.00     0.031 A 
HETATM    6  C   UNL     1      23.012  45.117  48.956  1.00  0.00     0.032 A 
ENDROOT
BRANCH   4   7
HETATM    7  N   UNL     1      20.488  47.676  48.013  1.00  0.00    -0.378 N 
HETATM    8  C   UNL     1      20.547  49.056  47.490  1.00  0.00     0.150 C 
HETATM    9  C   UNL     1      20.064  50.066  48.554  1.00  0.00     0.255 C 
HETATM   10  N   UNL     1      18.666  49.681  49.049  1.00  0.00    -0.064 N 
HETATM   11  H   UNL     1      18.057  49.676  48.225  1.00  0.00     0.280 HD
HETATM   12  C   UNL     1      18.675  48.265  49.620  1.00  0.00     0.255 C 
HETATM   13  C   UNL     1      19.187  47.265  48.563  1.00  0.00     0.150 C 
BRANCH  10  14
HETATM   14  C   UNL     1      18.085  50.677  50.021  1.00  0.00     0.273 C 
BRANCH  14  15
HETATM   15  C   UNL     1      17.022  51.547  49.406  1.00  0.00    -0.033 A 
HETATM   16  C   UNL     1      16.543  52.682  50.082  1.00  0.00     0.009 A 
HETATM   17  C   UNL     1      15.534  53.465  49.521  1.00  0.00     0.001 A 
HETATM   18  C   UNL     1      14.998  53.130  48.279  1.00  0.00     0.000 A 
HETATM   19  C   UNL     1      15.475  52.015  47.593  1.00  0.00     0.001 A 
HETATM   20  C   UNL     1      16.481  51.225  48.152  1.00  0.00     0.009 A 
ENDBRANCH  14  15
ENDBRANCH  10  14
ENDBRANCH   4   7
BRANCH   1  21
HETATM   21  N   UNL     1      25.186  45.205  49.960  1.00  0.00    -0.325 N 
HETATM   22  C   UNL     1      25.320  44.549  51.180  1.00  0.00     0.246 C 
HETATM   23  O   UNL     1      24.472  44.517  52.066  1.00  0.00    -0.271 OA
HETATM   24  H   UNL     1      26.003  45.221  49.361  1.00  0.00     0.169 HD
BRANCH  22  25
HETATM   25  C   UNL     1      26.684  43.855  51.305  1.00  0.00     0.278 C 
BRANCH  25  26
HETATM   26  O   UNL     1      26.742  42.968  52.418  1.00  0.00    -0.342 OA
BRANCH  26  27
HETATM   27  C   UNL     1      27.930  43.110  53.085  1.00  0.00     0.075 A 
HETATM   28  C   UNL     1      28.012  43.871  54.257  1.00  0.00    -0.029 A 
HETATM   29  C   UNL     1      26.809  44.554  54.840  1.00  0.00     0.051 C 
HETATM   30  C   UNL     1      29.249  43.959  54.909  1.00  0.00     0.009 A 
HETATM   31  C   UNL     1      30.380  43.334  54.376  1.00  0.00     0.001 A 
HETATM   32  C   UNL     1      30.288  42.616  53.185  1.00  0.00     0.003 A 
HETATM   33  C   UNL     1      29.062  42.507  52.534  1.00  0.00     0.037 A 
ENDBRANCH  26  27
ENDBRANCH  25  26
ENDBRANCH  22  25
ENDBRANCH   1  21
TORSDOF 7
ENDMDL
MODEL 10
REMARK VINA RESULT:      -8.2      7.262     10.683
REMARK  7 active torsions:
REMARK  status: ('A' for Active; 'I' for Inactive)
REMARK    1  A    between atoms: C_3  and  O_4 
REMARK    2  A    between atoms: O_4  and  C_5 
REMARK    3  A    between atoms: C_5  and  C_6 
REMARK       I    between atoms: C_6  and  N_7 
REMARK    4  A    between atoms: N_7  and  C_8 
REMARK    5  A    between atoms: C_11  and  N_12 
REMARK    6  A    between atoms: N_15  and  C_17 
REMARK    7  A    between atoms: C_17  and  C_18 
ROOT
HETATM    1  C   UNL     1      27.123  42.996  52.413  1.00  0.00     0.034 A 
HETATM    2  C   UNL     1      27.780  41.770  52.365  1.00  0.00     0.032 A 
HETATM    3  C   UNL     1      27.406  40.789  51.432  1.00  0.00     0.031 A 
HETATM    4  C   UNL     1      26.354  40.990  50.531  1.00  0.00     0.030 A 
HETATM    5  C   UNL     1      25.710  42.236  50.590  1.00  0.00     0.031 A 
HETATM    6  C   UNL     1      26.085  43.223  51.509  1.00  0.00     0.032 A 
ENDROOT
BRANCH   4   7
HETATM    7  N   UNL     1      25.965  40.049  49.581  1.00  0.00    -0.378 N 
HETATM    8  C   UNL     1      26.717  38.778  49.536  1.00  0.00     0.150 C 
HETATM    9  C   UNL     1      27.771  38.806  48.406  1.00  0.00     0.255 C 
HETATM   10  N   UNL     1      27.101  39.144  47.070  1.00  0.00    -0.064 N 
HETATM   11  H   UNL     1      26.390  38.424  46.910  1.00  0.00     0.280 HD
HETATM   12  C   UNL     1      26.378  40.487  47.162  1.00  0.00     0.255 C 
HETATM   13  C   UNL     1      25.350  40.463  48.310  1.00  0.00     0.150 C 
BRANCH  10  14
HETATM   14  C   UNL     1      28.051  39.094  45.900  1.00  0.00     0.273 C 
BRANCH  14  15
HETATM   15  C   UNL     1      28.182  37.717  45.308  1.00  0.00    -0.033 A 
HETATM   16  C   UNL     1      29.322  36.934  45.557  1.00  0.00     0.009 A 
HETATM   17  C   UNL     1      29.452  35.671  44.978  1.00  0.00     0.001 A 
HETATM   18  C   UNL     1      28.446  35.175  44.152  1.00  0.00     0.000 A 
HETATM   19  C   UNL     1      27.305  35.936  43.908  1.00  0.00     0.001 A 
HETATM   20  C   UNL     1      27.172  37.201  44.482  1.00  0.00     0.009 A 
ENDBRANCH  14  15
ENDBRANCH  10  14
ENDBRANCH   4   7
BRANCH   1  21
HETATM   21  N   UNL     1      27.454  44.041  53.298  1.00  0.00    -0.325 N 
HETATM   22  C   UNL     1      26.921  44.282  54.561  1.00  0.00     0.246 C 
HETATM   23  O   UNL     1      26.015  43.640  55.083  1.00  0.00    -0.271 OA
HETATM   24  H   UNL     1      28.139  44.707  52.959  1.00  0.00     0.169 HD
BRANCH  22  25
HETATM   25  C   UNL     1      27.603  45.473  55.247  1.00  0.00     0.278 C 
BRANCH  25  26
HETATM   26  O   UNL     1      28.974  45.599  54.882  1.00  0.00    -0.342 OA
BRANCH  26  27
HETATM   27  C   UNL     1      29.784  45.163  55.896  1.00  0.00     0.075 A 
HETATM   28  C   UNL     1      30.544  43.994  55.759  1.00  0.00    -0.029 A 
HETATM   29  C   UNL     1      30.514  43.177  54.500  1.00  0.00     0.051 C 
HETATM   30  C   UNL     1      31.374  43.611  56.821  1.00  0.00     0.009 A 
HETATM   31  C   UNL     1      31.408  44.357  58.002  1.00  0.00     0.001 A 
HETATM   32  C   UNL     1      30.612  45.494  58.136  1.00  0.00     0.003 A 
HETATM   33  C   UNL     1      29.794  45.896  57.084  1.00  0.00     0.037 A 
ENDBRANCH  26  27
ENDBRANCH  25  26
ENDBRANCH  22  25
ENDBRANCH   1  21
TORSDOF 7
ENDMDL
