MODEL 1
REMARK VINA RESULT:      -8.3      0.000      0.000
REMARK  6 active torsions:
REMARK  status: ('A' for Active; 'I' for Inactive)
REMARK    1  A    between atoms: C_2  and  N_3 
REMARK    2  A    between atoms: C_2  and  C_21 
REMARK    3  A    between atoms: N_3  and  C_6 
REMARK    4  A    between atoms: C_6  and  C_7 
REMARK       I    between atoms: C_7  and  N_8 
REMARK    5  A    between atoms: N_8  and  C_9 
REMARK    6  A    between atoms: C_16  and  C_17 
REMARK       I    between atoms: C_17  and  N_18 
ROOT
HETATM    1  C   UNL     1      25.977  44.970  53.511  1.00  0.00     0.248 C 
HETATM    2  N   UNL     1      27.329  45.169  53.370  1.00  0.00    -0.319 N 
HETATM    3  O   UNL     1      25.341  44.660  54.517  1.00  0.00    -0.271 OA
HETATM    4  H   UNL     1      27.701  45.547  52.496  1.00  0.00     0.169 HD
ENDROOT
BRANCH   2   5
HETATM    5  C   UNL     1      28.304  45.039  54.352  1.00  0.00     0.093 A 
HETATM    6  S   UNL     1      28.504  46.218  55.571  1.00  0.00    -0.075 SA
HETATM    7  C   UNL     1      29.736  45.331  56.258  1.00  0.00    -0.008 A 
HETATM    8  C   UNL     1      30.021  44.161  55.606  1.00  0.00    -0.026 A 
HETATM    9  C   UNL     1      30.573  45.594  57.452  1.00  0.00     0.047 C 
HETATM   10  C   UNL     1      31.131  43.448  56.295  1.00  0.00     0.041 C 
HETATM   11  C   UNL     1      29.189  43.960  54.466  1.00  0.00     0.072 A 
HETATM   12  C   UNL     1      31.239  44.203  57.655  1.00  0.00     0.010 C 
BRANCH  11  13
HETATM   13  C   UNL     1      29.171  42.865  53.495  1.00  0.00     0.252 C 
HETATM   14  N   UNL     1      30.321  42.603  52.820  1.00  0.00    -0.366 N 
HETATM   15  H   UNL     1      31.156  43.162  52.895  1.00  0.00     0.159 HD
HETATM   16  H   UNL     1      30.304  41.876  52.116  1.00  0.00     0.159 HD
HETATM   17  O   UNL     1      28.148  42.218  53.265  1.00  0.00    -0.268 OA
ENDBRANCH  11  13
ENDBRANCH   2   5
BRANCH   1  18
HETATM   18  C   UNL     1      25.179  45.263  52.241  1.00  0.00     0.335 C 
BRANCH  18  19
HETATM   19  N   UNL     1      25.698  46.525  51.619  1.00  0.00    -0.057 N 
HETATM   20  H   UNL     1      26.348  46.985  52.279  1.00  0.00     0.278 HD
HETATM   21  H   UNL     1      24.918  47.202  51.574  1.00  0.00     0.278 HD
BRANCH  19  22
HETATM   22  C   UNL     1      26.404  46.403  50.310  1.00  0.00     0.239 C 
HETATM   23  C   UNL     1      25.716  45.318  49.492  1.00  0.00     0.047 C 
BRANCH  22  24
HETATM   24  C   UNL     1      26.412  47.714  49.599  1.00  0.00     0.082 A 
HETATM   25  O   UNL     1      25.188  48.282  49.367  1.00  0.00    -0.325 OA
HETATM   26  C   UNL     1      25.411  49.462  48.734  1.00  0.00     0.142 A 
HETATM   27  C   UNL     1      26.760  49.671  48.570  1.00  0.00     0.027 A 
HETATM   28  C   UNL     1      27.410  48.544  49.131  1.00  0.00     0.037 A 
ENDBRANCH  22  24
ENDBRANCH  19  22
ENDBRANCH  18  19
ENDBRANCH   1  18
TORSDOF 6
ENDMDL
MODEL 2
REMARK VINA RESULT:      -8.1      1.852      2.753
REMARK  6 active torsions:
REMARK  status: ('A' for Active; 'I' for Inactive)
REMARK    1  A    between atoms: C_2  and  N_3 
REMARK    2  A    between atoms: C_2  and  C_21 
REMARK    3  A    between atoms: N_3  and  C_6 
REMARK    4  A    between atoms: C_6  and  C_7 
REMARK       I    between atoms: C_7  and  N_8 
REMARK    5  A    between atoms: N_8  and  C_9 
REMARK    6  A    between atoms: C_16  and  C_17 
REMARK       I    between atoms: C_17  and  N_18 
ROOT
HETATM    1  C   UNL     1      25.255  44.771  52.466  1.00  0.00     0.248 C 
HETATM    2  N   UNL     1      26.580  45.130  52.413  1.00  0.00    -0.319 N 
HETATM    3  O   UNL     1      24.653  44.161  53.348  1.00  0.00    -0.271 OA
HETATM    4  H   UNL     1      26.913  45.747  51.669  1.00  0.00     0.169 HD
ENDROOT
BRANCH   2   5
HETATM    5  C   UNL     1      27.562  44.858  53.358  1.00  0.00     0.093 A 
HETATM    6  S   UNL     1      28.525  43.450  53.264  1.00  0.00    -0.075 SA
HETATM    7  C   UNL     1      29.365  43.906  54.629  1.00  0.00    -0.008 A 
HETATM    8  C   UNL     1      28.954  45.092  55.175  1.00  0.00    -0.026 A 
HETATM    9  C   UNL     1      30.479  43.246  55.350  1.00  0.00     0.047 C 
HETATM   10  C   UNL     1      29.762  45.407  56.385  1.00  0.00     0.041 C 
HETATM   11  C   UNL     1      27.880  45.681  54.445  1.00  0.00     0.072 A 
HETATM   12  C   UNL     1      30.947  44.398  56.284  1.00  0.00     0.010 C 
BRANCH  11  13
HETATM   13  C   UNL     1      27.142  46.921  54.691  1.00  0.00     0.252 C 
HETATM   14  N   UNL     1      27.857  48.075  54.765  1.00  0.00    -0.366 N 
HETATM   15  H   UNL     1      28.864  48.115  54.736  1.00  0.00     0.159 HD
HETATM   16  H   UNL     1      27.359  48.930  54.978  1.00  0.00     0.159 HD
HETATM   17  O   UNL     1      25.922  46.929  54.857  1.00  0.00    -0.268 OA
ENDBRANCH  11  13
ENDBRANCH   2   5
BRANCH   1  18
HETATM   18  C   UNL     1      24.433  45.288  51.286  1.00  0.00     0.335 C 
BRANCH  18  19
HETATM   19  N   UNL     1      24.820  46.710  51.009  1.00  0.00    -0.057 N 
HETATM   20  H   UNL     1      25.809  46.850  51.274  1.00  0.00     0.278 HD
HETATM   21  H   UNL     1      24.325  47.312  51.690  1.00  0.00     0.278 HD
BRANCH  19  22
HETATM   22  C   UNL     1      24.657  47.204  49.611  1.00  0.00     0.239 C 
HETATM   23  C   UNL     1      23.254  47.780  49.463  1.00  0.00     0.047 C 
BRANCH  22  24
HETATM   24  C   UNL     1      25.708  48.212  49.289  1.00  0.00     0.082 A 
HETATM   25  O   UNL     1      27.004  47.817  49.490  1.00  0.00    -0.325 OA
HETATM   26  C   UNL     1      27.797  48.857  49.126  1.00  0.00     0.142 A 
HETATM   27  C   UNL     1      27.034  49.909  48.678  1.00  0.00     0.027 A 
HETATM   28  C   UNL     1      25.683  49.493  48.779  1.00  0.00     0.037 A 
ENDBRANCH  22  24
ENDBRANCH  19  22
ENDBRANCH  18  19
ENDBRANCH   1  18
TORSDOF 6
ENDMDL
MODEL 3
REMARK VINA RESULT:      -7.9      2.714      4.041
REMARK  6 active torsions:
REMARK  status: ('A' for Active; 'I' for Inactive)
REMARK    1  A    between atoms: C_2  and  N_3 
REMARK    2  A    between atoms: C_2  and  C_21 
REMARK    3  A    between atoms: N_3  and  C_6 
REMARK    4  A    between atoms: C_6  and  C_7 
REMARK       I    between atoms: C_7  and  N_8 
REMARK    5  A    between atoms: N_8  and  C_9 
REMARK    6  A    between atoms: C_16  and  C_17 
REMARK       I    between atoms: C_17  and  N_18 
ROOT
HETATM    1  C   UNL     1      25.645  44.263  53.216  1.00  0.00     0.248 C 
HETATM    2  N   UNL     1      26.982  44.463  52.979  1.00  0.00    -0.319 N 
HETATM    3  O   UNL     1      25.064  44.100  54.288  1.00  0.00    -0.271 OA
HETATM    4  H   UNL     1      27.304  44.709  52.040  1.00  0.00     0.169 HD
ENDROOT
BRANCH   2   5
HETATM    5  C   UNL     1      28.005  44.506  53.919  1.00  0.00     0.093 A 
HETATM    6  S   UNL     1      28.243  45.872  54.918  1.00  0.00    -0.075 SA
HETATM    7  C   UNL     1      29.521  45.121  55.679  1.00  0.00    -0.008 A 
HETATM    8  C   UNL     1      29.795  43.863  55.214  1.00  0.00    -0.026 A 
HETATM    9  C   UNL     1      30.409  45.585  56.770  1.00  0.00     0.047 C 
HETATM   10  C   UNL     1      30.949  43.283  55.954  1.00  0.00     0.041 C 
HETATM   11  C   UNL     1      28.913  43.469  54.165  1.00  0.00     0.072 A 
HETATM   12  C   UNL     1      31.108  44.252  57.165  1.00  0.00     0.010 C 
BRANCH  11  13
HETATM   13  C   UNL     1      28.868  42.229  53.388  1.00  0.00     0.252 C 
HETATM   14  N   UNL     1      29.966  41.904  52.655  1.00  0.00    -0.366 N 
HETATM   15  H   UNL     1      30.772  42.501  52.558  1.00  0.00     0.159 HD
HETATM   16  H   UNL     1      29.926  41.071  52.082  1.00  0.00     0.159 HD
HETATM   17  O   UNL     1      27.866  41.512  53.366  1.00  0.00    -0.268 OA
ENDBRANCH  11  13
ENDBRANCH   2   5
BRANCH   1  18
HETATM   18  C   UNL     1      24.781  44.340  51.958  1.00  0.00     0.335 C 
BRANCH  18  19
HETATM   19  N   UNL     1      24.591  42.956  51.412  1.00  0.00    -0.057 N 
HETATM   20  H   UNL     1      23.586  42.715  51.441  1.00  0.00     0.278 HD
HETATM   21  H   UNL     1      24.995  42.288  52.090  1.00  0.00     0.278 HD
BRANCH  19  22
HETATM   22  C   UNL     1      25.073  42.695  50.024  1.00  0.00     0.239 C 
HETATM   23  C   UNL     1      25.620  43.997  49.452  1.00  0.00     0.047 C 
BRANCH  22  24
HETATM   24  C   UNL     1      26.101  41.614  50.023  1.00  0.00     0.082 A 
HETATM   25  O   UNL     1      27.374  41.992  49.689  1.00  0.00    -0.325 OA
HETATM   26  C   UNL     1      28.150  40.881  49.764  1.00  0.00     0.142 A 
HETATM   27  C   UNL     1      27.401  39.797  50.157  1.00  0.00     0.027 A 
HETATM   28  C   UNL     1      26.076  40.269  50.329  1.00  0.00     0.037 A 
ENDBRANCH  22  24
ENDBRANCH  19  22
ENDBRANCH  18  19
ENDBRANCH   1  18
TORSDOF 6
ENDMDL
MODEL 4
REMARK VINA RESULT:      -7.8      5.261      8.446
REMARK  6 active torsions:
REMARK  status: ('A' for Active; 'I' for Inactive)
REMARK    1  A    between atoms: C_2  and  N_3 
REMARK    2  A    between atoms: C_2  and  C_21 
REMARK    3  A    between atoms: N_3  and  C_6 
REMARK    4  A    between atoms: C_6  and  C_7 
REMARK       I    between atoms: C_7  and  N_8 
REMARK    5  A    between atoms: N_8  and  C_9 
REMARK    6  A    between atoms: C_16  and  C_17 
REMARK       I    between atoms: C_17  and  N_18 
ROOT
HETATM    1  C   UNL     1      27.886  41.003  51.533  1.00  0.00     0.248 C 
HETATM    2  N   UNL     1      28.816  40.366  50.748  1.00  0.00    -0.319 N 
HETATM    3  O   UNL     1      26.687  41.180  51.325  1.00  0.00    -0.271 OA
HETATM    4  H   UNL     1      29.755  40.187  51.111  1.00  0.00     0.169 HD
ENDROOT
BRANCH   2   5
HETATM    5  C   UNL     1      28.607  39.786  49.503  1.00  0.00     0.093 A 
HETATM    6  S   UNL     1      28.037  40.700  48.177  1.00  0.00    -0.075 SA
HETATM    7  C   UNL     1      28.107  39.357  47.192  1.00  0.00    -0.008 A 
HETATM    8  C   UNL     1      28.546  38.221  47.817  1.00  0.00    -0.026 A 
HETATM    9  C   UNL     1      27.775  39.186  45.758  1.00  0.00     0.047 C 
HETATM   10  C   UNL     1      28.570  37.084  46.856  1.00  0.00     0.041 C 
HETATM   11  C   UNL     1      28.848  38.442  49.193  1.00  0.00     0.072 A 
HETATM   12  C   UNL     1      28.404  37.792  45.476  1.00  0.00     0.010 C 
BRANCH  11  13
HETATM   13  C   UNL     1      29.322  37.507  50.215  1.00  0.00     0.252 C 
HETATM   14  N   UNL     1      28.451  36.562  50.657  1.00  0.00    -0.366 N 
HETATM   15  H   UNL     1      27.483  36.516  50.380  1.00  0.00     0.159 HD
HETATM   16  H   UNL     1      28.758  35.940  51.395  1.00  0.00     0.159 HD
HETATM   17  O   UNL     1      30.457  37.583  50.688  1.00  0.00    -0.268 OA
ENDBRANCH  11  13
ENDBRANCH   2   5
BRANCH   1  18
HETATM   18  C   UNL     1      28.438  41.471  52.879  1.00  0.00     0.335 C 
BRANCH  18  19
HETATM   19  N   UNL     1      28.940  42.877  52.737  1.00  0.00    -0.057 N 
HETATM   20  H   UNL     1      28.670  43.242  51.808  1.00  0.00     0.278 HD
HETATM   21  H   UNL     1      29.971  42.841  52.665  1.00  0.00     0.278 HD
BRANCH  19  22
HETATM   22  C   UNL     1      28.490  43.871  53.755  1.00  0.00     0.239 C 
HETATM   23  C   UNL     1      27.159  43.403  54.330  1.00  0.00     0.047 C 
BRANCH  22  24
HETATM   24  C   UNL     1      29.526  44.036  54.816  1.00  0.00     0.082 A 
HETATM   25  O   UNL     1      29.455  45.188  55.553  1.00  0.00    -0.325 OA
HETATM   26  C   UNL     1      30.460  45.138  56.464  1.00  0.00     0.142 A 
HETATM   27  C   UNL     1      31.166  43.965  56.336  1.00  0.00     0.027 A 
HETATM   28  C   UNL     1      30.562  43.249  55.274  1.00  0.00     0.037 A 
ENDBRANCH  22  24
ENDBRANCH  19  22
ENDBRANCH  18  19
ENDBRANCH   1  18
TORSDOF 6
ENDMDL
MODEL 5
REMARK VINA RESULT:      -7.8      1.534      1.917
REMARK  6 active torsions:
REMARK  status: ('A' for Active; 'I' for Inactive)
REMARK    1  A    between atoms: C_2  and  N_3 
REMARK    2  A    between atoms: C_2  and  C_21 
REMARK    3  A    between atoms: N_3  and  C_6 
REMARK    4  A    between atoms: C_6  and  C_7 
REMARK       I    between atoms: C_7  and  N_8 
REMARK    5  A    between atoms: N_8  and  C_9 
REMARK    6  A    between atoms: C_16  and  C_17 
REMARK       I    between atoms: C_17  and  N_18 
ROOT
HETATM    1  C   UNL     1      25.601  44.662  53.174  1.00  0.00     0.248 C 
HETATM    2  N   UNL     1      26.909  45.050  53.011  1.00  0.00    -0.319 N 
HETATM    3  O   UNL     1      25.067  44.128  54.144  1.00  0.00    -0.271 OA
HETATM    4  H   UNL     1      27.181  45.598  52.192  1.00  0.00     0.169 HD
ENDROOT
BRANCH   2   5
HETATM    5  C   UNL     1      27.948  44.901  53.921  1.00  0.00     0.093 A 
HETATM    6  S   UNL     1      28.294  46.103  55.085  1.00  0.00    -0.075 SA
HETATM    7  C   UNL     1      29.533  45.177  55.706  1.00  0.00    -0.008 A 
HETATM    8  C   UNL     1      29.714  43.978  55.071  1.00  0.00    -0.026 A 
HETATM    9  C   UNL     1      30.469  45.433  56.826  1.00  0.00     0.047 C 
HETATM   10  C   UNL     1      30.840  43.232  55.697  1.00  0.00     0.041 C 
HETATM   11  C   UNL     1      28.790  43.785  54.003  1.00  0.00     0.072 A 
HETATM   12  C   UNL     1      31.085  44.019  57.022  1.00  0.00     0.010 C 
BRANCH  11  13
HETATM   13  C   UNL     1      28.649  42.666  53.070  1.00  0.00     0.252 C 
HETATM   14  N   UNL     1      28.556  41.416  53.595  1.00  0.00    -0.366 N 
HETATM   15  H   UNL     1      28.653  41.211  54.577  1.00  0.00     0.159 HD
HETATM   16  H   UNL     1      28.502  40.634  52.955  1.00  0.00     0.159 HD
HETATM   17  O   UNL     1      28.644  42.835  51.849  1.00  0.00    -0.268 OA
ENDBRANCH  11  13
ENDBRANCH   2   5
BRANCH   1  18
HETATM   18  C   UNL     1      24.700  45.036  51.997  1.00  0.00     0.335 C 
BRANCH  18  19
HETATM   19  N   UNL     1      25.521  45.744  50.961  1.00  0.00    -0.057 N 
HETATM   20  H   UNL     1      25.369  45.294  50.043  1.00  0.00     0.278 HD
HETATM   21  H   UNL     1      26.517  45.534  51.145  1.00  0.00     0.278 HD
BRANCH  19  22
HETATM   22  C   UNL     1      25.287  47.207  50.785  1.00  0.00     0.239 C 
HETATM   23  C   UNL     1      26.554  47.833  50.215  1.00  0.00     0.047 C 
BRANCH  22  24
HETATM   24  C   UNL     1      24.106  47.444  49.905  1.00  0.00     0.082 A 
HETATM   25  O   UNL     1      23.638  48.730  49.857  1.00  0.00    -0.325 OA
HETATM   26  C   UNL     1      22.587  48.738  48.999  1.00  0.00     0.142 A 
HETATM   27  C   UNL     1      22.381  47.482  48.480  1.00  0.00     0.027 A 
HETATM   28  C   UNL     1      23.364  46.644  49.062  1.00  0.00     0.037 A 
ENDBRANCH  22  24
ENDBRANCH  19  22
ENDBRANCH  18  19
ENDBRANCH   1  18
TORSDOF 6
ENDMDL
MODEL 6
REMARK VINA RESULT:      -7.7      1.991      3.150
REMARK  6 active torsions:
REMARK  status: ('A' for Active; 'I' for Inactive)
REMARK    1  A    between atoms: C_2  and  N_3 
REMARK    2  A    between atoms: C_2  and  C_21 
REMARK    3  A    between atoms: N_3  and  C_6 
REMARK    4  A    between atoms: C_6  and  C_7 
REMARK       I    between atoms: C_7  and  N_8 
REMARK    5  A    between atoms: N_8  and  C_9 
REMARK    6  A    between atoms: C_16  and  C_17 
REMARK       I    between atoms: C_17  and  N_18 
ROOT
HETATM    1  C   UNL     1      26.380  45.005  51.162  1.00  0.00     0.248 C 
HETATM    2  N   UNL     1      26.329  44.976  52.534  1.00  0.00    -0.319 N 
HETATM    3  O   UNL     1      27.338  44.798  50.418  1.00  0.00    -0.271 OA
HETATM    4  H   UNL     1      25.429  45.047  53.014  1.00  0.00     0.169 HD
ENDROOT
BRANCH   2   5
HETATM    5  C   UNL     1      27.379  44.721  53.408  1.00  0.00     0.093 A 
HETATM    6  S   UNL     1      28.290  43.279  53.313  1.00  0.00    -0.075 SA
HETATM    7  C   UNL     1      29.255  43.778  54.576  1.00  0.00    -0.008 A 
HETATM    8  C   UNL     1      28.925  45.004  55.089  1.00  0.00    -0.026 A 
HETATM    9  C   UNL     1      30.406  43.120  55.238  1.00  0.00     0.047 C 
HETATM   10  C   UNL     1      29.841  45.354  56.209  1.00  0.00     0.041 C 
HETATM   11  C   UNL     1      27.811  45.589  54.419  1.00  0.00     0.072 A 
HETATM   12  C   UNL     1      30.984  44.303  56.066  1.00  0.00     0.010 C 
BRANCH  11  13
HETATM   13  C   UNL     1      27.133  46.865  54.656  1.00  0.00     0.252 C 
HETATM   14  N   UNL     1      27.906  47.976  54.781  1.00  0.00    -0.366 N 
HETATM   15  H   UNL     1      28.914  47.960  54.795  1.00  0.00     0.159 HD
HETATM   16  H   UNL     1      27.447  48.854  54.988  1.00  0.00     0.159 HD
HETATM   17  O   UNL     1      25.909  46.938  54.771  1.00  0.00    -0.268 OA
ENDBRANCH  11  13
ENDBRANCH   2   5
BRANCH   1  18
HETATM   18  C   UNL     1      25.024  45.253  50.504  1.00  0.00     0.335 C 
BRANCH  18  19
HETATM   19  N   UNL     1      25.184  46.292  49.434  1.00  0.00    -0.057 N 
HETATM   20  H   UNL     1      24.389  46.227  48.776  1.00  0.00     0.278 HD
HETATM   21  H   UNL     1      25.983  46.015  48.839  1.00  0.00     0.278 HD
BRANCH  19  22
HETATM   22  C   UNL     1      25.285  47.715  49.872  1.00  0.00     0.239 C 
HETATM   23  C   UNL     1      26.735  48.160  49.731  1.00  0.00     0.047 C 
BRANCH  22  24
HETATM   24  C   UNL     1      24.360  48.572  49.075  1.00  0.00     0.082 A 
HETATM   25  O   UNL     1      23.081  48.105  48.928  1.00  0.00    -0.325 OA
HETATM   26  C   UNL     1      22.404  49.026  48.197  1.00  0.00     0.142 A 
HETATM   27  C   UNL     1      23.221  50.086  47.884  1.00  0.00     0.027 A 
HETATM   28  C   UNL     1      24.486  49.797  48.454  1.00  0.00     0.037 A 
ENDBRANCH  22  24
ENDBRANCH  19  22
ENDBRANCH  18  19
ENDBRANCH   1  18
TORSDOF 6
ENDMDL
MODEL 7
REMARK VINA RESULT:      -7.5      2.649      7.868
REMARK  6 active torsions:
REMARK  status: ('A' for Active; 'I' for Inactive)
REMARK    1  A    between atoms: C_2  and  N_3 
REMARK    2  A    between atoms: C_2  and  C_21 
REMARK    3  A    between atoms: N_3  and  C_6 
REMARK    4  A    between atoms: C_6  and  C_7 
REMARK       I    between atoms: C_7  and  N_8 
REMARK    5  A    between atoms: N_8  and  C_9 
REMARK    6  A    between atoms: C_16  and  C_17 
REMARK       I    between atoms: C_17  and  N_18 
ROOT
HETATM    1  C   UNL     1      25.833  44.226  53.932  1.00  0.00     0.248 C 
HETATM    2  N   UNL     1      26.135  44.316  52.596  1.00  0.00    -0.319 N 
HETATM    3  O   UNL     1      24.730  44.223  54.479  1.00  0.00    -0.271 OA
HETATM    4  H   UNL     1      27.098  44.179  52.279  1.00  0.00     0.169 HD
ENDROOT
BRANCH   2   5
HETATM    5  C   UNL     1      25.241  44.450  51.540  1.00  0.00     0.093 A 
HETATM    6  S   UNL     1      24.457  43.094  50.857  1.00  0.00    -0.075 SA
HETATM    7  C   UNL     1      23.635  44.078  49.793  1.00  0.00    -0.008 A 
HETATM    8  C   UNL     1      23.921  45.411  49.918  1.00  0.00    -0.026 A 
HETATM    9  C   UNL     1      22.648  43.754  48.736  1.00  0.00     0.047 C 
HETATM   10  C   UNL     1      23.140  46.199  48.926  1.00  0.00     0.041 C 
HETATM   11  C   UNL     1      24.876  45.665  50.946  1.00  0.00     0.072 A 
HETATM   12  C   UNL     1      22.086  45.169  48.416  1.00  0.00     0.010 C 
BRANCH  11  13
HETATM   13  C   UNL     1      25.465  46.928  51.394  1.00  0.00     0.252 C 
HETATM   14  N   UNL     1      26.232  47.615  50.506  1.00  0.00    -0.366 N 
HETATM   15  H   UNL     1      26.478  47.270  49.592  1.00  0.00     0.159 HD
HETATM   16  H   UNL     1      26.678  48.467  50.823  1.00  0.00     0.159 HD
HETATM   17  O   UNL     1      25.304  47.349  52.540  1.00  0.00    -0.268 OA
ENDBRANCH  11  13
ENDBRANCH   2   5
BRANCH   1  18
HETATM   18  C   UNL     1      27.056  44.020  54.825  1.00  0.00     0.335 C 
BRANCH  18  19
HETATM   19  N   UNL     1      28.236  44.702  54.199  1.00  0.00    -0.057 N 
HETATM   20  H   UNL     1      27.910  45.287  53.410  1.00  0.00     0.278 HD
HETATM   21  H   UNL     1      28.801  43.982  53.717  1.00  0.00     0.278 HD
BRANCH  19  22
HETATM   22  C   UNL     1      29.073  45.567  55.080  1.00  0.00     0.239 C 
HETATM   23  C   UNL     1      28.149  46.369  55.988  1.00  0.00     0.047 C 
BRANCH  22  24
HETATM   24  C   UNL     1      30.036  44.738  55.861  1.00  0.00     0.082 A 
HETATM   25  O   UNL     1      30.337  45.187  57.119  1.00  0.00    -0.325 OA
HETATM   26  C   UNL     1      31.204  44.296  57.662  1.00  0.00     0.142 A 
HETATM   27  C   UNL     1      31.454  43.271  56.781  1.00  0.00     0.027 A 
HETATM   28  C   UNL     1      30.698  43.552  55.616  1.00  0.00     0.037 A 
ENDBRANCH  22  24
ENDBRANCH  19  22
ENDBRANCH  18  19
ENDBRANCH   1  18
TORSDOF 6
ENDMDL
MODEL 8
REMARK VINA RESULT:      -7.4      3.672      5.622
REMARK  6 active torsions:
REMARK  status: ('A' for Active; 'I' for Inactive)
REMARK    1  A    between atoms: C_2  and  N_3 
REMARK    2  A    between atoms: C_2  and  C_21 
REMARK    3  A    between atoms: N_3  and  C_6 
REMARK    4  A    between atoms: C_6  and  C_7 
REMARK       I    between atoms: C_7  and  N_8 
REMARK    5  A    between atoms: N_8  and  C_9 
REMARK    6  A    between atoms: C_16  and  C_17 
REMARK       I    between atoms: C_17  and  N_18 
ROOT
HETATM    1  C   UNL     1      24.346  47.848  49.872  1.00  0.00     0.248 C 
HETATM    2  N   UNL     1      24.255  46.667  50.567  1.00  0.00    -0.319 N 
HETATM    3  O   UNL     1      25.313  48.597  49.742  1.00  0.00    -0.271 OA
HETATM    4  H   UNL     1      23.417  46.087  50.481  1.00  0.00     0.169 HD
ENDROOT
BRANCH   2   5
HETATM    5  C   UNL     1      25.253  46.052  51.313  1.00  0.00     0.093 A 
HETATM    6  S   UNL     1      25.715  46.646  52.847  1.00  0.00    -0.075 SA
HETATM    7  C   UNL     1      26.825  45.415  53.015  1.00  0.00    -0.008 A 
HETATM    8  C   UNL     1      26.878  44.553  51.952  1.00  0.00    -0.026 A 
HETATM    9  C   UNL     1      27.764  45.098  54.116  1.00  0.00     0.047 C 
HETATM   10  C   UNL     1      27.897  43.497  52.200  1.00  0.00     0.041 C 
HETATM   11  C   UNL     1      25.957  44.906  50.922  1.00  0.00     0.072 A 
HETATM   12  C   UNL     1      28.206  43.661  53.719  1.00  0.00     0.010 C 
BRANCH  11  13
HETATM   13  C   UNL     1      25.704  44.272  49.628  1.00  0.00     0.252 C 
HETATM   14  N   UNL     1      26.615  43.368  49.180  1.00  0.00    -0.366 N 
HETATM   15  H   UNL     1      27.484  43.168  49.649  1.00  0.00     0.159 HD
HETATM   16  H   UNL     1      26.469  42.958  48.266  1.00  0.00     0.159 HD
HETATM   17  O   UNL     1      24.720  44.561  48.944  1.00  0.00    -0.268 OA
ENDBRANCH  11  13
ENDBRANCH   2   5
BRANCH   1  18
HETATM   18  C   UNL     1      23.076  48.206  49.102  1.00  0.00     0.335 C 
BRANCH  18  19
HETATM   19  N   UNL     1      22.357  49.302  49.832  1.00  0.00    -0.057 N 
HETATM   20  H   UNL     1      22.835  49.481  50.731  1.00  0.00     0.278 HD
HETATM   21  H   UNL     1      21.443  48.932  50.141  1.00  0.00     0.278 HD
BRANCH  19  22
HETATM   22  C   UNL     1      22.217  50.612  49.132  1.00  0.00     0.239 C 
HETATM   23  C   UNL     1      22.716  50.451  47.702  1.00  0.00     0.047 C 
BRANCH  22  24
HETATM   24  C   UNL     1      20.801  51.078  49.177  1.00  0.00     0.082 A 
HETATM   25  O   UNL     1      20.035  50.582  50.199  1.00  0.00    -0.325 OA
HETATM   26  C   UNL     1      18.801  51.134  50.074  1.00  0.00     0.142 A 
HETATM   27  C   UNL     1      18.765  51.990  48.999  1.00  0.00     0.027 A 
HETATM   28  C   UNL     1      20.057  51.959  48.419  1.00  0.00     0.037 A 
ENDBRANCH  22  24
ENDBRANCH  19  22
ENDBRANCH  18  19
ENDBRANCH   1  18
TORSDOF 6
ENDMDL
MODEL 9
REMARK VINA RESULT:      -7.3      2.353      3.699
REMARK  6 active torsions:
REMARK  status: ('A' for Active; 'I' for Inactive)
REMARK    1  A    between atoms: C_2  and  N_3 
REMARK    2  A    between atoms: C_2  and  C_21 
REMARK    3  A    between atoms: N_3  and  C_6 
REMARK    4  A    between atoms: C_6  and  C_7 
REMARK       I    between atoms: C_7  and  N_8 
REMARK    5  A    between atoms: N_8  and  C_9 
REMARK    6  A    between atoms: C_16  and  C_17 
REMARK       I    between atoms: C_17  and  N_18 
ROOT
HETATM    1  C   UNL     1      27.190  41.900  51.529  1.00  0.00     0.248 C 
HETATM    2  N   UNL     1      26.808  42.639  52.622  1.00  0.00    -0.319 N 
HETATM    3  O   UNL     1      28.324  41.617  51.143  1.00  0.00    -0.271 OA
HETATM    4  H   UNL     1      25.822  42.685  52.888  1.00  0.00     0.169 HD
ENDROOT
BRANCH   2   5
HETATM    5  C   UNL     1      27.638  43.265  53.544  1.00  0.00     0.093 A 
HETATM    6  S   UNL     1      29.221  42.698  53.849  1.00  0.00    -0.075 SA
HETATM    7  C   UNL     1      29.475  43.930  54.943  1.00  0.00    -0.008 A 
HETATM    8  C   UNL     1      28.408  44.772  55.103  1.00  0.00    -0.026 A 
HETATM    9  C   UNL     1      30.658  44.265  55.769  1.00  0.00     0.047 C 
HETATM   10  C   UNL     1      28.735  45.830  56.098  1.00  0.00     0.041 C 
HETATM   11  C   UNL     1      27.298  44.401  54.288  1.00  0.00     0.072 A 
HETATM   12  C   UNL     1      30.280  45.694  56.255  1.00  0.00     0.010 C 
BRANCH  11  13
HETATM   13  C   UNL     1      25.973  45.012  54.166  1.00  0.00     0.252 C 
HETATM   14  N   UNL     1      25.908  46.368  54.099  1.00  0.00    -0.366 N 
HETATM   15  H   UNL     1      26.707  46.974  54.204  1.00  0.00     0.159 HD
HETATM   16  H   UNL     1      24.993  46.798  54.059  1.00  0.00     0.159 HD
HETATM   17  O   UNL     1      24.945  44.334  54.155  1.00  0.00    -0.268 OA
ENDBRANCH  11  13
ENDBRANCH   2   5
BRANCH   1  18
HETATM   18  C   UNL     1      26.018  41.295  50.758  1.00  0.00     0.335 C 
BRANCH  18  19
HETATM   19  N   UNL     1      24.798  42.137  50.986  1.00  0.00    -0.057 N 
HETATM   20  H   UNL     1      24.937  42.712  51.835  1.00  0.00     0.278 HD
HETATM   21  H   UNL     1      24.027  41.510  51.272  1.00  0.00     0.278 HD
BRANCH  19  22
HETATM   22  C   UNL     1      24.387  43.058  49.886  1.00  0.00     0.239 C 
HETATM   23  C   UNL     1      22.866  43.140  49.870  1.00  0.00     0.047 C 
BRANCH  22  24
HETATM   24  C   UNL     1      25.013  44.399  50.068  1.00  0.00     0.082 A 
HETATM   25  O   UNL     1      26.218  44.591  49.447  1.00  0.00    -0.325 OA
HETATM   26  C   UNL     1      26.606  45.864  49.717  1.00  0.00     0.142 A 
HETATM   27  C   UNL     1      25.662  46.500  50.488  1.00  0.00     0.027 A 
HETATM   28  C   UNL     1      24.629  45.556  50.714  1.00  0.00     0.037 A 
ENDBRANCH  22  24
ENDBRANCH  19  22
ENDBRANCH  18  19
ENDBRANCH   1  18
TORSDOF 6
ENDMDL
MODEL 10
REMARK VINA RESULT:      -7.3      3.078      4.250
REMARK  6 active torsions:
REMARK  status: ('A' for Active; 'I' for Inactive)
REMARK    1  A    between atoms: C_2  and  N_3 
REMARK    2  A    between atoms: C_2  and  C_21 
REMARK    3  A    between atoms: N_3  and  C_6 
REMARK    4  A    between atoms: C_6  and  C_7 
REMARK       I    between atoms: C_7  and  N_8 
REMARK    5  A    between atoms: N_8  and  C_9 
REMARK    6  A    between atoms: C_16  and  C_17 
REMARK       I    between atoms: C_17  and  N_18 
ROOT
HETATM    1  C   UNL     1      24.003  44.521  50.490  1.00  0.00     0.248 C 
HETATM    2  N   UNL     1      25.252  45.062  50.672  1.00  0.00    -0.319 N 
HETATM    3  O   UNL     1      23.406  43.701  51.186  1.00  0.00    -0.271 OA
HETATM    4  H   UNL     1      25.568  45.831  50.075  1.00  0.00     0.169 HD
ENDROOT
BRANCH   2   5
HETATM    5  C   UNL     1      26.150  44.779  51.694  1.00  0.00     0.093 A 
HETATM    6  S   UNL     1      26.977  43.286  51.767  1.00  0.00    -0.075 SA
HETATM    7  C   UNL     1      27.780  43.773  53.144  1.00  0.00    -0.008 A 
HETATM    8  C   UNL     1      27.455  45.032  53.572  1.00  0.00    -0.026 A 
HETATM    9  C   UNL     1      28.784  43.074  53.981  1.00  0.00     0.047 C 
HETATM   10  C   UNL     1      28.221  45.368  54.803  1.00  0.00     0.041 C 
HETATM   11  C   UNL     1      26.485  45.655  52.734  1.00  0.00     0.072 A 
HETATM   12  C   UNL     1      29.308  44.250  54.853  1.00  0.00     0.010 C 
BRANCH  11  13
HETATM   13  C   UNL     1      25.858  46.974  52.838  1.00  0.00     0.252 C 
HETATM   14  N   UNL     1      25.767  47.532  54.075  1.00  0.00    -0.366 N 
HETATM   15  H   UNL     1      26.036  47.061  54.924  1.00  0.00     0.159 HD
HETATM   16  H   UNL     1      25.296  48.423  54.160  1.00  0.00     0.159 HD
HETATM   17  O   UNL     1      25.397  47.554  51.854  1.00  0.00    -0.268 OA
ENDBRANCH  11  13
ENDBRANCH   2   5
BRANCH   1  18
HETATM   18  C   UNL     1      23.251  45.104  49.295  1.00  0.00     0.335 C 
BRANCH  18  19
HETATM   19  N   UNL     1      23.230  46.599  49.413  1.00  0.00    -0.057 N 
HETATM   20  H   UNL     1      24.190  46.937  49.594  1.00  0.00     0.278 HD
HETATM   21  H   UNL     1      22.744  46.841  50.293  1.00  0.00     0.278 HD
BRANCH  19  22
HETATM   22  C   UNL     1      22.696  47.370  48.253  1.00  0.00     0.239 C 
HETATM   23  C   UNL     1      21.220  47.034  48.089  1.00  0.00     0.047 C 
BRANCH  22  24
HETATM   24  C   UNL     1      22.914  48.832  48.455  1.00  0.00     0.082 A 
HETATM   25  O   UNL     1      23.493  49.505  47.412  1.00  0.00    -0.325 OA
HETATM   26  C   UNL     1      23.587  50.807  47.783  1.00  0.00     0.142 A 
HETATM   27  C   UNL     1      23.062  50.987  49.041  1.00  0.00     0.027 A 
HETATM   28  C   UNL     1      22.624  49.712  49.477  1.00  0.00     0.037 A 
ENDBRANCH  22  24
ENDBRANCH  19  22
ENDBRANCH  18  19
ENDBRANCH   1  18
TORSDOF 6
ENDMDL
