MODEL 1
REMARK VINA RESULT:     -10.6      0.000      0.000
REMARK  7 active torsions:
REMARK  status: ('A' for Active; 'I' for Inactive)
REMARK    1  A    between atoms: C_2  and  O_3 
REMARK    2  A    between atoms: O_3  and  C_4 
REMARK    3  A    between atoms: C_4  and  C_5 
REMARK    4  A    between atoms: C_6  and  C_7 
REMARK    5  A    between atoms: C_18  and  S_19 
REMARK    6  A    between atoms: S_19  and  C_20 
REMARK    7  A    between atoms: C_20  and  C_21 
ROOT
HETATM    1  C   UNL     1      24.632  48.899  49.044  1.00  0.00     0.070 A 
HETATM    2  C   UNL     1      23.921  47.742  49.741  1.00  0.00     0.203 A 
HETATM    3  N   UNL     1      24.880  46.764  50.272  1.00  0.00    -0.082 N 
HETATM    4  C   UNL     1      26.238  46.881  50.163  1.00  0.00     0.726 A 
HETATM    5  N   UNL     1      26.759  47.950  49.536  1.00  0.00    -0.192 N 
HETATM    6  N   UNL     1      24.539  45.674  50.984  1.00  0.00    -0.128 NA
HETATM    7  C   UNL     1      25.742  45.128  51.201  1.00  0.00     0.226 A 
HETATM    8  N   UNL     1      26.811  45.852  50.734  1.00  0.00    -0.035 NA
HETATM    9  C   UNL     1      25.987  48.962  48.974  1.00  0.00     0.037 A 
HETATM   10  C   UNL     1      26.760  50.093  48.340  1.00  0.00     0.070 C 
HETATM   11  H   UNL     1      27.769  48.027  49.454  1.00  0.00     0.184 HD
ENDROOT
BRANCH   7  12
HETATM   12  S   UNL     1      25.887  43.592  52.004  1.00  0.00    -0.083 SA
BRANCH  12  13
HETATM   13  C   UNL     1      27.617  43.193  51.637  1.00  0.00     0.121 C 
BRANCH  13  14
HETATM   14  C   UNL     1      28.508  43.423  52.836  1.00  0.00    -0.048 A 
HETATM   15  C   UNL     1      28.213  44.437  53.763  1.00  0.00     0.020 A 
HETATM   16  C   UNL     1      29.017  44.645  54.896  1.00  0.00    -0.025 A 
HETATM   17  C   UNL     1      30.151  43.828  55.100  1.00  0.00    -0.026 A 
HETATM   18  C   UNL     1      28.714  45.644  55.835  1.00  0.00     0.012 A 
HETATM   19  C   UNL     1      30.447  42.822  54.168  1.00  0.00     0.013 A 
HETATM   20  C   UNL     1      30.953  44.034  56.235  1.00  0.00     0.012 A 
HETATM   21  C   UNL     1      29.633  42.619  53.051  1.00  0.00     0.009 A 
HETATM   22  C   UNL     1      30.637  45.032  57.159  1.00  0.00     0.001 A 
HETATM   23  C   UNL     1      29.518  45.835  56.960  1.00  0.00     0.001 A 
ENDBRANCH  13  14
ENDBRANCH  12  13
ENDBRANCH   7  12
BRANCH   2  24
HETATM   24  C   UNL     1      22.891  47.029  48.866  1.00  0.00    -0.028 A 
HETATM   25  C   UNL     1      21.550  47.448  48.807  1.00  0.00     0.012 A 
HETATM   26  C   UNL     1      20.634  46.770  47.999  1.00  0.00     0.043 A 
HETATM   27  C   UNL     1      21.053  45.684  47.242  1.00  0.00     0.116 A 
HETATM   28  F   UNL     1      20.172  45.036  46.469  1.00  0.00    -0.206 F 
HETATM   29  C   UNL     1      22.375  45.260  47.273  1.00  0.00     0.043 A 
HETATM   30  C   UNL     1      23.294  45.931  48.080  1.00  0.00     0.012 A 
ENDBRANCH   2  24
BRANCH   1  31
HETATM   31  C   UNL     1      23.777  49.917  48.393  1.00  0.00     0.293 C 
HETATM   32  O   UNL     1      23.467  49.898  47.213  1.00  0.00    -0.259 OA
BRANCH  31  33
HETATM   33  O   UNL     1      23.377  50.834  49.307  1.00  0.00    -0.318 OA
BRANCH  33  34
HETATM   34  C   UNL     1      22.003  50.735  49.719  1.00  0.00     0.174 C 
HETATM   35  C   UNL     1      21.087  51.360  48.681  1.00  0.00     0.034 C 
ENDBRANCH  33  34
ENDBRANCH  31  33
ENDBRANCH   1  31
TORSDOF 7
ENDMDL
MODEL 2
REMARK VINA RESULT:     -10.0      2.704      4.531
REMARK  7 active torsions:
REMARK  status: ('A' for Active; 'I' for Inactive)
REMARK    1  A    between atoms: C_2  and  O_3 
REMARK    2  A    between atoms: O_3  and  C_4 
REMARK    3  A    between atoms: C_4  and  C_5 
REMARK    4  A    between atoms: C_6  and  C_7 
REMARK    5  A    between atoms: C_18  and  S_19 
REMARK    6  A    between atoms: S_19  and  C_20 
REMARK    7  A    between atoms: C_20  and  C_21 
ROOT
HETATM    1  C   UNL     1      20.759  46.677  47.137  1.00  0.00     0.070 A 
HETATM    2  C   UNL     1      21.723  47.724  47.689  1.00  0.00     0.203 A 
HETATM    3  N   UNL     1      22.707  47.121  48.597  1.00  0.00    -0.082 N 
HETATM    4  C   UNL     1      22.759  45.790  48.902  1.00  0.00     0.726 A 
HETATM    5  N   UNL     1      21.864  44.952  48.348  1.00  0.00    -0.192 N 
HETATM    6  N   UNL     1      23.714  47.795  49.184  1.00  0.00    -0.128 NA
HETATM    7  C   UNL     1      24.286  46.821  49.902  1.00  0.00     0.226 A 
HETATM    8  N   UNL     1      23.744  45.570  49.736  1.00  0.00    -0.035 NA
HETATM    9  C   UNL     1      20.865  45.366  47.473  1.00  0.00     0.037 A 
HETATM   10  C   UNL     1      19.977  44.270  46.934  1.00  0.00     0.070 C 
HETATM   11  H   UNL     1      21.904  43.965  48.584  1.00  0.00     0.184 HD
ENDROOT
BRANCH   7  12
HETATM   12  S   UNL     1      25.609  47.170  50.975  1.00  0.00    -0.083 SA
BRANCH  12  13
HETATM   13  C   UNL     1      25.365  45.879  52.226  1.00  0.00     0.121 C 
BRANCH  13  14
HETATM   14  C   UNL     1      26.511  45.836  53.211  1.00  0.00    -0.048 A 
HETATM   15  C   UNL     1      27.318  44.692  53.320  1.00  0.00     0.020 A 
HETATM   16  C   UNL     1      28.402  44.647  54.212  1.00  0.00    -0.025 A 
HETATM   17  C   UNL     1      28.678  45.770  55.024  1.00  0.00    -0.026 A 
HETATM   18  C   UNL     1      29.225  43.512  54.310  1.00  0.00     0.012 A 
HETATM   19  C   UNL     1      27.865  46.908  54.918  1.00  0.00     0.013 A 
HETATM   20  C   UNL     1      29.765  45.726  55.913  1.00  0.00     0.012 A 
HETATM   21  C   UNL     1      26.796  46.943  54.018  1.00  0.00     0.009 A 
HETATM   22  C   UNL     1      30.571  44.590  55.997  1.00  0.00     0.001 A 
HETATM   23  C   UNL     1      30.303  43.485  55.196  1.00  0.00     0.001 A 
ENDBRANCH  13  14
ENDBRANCH  12  13
ENDBRANCH   7  12
BRANCH   2  24
HETATM   24  C   UNL     1      21.033  48.898  48.384  1.00  0.00    -0.028 A 
HETATM   25  C   UNL     1      20.216  48.715  49.513  1.00  0.00     0.012 A 
HETATM   26  C   UNL     1      19.597  49.810  50.121  1.00  0.00     0.043 A 
HETATM   27  C   UNL     1      19.801  51.087  49.613  1.00  0.00     0.116 A 
HETATM   28  F   UNL     1      19.206  52.135  50.198  1.00  0.00    -0.206 F 
HETATM   29  C   UNL     1      20.615  51.294  48.507  1.00  0.00     0.043 A 
HETATM   30  C   UNL     1      21.232  50.203  47.894  1.00  0.00     0.012 A 
ENDBRANCH   2  24
BRANCH   1  31
HETATM   31  C   UNL     1      19.665  47.166  46.268  1.00  0.00     0.293 C 
HETATM   32  O   UNL     1      19.766  47.326  45.063  1.00  0.00    -0.259 OA
BRANCH  31  33
HETATM   33  O   UNL     1      18.547  47.372  47.007  1.00  0.00    -0.318 OA
BRANCH  33  34
HETATM   34  C   UNL     1      17.538  48.183  46.383  1.00  0.00     0.174 C 
HETATM   35  C   UNL     1      17.655  49.627  46.839  1.00  0.00     0.034 C 
ENDBRANCH  33  34
ENDBRANCH  31  33
ENDBRANCH   1  31
TORSDOF 7
ENDMDL
MODEL 3
REMARK VINA RESULT:      -9.8      1.699      2.308
REMARK  7 active torsions:
REMARK  status: ('A' for Active; 'I' for Inactive)
REMARK    1  A    between atoms: C_2  and  O_3 
REMARK    2  A    between atoms: O_3  and  C_4 
REMARK    3  A    between atoms: C_4  and  C_5 
REMARK    4  A    between atoms: C_6  and  C_7 
REMARK    5  A    between atoms: C_18  and  S_19 
REMARK    6  A    between atoms: S_19  and  C_20 
REMARK    7  A    between atoms: C_20  and  C_21 
ROOT
HETATM    1  C   UNL     1      22.076  49.027  48.754  1.00  0.00     0.070 A 
HETATM    2  C   UNL     1      22.190  47.561  49.163  1.00  0.00     0.203 A 
HETATM    3  N   UNL     1      23.588  47.173  49.388  1.00  0.00    -0.082 N 
HETATM    4  C   UNL     1      24.652  48.021  49.258  1.00  0.00     0.726 A 
HETATM    5  N   UNL     1      24.435  49.300  48.903  1.00  0.00    -0.192 N 
HETATM    6  N   UNL     1      23.982  45.957  49.813  1.00  0.00    -0.128 NA
HETATM    7  C   UNL     1      25.310  46.116  49.836  1.00  0.00     0.226 A 
HETATM    8  N   UNL     1      25.759  47.376  49.525  1.00  0.00    -0.035 NA
HETATM    9  C   UNL     1      23.171  49.821  48.648  1.00  0.00     0.037 A 
HETATM   10  C   UNL     1      23.133  51.289  48.292  1.00  0.00     0.070 C 
HETATM   11  H   UNL     1      25.232  49.923  48.802  1.00  0.00     0.184 HD
ENDROOT
BRANCH   7  12
HETATM   12  S   UNL     1      26.357  44.780  50.215  1.00  0.00    -0.083 SA
BRANCH  12  13
HETATM   13  C   UNL     1      25.990  44.565  51.977  1.00  0.00     0.121 C 
BRANCH  13  14
HETATM   14  C   UNL     1      27.235  44.237  52.769  1.00  0.00    -0.048 A 
HETATM   15  C   UNL     1      27.624  45.037  53.856  1.00  0.00     0.020 A 
HETATM   16  C   UNL     1      28.763  44.729  54.618  1.00  0.00    -0.025 A 
HETATM   17  C   UNL     1      29.539  43.599  54.276  1.00  0.00    -0.026 A 
HETATM   18  C   UNL     1      29.144  45.515  55.718  1.00  0.00     0.012 A 
HETATM   19  C   UNL     1      29.152  42.807  53.185  1.00  0.00     0.013 A 
HETATM   20  C   UNL     1      30.677  43.289  55.040  1.00  0.00     0.012 A 
HETATM   21  C   UNL     1      28.010  43.119  52.443  1.00  0.00     0.009 A 
HETATM   22  C   UNL     1      31.041  44.081  56.130  1.00  0.00     0.001 A 
HETATM   23  C   UNL     1      30.275  45.192  56.470  1.00  0.00     0.001 A 
ENDBRANCH  13  14
ENDBRANCH  12  13
ENDBRANCH   7  12
BRANCH   2  24
HETATM   24  C   UNL     1      21.539  46.589  48.177  1.00  0.00    -0.028 A 
HETATM   25  C   UNL     1      22.042  46.404  46.877  1.00  0.00     0.012 A 
HETATM   26  C   UNL     1      21.421  45.511  46.001  1.00  0.00     0.043 A 
HETATM   27  C   UNL     1      20.306  44.796  46.421  1.00  0.00     0.116 A 
HETATM   28  F   UNL     1      19.713  43.941  45.578  1.00  0.00    -0.206 F 
HETATM   29  C   UNL     1      19.800  44.952  47.704  1.00  0.00     0.043 A 
HETATM   30  C   UNL     1      20.415  45.844  48.582  1.00  0.00     0.012 A 
ENDBRANCH   2  24
BRANCH   1  31
HETATM   31  C   UNL     1      20.723  49.526  48.419  1.00  0.00     0.293 C 
HETATM   32  O   UNL     1      20.297  49.639  47.281  1.00  0.00    -0.259 OA
BRANCH  31  33
HETATM   33  O   UNL     1      20.039  49.801  49.557  1.00  0.00    -0.318 OA
BRANCH  33  34
HETATM   34  C   UNL     1      18.782  49.119  49.698  1.00  0.00     0.174 C 
HETATM   35  C   UNL     1      18.609  48.605  51.116  1.00  0.00     0.034 C 
ENDBRANCH  33  34
ENDBRANCH  31  33
ENDBRANCH   1  31
TORSDOF 7
ENDMDL
MODEL 4
REMARK VINA RESULT:      -9.7      6.591      8.840
REMARK  7 active torsions:
REMARK  status: ('A' for Active; 'I' for Inactive)
REMARK    1  A    between atoms: C_2  and  O_3 
REMARK    2  A    between atoms: O_3  and  C_4 
REMARK    3  A    between atoms: C_4  and  C_5 
REMARK    4  A    between atoms: C_6  and  C_7 
REMARK    5  A    between atoms: C_18  and  S_19 
REMARK    6  A    between atoms: S_19  and  C_20 
REMARK    7  A    between atoms: C_20  and  C_21 
ROOT
HETATM    1  C   UNL     1      26.949  39.144  47.223  1.00  0.00     0.070 A 
HETATM    2  C   UNL     1      26.741  39.190  48.735  1.00  0.00     0.203 A 
HETATM    3  N   UNL     1      26.882  40.557  49.254  1.00  0.00    -0.082 N 
HETATM    4  C   UNL     1      27.155  41.650  48.480  1.00  0.00     0.726 A 
HETATM    5  N   UNL     1      27.308  41.496  47.153  1.00  0.00    -0.192 N 
HETATM    6  N   UNL     1      26.693  40.905  50.541  1.00  0.00    -0.128 NA
HETATM    7  C   UNL     1      26.954  42.216  50.489  1.00  0.00     0.226 A 
HETATM    8  N   UNL     1      27.217  42.716  49.237  1.00  0.00    -0.035 NA
HETATM    9  C   UNL     1      27.212  40.267  46.508  1.00  0.00     0.037 A 
HETATM   10  C   UNL     1      27.387  40.306  45.008  1.00  0.00     0.070 C 
HETATM   11  H   UNL     1      27.517  42.312  46.585  1.00  0.00     0.184 HD
ENDROOT
BRANCH   7  12
HETATM   12  S   UNL     1      26.970  43.176  51.940  1.00  0.00    -0.083 SA
BRANCH  12  13
HETATM   13  C   UNL     1      28.709  43.008  52.424  1.00  0.00     0.121 C 
BRANCH  13  14
HETATM   14  C   UNL     1      28.994  43.719  53.728  1.00  0.00    -0.048 A 
HETATM   15  C   UNL     1      30.016  43.270  54.580  1.00  0.00     0.020 A 
HETATM   16  C   UNL     1      30.310  43.936  55.781  1.00  0.00    -0.025 A 
HETATM   17  C   UNL     1      29.555  45.073  56.145  1.00  0.00    -0.026 A 
HETATM   18  C   UNL     1      31.345  43.501  56.626  1.00  0.00     0.012 A 
HETATM   19  C   UNL     1      28.530  45.515  55.295  1.00  0.00     0.013 A 
HETATM   20  C   UNL     1      29.852  45.741  57.344  1.00  0.00     0.012 A 
HETATM   21  C   UNL     1      28.255  44.849  54.098  1.00  0.00     0.009 A 
HETATM   22  C   UNL     1      30.883  45.296  58.172  1.00  0.00     0.001 A 
HETATM   23  C   UNL     1      31.630  44.177  57.813  1.00  0.00     0.001 A 
ENDBRANCH  13  14
ENDBRANCH  12  13
ENDBRANCH   7  12
BRANCH   2  24
HETATM   24  C   UNL     1      27.656  38.247  49.517  1.00  0.00    -0.028 A 
HETATM   25  C   UNL     1      27.254  36.946  49.868  1.00  0.00     0.012 A 
HETATM   26  C   UNL     1      28.113  36.111  50.586  1.00  0.00     0.043 A 
HETATM   27  C   UNL     1      29.376  36.567  50.945  1.00  0.00     0.116 A 
HETATM   28  F   UNL     1      30.197  35.764  51.634  1.00  0.00    -0.206 F 
HETATM   29  C   UNL     1      29.800  37.842  50.597  1.00  0.00     0.043 A 
HETATM   30  C   UNL     1      28.944  38.681  49.883  1.00  0.00     0.012 A 
ENDBRANCH   2  24
BRANCH   1  31
HETATM   31  C   UNL     1      26.914  37.810  46.583  1.00  0.00     0.293 C 
HETATM   32  O   UNL     1      27.904  37.142  46.336  1.00  0.00    -0.259 OA
BRANCH  31  33
HETATM   33  O   UNL     1      25.629  37.446  46.349  1.00  0.00    -0.318 OA
BRANCH  33  34
HETATM   34  C   UNL     1      25.390  36.029  46.303  1.00  0.00     0.174 C 
HETATM   35  C   UNL     1      24.518  35.597  47.469  1.00  0.00     0.034 C 
ENDBRANCH  33  34
ENDBRANCH  31  33
ENDBRANCH   1  31
TORSDOF 7
ENDMDL
MODEL 5
REMARK VINA RESULT:      -9.6      2.419      4.122
REMARK  7 active torsions:
REMARK  status: ('A' for Active; 'I' for Inactive)
REMARK    1  A    between atoms: C_2  and  O_3 
REMARK    2  A    between atoms: O_3  and  C_4 
REMARK    3  A    between atoms: C_4  and  C_5 
REMARK    4  A    between atoms: C_6  and  C_7 
REMARK    5  A    between atoms: C_18  and  S_19 
REMARK    6  A    between atoms: S_19  and  C_20 
REMARK    7  A    between atoms: C_20  and  C_21 
ROOT
HETATM    1  C   UNL     1      22.207  45.945  47.562  1.00  0.00     0.070 A 
HETATM    2  C   UNL     1      23.041  47.081  48.149  1.00  0.00     0.203 A 
HETATM    3  N   UNL     1      23.754  46.654  49.360  1.00  0.00    -0.082 N 
HETATM    4  C   UNL     1      23.687  45.395  49.889  1.00  0.00     0.726 A 
HETATM    5  N   UNL     1      22.928  44.466  49.281  1.00  0.00    -0.192 N 
HETATM    6  N   UNL     1      24.608  47.430  50.054  1.00  0.00    -0.128 NA
HETATM    7  C   UNL     1      24.957  46.600  51.043  1.00  0.00     0.226 A 
HETATM    8  N   UNL     1      24.432  45.333  50.963  1.00  0.00    -0.035 NA
HETATM    9  C   UNL     1      22.186  44.712  48.131  1.00  0.00     0.037 A 
HETATM   10  C   UNL     1      21.422  43.530  47.584  1.00  0.00     0.070 C 
HETATM   11  H   UNL     1      22.878  43.534  49.683  1.00  0.00     0.184 HD
ENDROOT
BRANCH   7  12
HETATM   12  S   UNL     1      25.989  47.141  52.334  1.00  0.00    -0.083 SA
BRANCH  12  13
HETATM   13  C   UNL     1      25.705  45.829  53.553  1.00  0.00     0.121 C 
BRANCH  13  14
HETATM   14  C   UNL     1      27.000  45.175  53.978  1.00  0.00    -0.048 A 
HETATM   15  C   UNL     1      27.743  45.689  55.054  1.00  0.00     0.020 A 
HETATM   16  C   UNL     1      28.933  45.075  55.476  1.00  0.00    -0.025 A 
HETATM   17  C   UNL     1      29.400  43.928  54.798  1.00  0.00    -0.026 A 
HETATM   18  C   UNL     1      29.668  45.574  56.565  1.00  0.00     0.012 A 
HETATM   19  C   UNL     1      28.660  43.422  53.718  1.00  0.00     0.013 A 
HETATM   20  C   UNL     1      30.589  43.312  55.223  1.00  0.00     0.012 A 
HETATM   21  C   UNL     1      27.471  44.036  53.315  1.00  0.00     0.009 A 
HETATM   22  C   UNL     1      31.307  43.821  56.306  1.00  0.00     0.001 A 
HETATM   23  C   UNL     1      30.847  44.950  56.977  1.00  0.00     0.001 A 
ENDBRANCH  13  14
ENDBRANCH  12  13
ENDBRANCH   7  12
BRANCH   2  24
HETATM   24  C   UNL     1      22.240  48.350  48.445  1.00  0.00    -0.028 A 
HETATM   25  C   UNL     1      21.046  48.317  49.186  1.00  0.00     0.012 A 
HETATM   26  C   UNL     1      20.337  49.495  49.435  1.00  0.00     0.043 A 
HETATM   27  C   UNL     1      20.822  50.706  48.954  1.00  0.00     0.116 A 
HETATM   28  F   UNL     1      20.139  51.833  49.194  1.00  0.00    -0.206 F 
HETATM   29  C   UNL     1      22.005  50.764  48.231  1.00  0.00     0.043 A 
HETATM   30  C   UNL     1      22.715  49.591  47.978  1.00  0.00     0.012 A 
ENDBRANCH   2  24
BRANCH   1  31
HETATM   31  C   UNL     1      21.374  46.266  46.382  1.00  0.00     0.293 C 
HETATM   32  O   UNL     1      20.217  46.650  46.444  1.00  0.00    -0.259 OA
BRANCH  31  33
HETATM   33  O   UNL     1      22.098  46.099  45.248  1.00  0.00    -0.318 OA
BRANCH  33  34
HETATM   34  C   UNL     1      21.503  45.242  44.259  1.00  0.00     0.174 C 
HETATM   35  C   UNL     1      20.860  46.063  43.156  1.00  0.00     0.034 C 
ENDBRANCH  33  34
ENDBRANCH  31  33
ENDBRANCH   1  31
TORSDOF 7
ENDMDL
MODEL 6
REMARK VINA RESULT:      -9.4      3.834      9.435
REMARK  7 active torsions:
REMARK  status: ('A' for Active; 'I' for Inactive)
REMARK    1  A    between atoms: C_2  and  O_3 
REMARK    2  A    between atoms: O_3  and  C_4 
REMARK    3  A    between atoms: C_4  and  C_5 
REMARK    4  A    between atoms: C_6  and  C_7 
REMARK    5  A    between atoms: C_18  and  S_19 
REMARK    6  A    between atoms: S_19  and  C_20 
REMARK    7  A    between atoms: C_20  and  C_21 
ROOT
HETATM    1  C   UNL     1      26.354  42.481  50.733  1.00  0.00     0.070 A 
HETATM    2  C   UNL     1      25.110  43.196  51.253  1.00  0.00     0.203 A 
HETATM    3  N   UNL     1      24.185  43.527  50.162  1.00  0.00    -0.082 N 
HETATM    4  C   UNL     1      24.407  43.224  48.847  1.00  0.00     0.726 A 
HETATM    5  N   UNL     1      25.535  42.580  48.501  1.00  0.00    -0.192 N 
HETATM    6  N   UNL     1      22.983  44.107  50.333  1.00  0.00    -0.128 NA
HETATM    7  C   UNL     1      22.566  44.204  49.065  1.00  0.00     0.226 A 
HETATM    8  N   UNL     1      23.401  43.650  48.126  1.00  0.00    -0.035 NA
HETATM    9  C   UNL     1      26.514  42.202  49.414  1.00  0.00     0.037 A 
HETATM   10  C   UNL     1      27.694  41.461  48.833  1.00  0.00     0.070 C 
HETATM   11  H   UNL     1      25.696  42.363  47.521  1.00  0.00     0.184 HD
ENDROOT
BRANCH   7  12
HETATM   12  S   UNL     1      21.071  45.006  48.681  1.00  0.00    -0.083 SA
BRANCH  12  13
HETATM   13  C   UNL     1      21.644  46.180  47.423  1.00  0.00     0.121 C 
BRANCH  13  14
HETATM   14  C   UNL     1      21.348  47.609  47.820  1.00  0.00    -0.048 A 
HETATM   15  C   UNL     1      20.257  48.296  47.261  1.00  0.00     0.020 A 
HETATM   16  C   UNL     1      19.954  49.614  47.640  1.00  0.00    -0.025 A 
HETATM   17  C   UNL     1      20.770  50.265  48.592  1.00  0.00    -0.026 A 
HETATM   18  C   UNL     1      18.853  50.297  47.099  1.00  0.00     0.012 A 
HETATM   19  C   UNL     1      21.863  49.579  49.142  1.00  0.00     0.013 A 
HETATM   20  C   UNL     1      20.465  51.582  48.974  1.00  0.00     0.012 A 
HETATM   21  C   UNL     1      22.146  48.264  48.764  1.00  0.00     0.009 A 
HETATM   22  C   UNL     1      19.366  52.246  48.426  1.00  0.00     0.001 A 
HETATM   23  C   UNL     1      18.560  51.605  47.490  1.00  0.00     0.001 A 
ENDBRANCH  13  14
ENDBRANCH  12  13
ENDBRANCH   7  12
BRANCH   2  24
HETATM   24  C   UNL     1      25.413  44.453  52.070  1.00  0.00    -0.028 A 
HETATM   25  C   UNL     1      25.310  44.469  53.472  1.00  0.00     0.012 A 
HETATM   26  C   UNL     1      25.591  45.637  54.186  1.00  0.00     0.043 A 
HETATM   27  C   UNL     1      25.983  46.783  53.507  1.00  0.00     0.116 A 
HETATM   28  F   UNL     1      26.250  47.901  54.195  1.00  0.00    -0.206 F 
HETATM   29  C   UNL     1      26.105  46.787  52.124  1.00  0.00     0.043 A 
HETATM   30  C   UNL     1      25.823  45.625  51.406  1.00  0.00     0.012 A 
ENDBRANCH   2  24
BRANCH   1  31
HETATM   31  C   UNL     1      27.407  42.161  51.723  1.00  0.00     0.293 C 
HETATM   32  O   UNL     1      27.426  41.145  52.399  1.00  0.00    -0.259 OA
BRANCH  31  33
HETATM   33  O   UNL     1      28.342  43.143  51.735  1.00  0.00    -0.318 OA
BRANCH  33  34
HETATM   34  C   UNL     1      29.337  43.032  52.766  1.00  0.00     0.174 C 
HETATM   35  C   UNL     1      28.977  43.908  53.953  1.00  0.00     0.034 C 
ENDBRANCH  33  34
ENDBRANCH  31  33
ENDBRANCH   1  31
TORSDOF 7
ENDMDL
MODEL 7
REMARK VINA RESULT:      -9.4      3.790      9.550
REMARK  7 active torsions:
REMARK  status: ('A' for Active; 'I' for Inactive)
REMARK    1  A    between atoms: C_2  and  O_3 
REMARK    2  A    between atoms: O_3  and  C_4 
REMARK    3  A    between atoms: C_4  and  C_5 
REMARK    4  A    between atoms: C_6  and  C_7 
REMARK    5  A    between atoms: C_18  and  S_19 
REMARK    6  A    between atoms: S_19  and  C_20 
REMARK    7  A    between atoms: C_20  and  C_21 
ROOT
HETATM    1  C   UNL     1      27.754  46.647  55.193  1.00  0.00     0.070 A 
HETATM    2  C   UNL     1      27.866  46.024  53.804  1.00  0.00     0.203 A 
HETATM    3  N   UNL     1      26.778  46.472  52.925  1.00  0.00    -0.082 N 
HETATM    4  C   UNL     1      25.795  47.345  53.301  1.00  0.00     0.726 A 
HETATM    5  N   UNL     1      25.800  47.843  54.550  1.00  0.00    -0.192 N 
HETATM    6  N   UNL     1      26.657  46.130  51.628  1.00  0.00    -0.128 NA
HETATM    7  C   UNL     1      25.525  46.766  51.304  1.00  0.00     0.226 A 
HETATM    8  N   UNL     1      24.979  47.542  52.296  1.00  0.00    -0.035 NA
HETATM    9  C   UNL     1      26.757  47.514  55.504  1.00  0.00     0.037 A 
HETATM   10  C   UNL     1      26.607  48.202  56.840  1.00  0.00     0.070 C 
HETATM   11  H   UNL     1      25.063  48.487  54.824  1.00  0.00     0.184 HD
ENDROOT
BRANCH   7  12
HETATM   12  S   UNL     1      24.819  46.571  49.726  1.00  0.00    -0.083 SA
BRANCH  12  13
HETATM   13  C   UNL     1      25.229  48.174  48.984  1.00  0.00     0.121 C 
BRANCH  13  14
HETATM   14  C   UNL     1      24.006  49.052  48.846  1.00  0.00    -0.048 A 
HETATM   15  C   UNL     1      22.733  48.565  49.183  1.00  0.00     0.020 A 
HETATM   16  C   UNL     1      21.592  49.378  49.086  1.00  0.00    -0.025 A 
HETATM   17  C   UNL     1      21.726  50.707  48.627  1.00  0.00    -0.026 A 
HETATM   18  C   UNL     1      20.319  48.900  49.441  1.00  0.00     0.012 A 
HETATM   19  C   UNL     1      22.998  51.188  48.283  1.00  0.00     0.013 A 
HETATM   20  C   UNL     1      20.585  51.521  48.533  1.00  0.00     0.012 A 
HETATM   21  C   UNL     1      24.126  50.372  48.396  1.00  0.00     0.009 A 
HETATM   22  C   UNL     1      19.328  51.030  48.890  1.00  0.00     0.001 A 
HETATM   23  C   UNL     1      19.195  49.722  49.345  1.00  0.00     0.001 A 
ENDBRANCH  13  14
ENDBRANCH  12  13
ENDBRANCH   7  12
BRANCH   2  24
HETATM   24  C   UNL     1      27.923  44.496  53.812  1.00  0.00    -0.028 A 
HETATM   25  C   UNL     1      26.960  43.721  54.482  1.00  0.00     0.012 A 
HETATM   26  C   UNL     1      27.045  42.327  54.472  1.00  0.00     0.043 A 
HETATM   27  C   UNL     1      28.082  41.704  53.789  1.00  0.00     0.116 A 
HETATM   28  F   UNL     1      28.161  40.367  53.782  1.00  0.00    -0.206 F 
HETATM   29  C   UNL     1      29.037  42.448  53.109  1.00  0.00     0.043 A 
HETATM   30  C   UNL     1      28.958  43.840  53.118  1.00  0.00     0.012 A 
ENDBRANCH   2  24
BRANCH   1  31
HETATM   31  C   UNL     1      28.746  46.216  56.203  1.00  0.00     0.293 C 
HETATM   32  O   UNL     1      28.489  46.035  57.382  1.00  0.00    -0.259 OA
BRANCH  31  33
HETATM   33  O   UNL     1      29.952  46.027  55.613  1.00  0.00    -0.318 OA
BRANCH  33  34
HETATM   34  C   UNL     1      30.915  45.304  56.398  1.00  0.00     0.174 C 
HETATM   35  C   UNL     1      30.938  43.839  55.999  1.00  0.00     0.034 C 
ENDBRANCH  33  34
ENDBRANCH  31  33
ENDBRANCH   1  31
TORSDOF 7
ENDMDL
MODEL 8
REMARK VINA RESULT:      -9.3      5.852      8.317
REMARK  7 active torsions:
REMARK  status: ('A' for Active; 'I' for Inactive)
REMARK    1  A    between atoms: C_2  and  O_3 
REMARK    2  A    between atoms: O_3  and  C_4 
REMARK    3  A    between atoms: C_4  and  C_5 
REMARK    4  A    between atoms: C_6  and  C_7 
REMARK    5  A    between atoms: C_18  and  S_19 
REMARK    6  A    between atoms: S_19  and  C_20 
REMARK    7  A    between atoms: C_20  and  C_21 
ROOT
HETATM    1  C   UNL     1      27.596  38.672  48.279  1.00  0.00     0.070 A 
HETATM    2  C   UNL     1      27.788  40.148  47.940  1.00  0.00     0.203 A 
HETATM    3  N   UNL     1      27.184  41.016  48.960  1.00  0.00    -0.082 N 
HETATM    4  C   UNL     1      26.539  40.559  50.075  1.00  0.00     0.726 A 
HETATM    5  N   UNL     1      26.438  39.233  50.280  1.00  0.00    -0.192 N 
HETATM    6  N   UNL     1      27.250  42.361  48.951  1.00  0.00    -0.128 NA
HETATM    7  C   UNL     1      26.547  42.655  50.051  1.00  0.00     0.226 A 
HETATM    8  N   UNL     1      26.115  41.576  50.782  1.00  0.00    -0.035 NA
HETATM    9  C   UNL     1      26.951  38.280  49.407  1.00  0.00     0.037 A 
HETATM   10  C   UNL     1      26.762  36.843  49.829  1.00  0.00     0.070 C 
HETATM   11  H   UNL     1      25.953  38.900  51.109  1.00  0.00     0.184 HD
ENDROOT
BRANCH   7  12
HETATM   12  S   UNL     1      26.209  44.309  50.472  1.00  0.00    -0.083 SA
BRANCH  12  13
HETATM   13  C   UNL     1      25.618  44.099  52.173  1.00  0.00     0.121 C 
BRANCH  13  14
HETATM   14  C   UNL     1      26.685  44.459  53.181  1.00  0.00    -0.048 A 
HETATM   15  C   UNL     1      27.724  43.561  53.476  1.00  0.00     0.020 A 
HETATM   16  C   UNL     1      28.738  43.893  54.389  1.00  0.00    -0.025 A 
HETATM   17  C   UNL     1      28.705  45.149  55.034  1.00  0.00    -0.026 A 
HETATM   18  C   UNL     1      29.790  43.005  54.671  1.00  0.00     0.012 A 
HETATM   19  C   UNL     1      27.661  46.041  54.744  1.00  0.00     0.013 A 
HETATM   20  C   UNL     1      29.721  45.482  55.946  1.00  0.00     0.012 A 
HETATM   21  C   UNL     1      26.665  45.702  53.824  1.00  0.00     0.009 A 
HETATM   22  C   UNL     1      30.758  44.588  56.214  1.00  0.00     0.001 A 
HETATM   23  C   UNL     1      30.794  43.351  55.577  1.00  0.00     0.001 A 
ENDBRANCH  13  14
ENDBRANCH  12  13
ENDBRANCH   7  12
BRANCH   2  24
HETATM   24  C   UNL     1      27.267  40.541  46.557  1.00  0.00    -0.028 A 
HETATM   25  C   UNL     1      28.136  40.911  45.515  1.00  0.00     0.012 A 
HETATM   26  C   UNL     1      27.626  41.267  44.265  1.00  0.00     0.043 A 
HETATM   27  C   UNL     1      26.253  41.246  44.048  1.00  0.00     0.116 A 
HETATM   28  F   UNL     1      25.768  41.589  42.847  1.00  0.00    -0.206 F 
HETATM   29  C   UNL     1      25.377  40.871  45.057  1.00  0.00     0.043 A 
HETATM   30  C   UNL     1      25.881  40.517  46.309  1.00  0.00     0.012 A 
ENDBRANCH   2  24
BRANCH   1  31
HETATM   31  C   UNL     1      28.090  37.689  47.289  1.00  0.00     0.293 C 
HETATM   32  O   UNL     1      29.269  37.432  47.108  1.00  0.00    -0.259 OA
BRANCH  31  33
HETATM   33  O   UNL     1      27.042  37.108  46.654  1.00  0.00    -0.318 OA
BRANCH  33  34
HETATM   34  C   UNL     1      27.365  35.948  45.870  1.00  0.00     0.174 C 
HETATM   35  C   UNL     1      26.547  34.751  46.324  1.00  0.00     0.034 C 
ENDBRANCH  33  34
ENDBRANCH  31  33
ENDBRANCH   1  31
TORSDOF 7
ENDMDL
MODEL 9
REMARK VINA RESULT:      -9.0      2.938      4.636
REMARK  7 active torsions:
REMARK  status: ('A' for Active; 'I' for Inactive)
REMARK    1  A    between atoms: C_2  and  O_3 
REMARK    2  A    between atoms: O_3  and  C_4 
REMARK    3  A    between atoms: C_4  and  C_5 
REMARK    4  A    between atoms: C_6  and  C_7 
REMARK    5  A    between atoms: C_18  and  S_19 
REMARK    6  A    between atoms: S_19  and  C_20 
REMARK    7  A    between atoms: C_20  and  C_21 
ROOT
HETATM    1  C   UNL     1      22.605  43.537  47.558  1.00  0.00     0.070 A 
HETATM    2  C   UNL     1      22.994  44.980  47.865  1.00  0.00     0.203 A 
HETATM    3  N   UNL     1      23.830  45.067  49.069  1.00  0.00    -0.082 N 
HETATM    4  C   UNL     1      24.218  43.990  49.816  1.00  0.00     0.726 A 
HETATM    5  N   UNL     1      23.826  42.757  49.447  1.00  0.00    -0.192 N 
HETATM    6  N   UNL     1      24.367  46.207  49.542  1.00  0.00    -0.128 NA
HETATM    7  C   UNL     1      25.000  45.756  50.631  1.00  0.00     0.226 A 
HETATM    8  N   UNL     1      24.953  44.396  50.820  1.00  0.00    -0.035 NA
HETATM    9  C   UNL     1      23.028  42.507  48.335  1.00  0.00     0.037 A 
HETATM   10  C   UNL     1      22.720  41.052  48.071  1.00  0.00     0.070 C 
HETATM   11  H   UNL     1      24.113  41.961  50.010  1.00  0.00     0.184 HD
ENDROOT
BRANCH   7  12
HETATM   12  S   UNL     1      25.795  46.858  51.717  1.00  0.00    -0.083 SA
BRANCH  12  13
HETATM   13  C   UNL     1      25.475  46.042  53.304  1.00  0.00     0.121 C 
BRANCH  13  14
HETATM   14  C   UNL     1      26.744  45.867  54.106  1.00  0.00    -0.048 A 
HETATM   15  C   UNL     1      27.506  44.691  53.993  1.00  0.00     0.020 A 
HETATM   16  C   UNL     1      28.701  44.526  54.711  1.00  0.00    -0.025 A 
HETATM   17  C   UNL     1      29.140  45.555  55.573  1.00  0.00    -0.026 A 
HETATM   18  C   UNL     1      29.476  43.360  54.585  1.00  0.00     0.012 A 
HETATM   19  C   UNL     1      28.373  46.724  55.689  1.00  0.00     0.013 A 
HETATM   20  C   UNL     1      30.338  45.391  56.288  1.00  0.00     0.012 A 
HETATM   21  C   UNL     1      27.191  46.881  54.961  1.00  0.00     0.009 A 
HETATM   22  C   UNL     1      31.095  44.226  56.151  1.00  0.00     0.001 A 
HETATM   23  C   UNL     1      30.666  43.212  55.300  1.00  0.00     0.001 A 
ENDBRANCH  13  14
ENDBRANCH  12  13
ENDBRANCH   7  12
BRANCH   2  24
HETATM   24  C   UNL     1      21.803  45.930  47.996  1.00  0.00    -0.028 A 
HETATM   25  C   UNL     1      20.644  45.572  48.707  1.00  0.00     0.012 A 
HETATM   26  C   UNL     1      19.572  46.463  48.804  1.00  0.00     0.043 A 
HETATM   27  C   UNL     1      19.658  47.713  48.203  1.00  0.00     0.116 A 
HETATM   28  F   UNL     1      18.628  48.564  48.298  1.00  0.00    -0.206 F 
HETATM   29  C   UNL     1      20.798  48.093  47.508  1.00  0.00     0.043 A 
HETATM   30  C   UNL     1      21.869  47.206  47.405  1.00  0.00     0.012 A 
ENDBRANCH   2  24
BRANCH   1  31
HETATM   31  C   UNL     1      21.695  43.317  46.412  1.00  0.00     0.293 C 
HETATM   32  O   UNL     1      20.523  42.992  46.520  1.00  0.00    -0.259 OA
BRANCH  31  33
HETATM   33  O   UNL     1      22.349  43.561  45.250  1.00  0.00    -0.318 OA
BRANCH  33  34
HETATM   34  C   UNL     1      21.529  44.034  44.169  1.00  0.00     0.174 C 
HETATM   35  C   UNL     1      21.361  45.541  44.246  1.00  0.00     0.034 C 
ENDBRANCH  33  34
ENDBRANCH  31  33
ENDBRANCH   1  31
TORSDOF 7
ENDMDL
MODEL 10
REMARK VINA RESULT:      -8.9      3.048      5.107
REMARK  7 active torsions:
REMARK  status: ('A' for Active; 'I' for Inactive)
REMARK    1  A    between atoms: C_2  and  O_3 
REMARK    2  A    between atoms: O_3  and  C_4 
REMARK    3  A    between atoms: C_4  and  C_5 
REMARK    4  A    between atoms: C_6  and  C_7 
REMARK    5  A    between atoms: C_18  and  S_19 
REMARK    6  A    between atoms: S_19  and  C_20 
REMARK    7  A    between atoms: C_20  and  C_21 
ROOT
HETATM    1  C   UNL     1      19.773  46.985  47.091  1.00  0.00     0.070 A 
HETATM    2  C   UNL     1      20.869  47.987  47.442  1.00  0.00     0.203 A 
HETATM    3  N   UNL     1      21.984  47.338  48.145  1.00  0.00    -0.082 N 
HETATM    4  C   UNL     1      22.037  46.004  48.438  1.00  0.00     0.726 A 
HETATM    5  N   UNL     1      21.017  45.208  48.070  1.00  0.00    -0.192 N 
HETATM    6  N   UNL     1      23.113  47.966  48.523  1.00  0.00    -0.128 NA
HETATM    7  C   UNL     1      23.772  46.965  49.119  1.00  0.00     0.226 A 
HETATM    8  N   UNL     1      23.155  45.739  49.065  1.00  0.00    -0.035 NA
HETATM    9  C   UNL     1      19.886  45.669  47.404  1.00  0.00     0.037 A 
HETATM   10  C   UNL     1      18.865  44.614  47.051  1.00  0.00     0.070 C 
HETATM   11  H   UNL     1      21.060  44.218  48.296  1.00  0.00     0.184 HD
ENDROOT
BRANCH   7  12
HETATM   12  S   UNL     1      25.292  47.251  49.915  1.00  0.00    -0.083 SA
BRANCH  12  13
HETATM   13  C   UNL     1      24.823  46.941  51.638  1.00  0.00     0.121 C 
BRANCH  13  14
HETATM   14  C   UNL     1      25.945  46.287  52.411  1.00  0.00    -0.048 A 
HETATM   15  C   UNL     1      26.461  46.888  53.571  1.00  0.00     0.020 A 
HETATM   16  C   UNL     1      27.485  46.279  54.314  1.00  0.00    -0.025 A 
HETATM   17  C   UNL     1      28.016  45.044  53.879  1.00  0.00    -0.026 A 
HETATM   18  C   UNL     1      27.990  46.867  55.486  1.00  0.00     0.012 A 
HETATM   19  C   UNL     1      27.504  44.451  52.716  1.00  0.00     0.013 A 
HETATM   20  C   UNL     1      29.038  44.434  54.625  1.00  0.00     0.012 A 
HETATM   21  C   UNL     1      26.477  45.062  51.992  1.00  0.00     0.009 A 
HETATM   22  C   UNL     1      29.528  45.032  55.787  1.00  0.00     0.001 A 
HETATM   23  C   UNL     1      29.004  46.247  56.218  1.00  0.00     0.001 A 
ENDBRANCH  13  14
ENDBRANCH  12  13
ENDBRANCH   7  12
BRANCH   2  24
HETATM   24  C   UNL     1      20.378  49.185  48.255  1.00  0.00    -0.028 A 
HETATM   25  C   UNL     1      19.800  49.032  49.527  1.00  0.00     0.012 A 
HETATM   26  C   UNL     1      19.358  50.149  50.240  1.00  0.00     0.043 A 
HETATM   27  C   UNL     1      19.501  51.418  49.692  1.00  0.00     0.116 A 
HETATM   28  F   UNL     1      19.075  52.487  50.379  1.00  0.00    -0.206 F 
HETATM   29  C   UNL     1      20.080  51.595  48.443  1.00  0.00     0.043 A 
HETATM   30  C   UNL     1      20.520  50.483  47.726  1.00  0.00     0.012 A 
ENDBRANCH   2  24
BRANCH   1  31
HETATM   31  C   UNL     1      18.553  47.524  46.450  1.00  0.00     0.293 C 
HETATM   32  O   UNL     1      17.474  47.632  47.011  1.00  0.00    -0.259 OA
BRANCH  31  33
HETATM   33  O   UNL     1      18.829  47.901  45.177  1.00  0.00    -0.318 OA
BRANCH  33  34
HETATM   34  C   UNL     1      18.567  46.909  44.171  1.00  0.00     0.174 C 
HETATM   35  C   UNL     1      19.799  46.677  43.314  1.00  0.00     0.034 C 
ENDBRANCH  33  34
ENDBRANCH  31  33
ENDBRANCH   1  31
TORSDOF 7
ENDMDL
