MODEL 1
REMARK VINA RESULT:      -9.0      0.000      0.000
REMARK  2 active torsions:
REMARK  status: ('A' for Active; 'I' for Inactive)
REMARK    1  A    between atoms: C_7  and  C_8 
REMARK    2  A    between atoms: C_8  and  O_9 
ROOT
HETATM    1  C   UNL     1      26.167  43.764  52.559  1.00  0.00     0.199 A 
HETATM    2  C   UNL     1      25.343  44.531  53.646  1.00  0.00     0.266 A 
HETATM    3  O   UNL     1      24.849  44.070  54.665  1.00  0.00    -0.269 OA
HETATM    4  N   UNL     1      25.206  45.850  53.215  1.00  0.00    -0.323 N 
HETATM    5  C   UNL     1      25.825  46.041  51.987  1.00  0.00     0.045 A 
HETATM    6  C   UNL     1      26.419  44.854  51.547  1.00  0.00     0.017 A 
HETATM    7  C   UNL     1      25.860  47.209  51.253  1.00  0.00     0.030 A 
HETATM    8  C   UNL     1      26.519  47.175  50.022  1.00  0.00     0.002 A 
HETATM    9  C   UNL     1      27.117  45.990  49.560  1.00  0.00     0.001 A 
HETATM   10  C   UNL     1      27.066  44.817  50.320  1.00  0.00     0.013 A 
HETATM   11  H   UNL     1      24.683  46.543  53.726  1.00  0.00     0.169 HD
ENDROOT
BRANCH   1  12
HETATM   12  C   UNL     1      27.512  43.254  53.029  1.00  0.00     0.025 A 
HETATM   13  C   UNL     1      28.157  42.098  52.579  1.00  0.00     0.016 A 
HETATM   14  C   UNL     1      27.763  41.085  51.562  1.00  0.00     0.069 C 
HETATM   15  N   UNL     1      29.342  41.977  53.257  1.00  0.00    -0.359 N 
HETATM   16  H   UNL     1      30.008  41.227  53.133  1.00  0.00     0.166 HD
HETATM   17  C   UNL     1      29.509  43.015  54.135  1.00  0.00     0.043 A 
HETATM   18  C   UNL     1      28.390  43.842  54.017  1.00  0.00     0.003 A 
HETATM   19  C   UNL     1      30.568  43.273  55.016  1.00  0.00     0.030 A 
HETATM   20  C   UNL     1      28.349  44.996  54.832  1.00  0.00     0.014 A 
HETATM   21  C   UNL     1      29.397  45.269  55.722  1.00  0.00     0.001 A 
HETATM   22  C   UNL     1      30.490  44.416  55.812  1.00  0.00     0.002 A 
ENDBRANCH   1  12
BRANCH   1  23
HETATM   23  O   UNL     1      25.350  42.745  51.989  1.00  0.00    -0.371 OA
HETATM   24  H   UNL     1      25.968  42.009  51.829  1.00  0.00     0.212 HD
ENDBRANCH   1  23
TORSDOF 2
ENDMDL
MODEL 2
REMARK VINA RESULT:      -8.5      1.825      2.645
REMARK  2 active torsions:
REMARK  status: ('A' for Active; 'I' for Inactive)
REMARK    1  A    between atoms: C_7  and  C_8 
REMARK    2  A    between atoms: C_8  and  O_9 
ROOT
HETATM    1  C   UNL     1      26.541  44.076  53.514  1.00  0.00     0.199 A 
HETATM    2  C   UNL     1      25.043  44.347  53.874  1.00  0.00     0.266 A 
HETATM    3  O   UNL     1      24.471  44.077  54.920  1.00  0.00    -0.269 OA
HETATM    4  N   UNL     1      24.436  44.903  52.749  1.00  0.00    -0.323 N 
HETATM    5  C   UNL     1      25.339  45.023  51.701  1.00  0.00     0.045 A 
HETATM    6  C   UNL     1      26.602  44.562  52.086  1.00  0.00     0.017 A 
HETATM    7  C   UNL     1      25.075  45.501  50.434  1.00  0.00     0.030 A 
HETATM    8  C   UNL     1      26.130  45.510  49.518  1.00  0.00     0.002 A 
HETATM    9  C   UNL     1      27.404  45.046  49.885  1.00  0.00     0.001 A 
HETATM   10  C   UNL     1      27.648  44.563  51.175  1.00  0.00     0.013 A 
HETATM   11  H   UNL     1      23.457  45.138  52.713  1.00  0.00     0.169 HD
ENDROOT
BRANCH   1  12
HETATM   12  C   UNL     1      27.540  44.884  54.316  1.00  0.00     0.025 A 
HETATM   13  C   UNL     1      27.422  46.234  54.658  1.00  0.00     0.016 A 
HETATM   14  C   UNL     1      26.353  47.230  54.376  1.00  0.00     0.069 C 
HETATM   15  N   UNL     1      28.535  46.594  55.370  1.00  0.00    -0.359 N 
HETATM   16  H   UNL     1      28.716  47.517  55.740  1.00  0.00     0.166 HD
HETATM   17  C   UNL     1      29.384  45.529  55.520  1.00  0.00     0.043 A 
HETATM   18  C   UNL     1      28.794  44.436  54.882  1.00  0.00     0.003 A 
HETATM   19  C   UNL     1      30.622  45.463  56.173  1.00  0.00     0.030 A 
HETATM   20  C   UNL     1      29.496  43.209  54.916  1.00  0.00     0.014 A 
HETATM   21  C   UNL     1      30.737  43.125  55.561  1.00  0.00     0.001 A 
HETATM   22  C   UNL     1      31.292  44.238  56.179  1.00  0.00     0.002 A 
ENDBRANCH   1  12
BRANCH   1  23
HETATM   23  O   UNL     1      26.786  42.674  53.565  1.00  0.00    -0.371 OA
HETATM   24  H   UNL     1      26.949  42.427  52.637  1.00  0.00     0.212 HD
ENDBRANCH   1  23
TORSDOF 2
ENDMDL
MODEL 3
REMARK VINA RESULT:      -8.3      1.754      2.935
REMARK  2 active torsions:
REMARK  status: ('A' for Active; 'I' for Inactive)
REMARK    1  A    between atoms: C_7  and  C_8 
REMARK    2  A    between atoms: C_8  and  O_9 
ROOT
HETATM    1  C   UNL     1      26.166  44.750  51.045  1.00  0.00     0.199 A 
HETATM    2  C   UNL     1      24.682  44.277  51.189  1.00  0.00     0.266 A 
HETATM    3  O   UNL     1      24.285  43.189  51.583  1.00  0.00    -0.269 OA
HETATM    4  N   UNL     1      23.867  45.305  50.719  1.00  0.00    -0.323 N 
HETATM    5  C   UNL     1      24.624  46.382  50.280  1.00  0.00     0.045 A 
HETATM    6  C   UNL     1      25.988  46.126  50.452  1.00  0.00     0.017 A 
HETATM    7  C   UNL     1      24.150  47.554  49.726  1.00  0.00     0.030 A 
HETATM    8  C   UNL     1      25.094  48.503  49.326  1.00  0.00     0.002 A 
HETATM    9  C   UNL     1      26.469  48.261  49.484  1.00  0.00     0.001 A 
HETATM   10  C   UNL     1      26.926  47.064  50.046  1.00  0.00     0.013 A 
HETATM   11  H   UNL     1      22.863  45.232  50.673  1.00  0.00     0.169 HD
ENDROOT
BRANCH   1  12
HETATM   12  C   UNL     1      26.910  44.907  52.354  1.00  0.00     0.025 A 
HETATM   13  C   UNL     1      26.624  45.840  53.356  1.00  0.00     0.016 A 
HETATM   14  C   UNL     1      25.572  46.888  53.453  1.00  0.00     0.069 C 
HETATM   15  N   UNL     1      27.531  45.671  54.370  1.00  0.00    -0.359 N 
HETATM   16  H   UNL     1      27.561  46.216  55.220  1.00  0.00     0.166 HD
HETATM   17  C   UNL     1      28.402  44.654  54.079  1.00  0.00     0.043 A 
HETATM   18  C   UNL     1      28.042  44.143  52.831  1.00  0.00     0.003 A 
HETATM   19  C   UNL     1      29.473  44.158  54.835  1.00  0.00     0.030 A 
HETATM   20  C   UNL     1      28.807  43.067  52.326  1.00  0.00     0.014 A 
HETATM   21  C   UNL     1      29.883  42.560  53.065  1.00  0.00     0.001 A 
HETATM   22  C   UNL     1      30.212  43.101  54.302  1.00  0.00     0.002 A 
ENDBRANCH   1  12
BRANCH   1  23
HETATM   23  O   UNL     1      26.838  43.900  50.119  1.00  0.00    -0.371 OA
HETATM   24  H   UNL     1      26.753  43.011  50.509  1.00  0.00     0.212 HD
ENDBRANCH   1  23
TORSDOF 2
ENDMDL
MODEL 4
REMARK VINA RESULT:      -8.1     12.102     14.294
REMARK  2 active torsions:
REMARK  status: ('A' for Active; 'I' for Inactive)
REMARK    1  A    between atoms: C_7  and  C_8 
REMARK    2  A    between atoms: C_8  and  O_9 
ROOT
HETATM    1  C   UNL     1      31.626  49.307  42.225  1.00  0.00     0.199 A 
HETATM    2  C   UNL     1      32.508  48.662  41.105  1.00  0.00     0.266 A 
HETATM    3  O   UNL     1      32.205  47.742  40.359  1.00  0.00    -0.269 OA
HETATM    4  N   UNL     1      33.755  49.285  41.144  1.00  0.00    -0.323 N 
HETATM    5  C   UNL     1      33.804  50.244  42.146  1.00  0.00     0.045 A 
HETATM    6  C   UNL     1      32.579  50.316  42.818  1.00  0.00     0.017 A 
HETATM    7  C   UNL     1      34.887  51.027  42.487  1.00  0.00     0.030 A 
HETATM    8  C   UNL     1      34.727  51.916  43.553  1.00  0.00     0.002 A 
HETATM    9  C   UNL     1      33.506  51.998  44.244  1.00  0.00     0.001 A 
HETATM   10  C   UNL     1      32.422  51.191  43.882  1.00  0.00     0.013 A 
HETATM   11  H   UNL     1      34.518  49.023  40.540  1.00  0.00     0.169 HD
ENDROOT
BRANCH   1  12
HETATM   12  C   UNL     1      30.414  50.061  41.720  1.00  0.00     0.025 A 
HETATM   13  C   UNL     1      29.109  49.567  41.645  1.00  0.00     0.016 A 
HETATM   14  C   UNL     1      28.535  48.246  42.020  1.00  0.00     0.069 C 
HETATM   15  N   UNL     1      28.309  50.548  41.122  1.00  0.00    -0.359 N 
HETATM   16  H   UNL     1      27.317  50.461  40.952  1.00  0.00     0.166 HD
HETATM   17  C   UNL     1      29.036  51.679  40.855  1.00  0.00     0.043 A 
HETATM   18  C   UNL     1      30.357  51.419  41.224  1.00  0.00     0.003 A 
HETATM   19  C   UNL     1      28.612  52.902  40.318  1.00  0.00     0.030 A 
HETATM   20  C   UNL     1      31.297  52.460  41.044  1.00  0.00     0.014 A 
HETATM   21  C   UNL     1      30.893  53.688  40.505  1.00  0.00     0.001 A 
HETATM   22  C   UNL     1      29.568  53.904  40.146  1.00  0.00     0.002 A 
ENDBRANCH   1  12
BRANCH   1  23
HETATM   23  O   UNL     1      31.302  48.312  43.192  1.00  0.00    -0.371 OA
HETATM   24  H   UNL     1      30.501  48.656  43.627  1.00  0.00     0.212 HD
ENDBRANCH   1  23
TORSDOF 2
ENDMDL
MODEL 5
REMARK VINA RESULT:      -7.9      2.042      2.915
REMARK  2 active torsions:
REMARK  status: ('A' for Active; 'I' for Inactive)
REMARK    1  A    between atoms: C_7  and  C_8 
REMARK    2  A    between atoms: C_8  and  O_9 
ROOT
HETATM    1  C   UNL     1      26.032  44.772  50.902  1.00  0.00     0.199 A 
HETATM    2  C   UNL     1      24.550  44.311  51.103  1.00  0.00     0.266 A 
HETATM    3  O   UNL     1      24.159  43.223  51.501  1.00  0.00    -0.269 OA
HETATM    4  N   UNL     1      23.727  45.353  50.678  1.00  0.00    -0.323 N 
HETATM    5  C   UNL     1      24.476  46.428  50.220  1.00  0.00     0.045 A 
HETATM    6  C   UNL     1      25.844  46.157  50.332  1.00  0.00     0.017 A 
HETATM    7  C   UNL     1      23.991  47.610  49.699  1.00  0.00     0.030 A 
HETATM    8  C   UNL     1      24.927  48.554  49.270  1.00  0.00     0.002 A 
HETATM    9  C   UNL     1      26.305  48.297  49.368  1.00  0.00     0.001 A 
HETATM   10  C   UNL     1      26.773  47.090  49.897  1.00  0.00     0.013 A 
HETATM   11  H   UNL     1      22.721  45.290  50.674  1.00  0.00     0.169 HD
ENDROOT
BRANCH   1  12
HETATM   12  C   UNL     1      26.831  44.908  52.181  1.00  0.00     0.025 A 
HETATM   13  C   UNL     1      27.843  44.046  52.615  1.00  0.00     0.016 A 
HETATM   14  C   UNL     1      28.422  42.821  51.999  1.00  0.00     0.069 C 
HETATM   15  N   UNL     1      28.306  44.502  53.821  1.00  0.00    -0.359 N 
HETATM   16  H   UNL     1      29.037  44.066  54.366  1.00  0.00     0.166 HD
HETATM   17  C   UNL     1      27.643  45.640  54.198  1.00  0.00     0.043 A 
HETATM   18  C   UNL     1      26.717  45.933  53.195  1.00  0.00     0.003 A 
HETATM   19  C   UNL     1      27.803  46.421  55.351  1.00  0.00     0.030 A 
HETATM   20  C   UNL     1      25.916  47.085  53.368  1.00  0.00     0.014 A 
HETATM   21  C   UNL     1      26.059  47.876  54.516  1.00  0.00     0.001 A 
HETATM   22  C   UNL     1      26.989  47.546  55.494  1.00  0.00     0.002 A 
ENDBRANCH   1  12
BRANCH   1  23
HETATM   23  O   UNL     1      26.656  43.926  49.940  1.00  0.00    -0.371 OA
HETATM   24  H   UNL     1      26.006  43.870  49.216  1.00  0.00     0.212 HD
ENDBRANCH   1  23
TORSDOF 2
ENDMDL
MODEL 6
REMARK VINA RESULT:      -7.8      1.618      2.109
REMARK  2 active torsions:
REMARK  status: ('A' for Active; 'I' for Inactive)
REMARK    1  A    between atoms: C_7  and  C_8 
REMARK    2  A    between atoms: C_8  and  O_9 
ROOT
HETATM    1  C   UNL     1      25.863  43.673  50.218  1.00  0.00     0.199 A 
HETATM    2  C   UNL     1      24.487  43.623  50.961  1.00  0.00     0.266 A 
HETATM    3  O   UNL     1      23.827  42.631  51.235  1.00  0.00    -0.269 OA
HETATM    4  N   UNL     1      24.095  44.938  51.206  1.00  0.00    -0.323 N 
HETATM    5  C   UNL     1      25.031  45.838  50.714  1.00  0.00     0.045 A 
HETATM    6  C   UNL     1      26.104  45.160  50.127  1.00  0.00     0.017 A 
HETATM    7  C   UNL     1      24.952  47.215  50.753  1.00  0.00     0.030 A 
HETATM    8  C   UNL     1      25.999  47.935  50.172  1.00  0.00     0.002 A 
HETATM    9  C   UNL     1      27.082  47.271  49.572  1.00  0.00     0.001 A 
HETATM   10  C   UNL     1      27.139  45.874  49.541  1.00  0.00     0.013 A 
HETATM   11  H   UNL     1      23.221  45.178  51.645  1.00  0.00     0.169 HD
ENDROOT
BRANCH   1  12
HETATM   12  C   UNL     1      27.019  43.068  50.987  1.00  0.00     0.025 A 
HETATM   13  C   UNL     1      27.738  41.925  50.627  1.00  0.00     0.016 A 
HETATM   14  C   UNL     1      27.616  41.014  49.456  1.00  0.00     0.069 C 
HETATM   15  N   UNL     1      28.689  41.697  51.587  1.00  0.00    -0.359 N 
HETATM   16  H   UNL     1      29.349  40.932  51.582  1.00  0.00     0.166 HD
HETATM   17  C   UNL     1      28.632  42.654  52.566  1.00  0.00     0.043 A 
HETATM   18  C   UNL     1      27.605  43.536  52.224  1.00  0.00     0.003 A 
HETATM   19  C   UNL     1      29.415  42.794  53.720  1.00  0.00     0.030 A 
HETATM   20  C   UNL     1      27.366  44.622  53.097  1.00  0.00     0.014 A 
HETATM   21  C   UNL     1      28.136  44.776  54.257  1.00  0.00     0.001 A 
HETATM   22  C   UNL     1      29.146  43.872  54.563  1.00  0.00     0.002 A 
ENDBRANCH   1  12
BRANCH   1  23
HETATM   23  O   UNL     1      25.709  43.120  48.914  1.00  0.00    -0.371 OA
HETATM   24  H   UNL     1      24.744  43.070  48.791  1.00  0.00     0.212 HD
ENDBRANCH   1  23
TORSDOF 2
ENDMDL
MODEL 7
REMARK VINA RESULT:      -7.6     12.556     14.476
REMARK  2 active torsions:
REMARK  status: ('A' for Active; 'I' for Inactive)
REMARK    1  A    between atoms: C_7  and  C_8 
REMARK    2  A    between atoms: C_8  and  O_9 
ROOT
HETATM    1  C   UNL     1      32.468  50.414  41.452  1.00  0.00     0.199 A 
HETATM    2  C   UNL     1      31.585  49.380  42.227  1.00  0.00     0.266 A 
HETATM    3  O   UNL     1      31.920  48.278  42.637  1.00  0.00    -0.269 OA
HETATM    4  N   UNL     1      30.299  49.911  42.316  1.00  0.00    -0.323 N 
HETATM    5  C   UNL     1      30.226  51.151  41.695  1.00  0.00     0.045 A 
HETATM    6  C   UNL     1      31.472  51.512  41.172  1.00  0.00     0.017 A 
HETATM    7  C   UNL     1      29.105  51.945  41.565  1.00  0.00     0.030 A 
HETATM    8  C   UNL     1      29.248  53.151  40.876  1.00  0.00     0.002 A 
HETATM    9  C   UNL     1      30.490  53.528  40.337  1.00  0.00     0.001 A 
HETATM   10  C   UNL     1      31.613  52.706  40.479  1.00  0.00     0.013 A 
HETATM   11  H   UNL     1      29.531  49.419  42.742  1.00  0.00     0.169 HD
ENDROOT
BRANCH   1  12
HETATM   12  C   UNL     1      33.597  51.015  42.263  1.00  0.00     0.025 A 
HETATM   13  C   UNL     1      33.482  51.595  43.529  1.00  0.00     0.016 A 
HETATM   14  C   UNL     1      32.306  51.783  44.422  1.00  0.00     0.069 C 
HETATM   15  N   UNL     1      34.722  52.032  43.914  1.00  0.00    -0.359 N 
HETATM   16  H   UNL     1      34.930  52.497  44.787  1.00  0.00     0.166 HD
HETATM   17  C   UNL     1      35.657  51.754  42.951  1.00  0.00     0.043 A 
HETATM   18  C   UNL     1      34.995  51.110  41.905  1.00  0.00     0.003 A 
HETATM   19  C   UNL     1      37.031  52.029  42.941  1.00  0.00     0.030 A 
HETATM   20  C   UNL     1      35.772  50.716  40.791  1.00  0.00     0.014 A 
HETATM   21  C   UNL     1      37.147  50.985  40.761  1.00  0.00     0.001 A 
HETATM   22  C   UNL     1      37.766  51.634  41.822  1.00  0.00     0.002 A 
ENDBRANCH   1  12
BRANCH   1  23
HETATM   23  O   UNL     1      32.908  49.828  40.230  1.00  0.00    -0.371 OA
HETATM   24  H   UNL     1      33.558  50.464  39.882  1.00  0.00     0.212 HD
ENDBRANCH   1  23
TORSDOF 2
ENDMDL
MODEL 8
REMARK VINA RESULT:      -7.6      1.789      4.085
REMARK  2 active torsions:
REMARK  status: ('A' for Active; 'I' for Inactive)
REMARK    1  A    between atoms: C_7  and  C_8 
REMARK    2  A    between atoms: C_8  and  O_9 
ROOT
HETATM    1  C   UNL     1      26.717  44.263  53.113  1.00  0.00     0.199 A 
HETATM    2  C   UNL     1      26.778  44.837  51.658  1.00  0.00     0.266 A 
HETATM    3  O   UNL     1      26.315  45.895  51.259  1.00  0.00    -0.269 OA
HETATM    4  N   UNL     1      27.407  43.884  50.858  1.00  0.00    -0.323 N 
HETATM    5  C   UNL     1      27.756  42.762  51.597  1.00  0.00     0.045 A 
HETATM    6  C   UNL     1      27.387  42.922  52.937  1.00  0.00     0.017 A 
HETATM    7  C   UNL     1      28.363  41.617  51.124  1.00  0.00     0.030 A 
HETATM    8  C   UNL     1      28.604  40.591  52.040  1.00  0.00     0.002 A 
HETATM    9  C   UNL     1      28.234  40.731  53.389  1.00  0.00     0.001 A 
HETATM   10  C   UNL     1      27.617  41.900  53.846  1.00  0.00     0.013 A 
HETATM   11  H   UNL     1      27.538  44.001  49.866  1.00  0.00     0.169 HD
ENDROOT
BRANCH   1  12
HETATM   12  C   UNL     1      27.516  45.044  54.135  1.00  0.00     0.025 A 
HETATM   13  C   UNL     1      27.173  46.289  54.670  1.00  0.00     0.016 A 
HETATM   14  C   UNL     1      25.997  47.171  54.435  1.00  0.00     0.069 C 
HETATM   15  N   UNL     1      28.157  46.664  55.546  1.00  0.00    -0.359 N 
HETATM   16  H   UNL     1      28.169  47.526  56.074  1.00  0.00     0.166 HD
HETATM   17  C   UNL     1      29.137  45.708  55.617  1.00  0.00     0.043 A 
HETATM   18  C   UNL     1      28.769  44.673  54.755  1.00  0.00     0.003 A 
HETATM   19  C   UNL     1      30.312  45.694  56.381  1.00  0.00     0.030 A 
HETATM   20  C   UNL     1      29.637  43.561  54.671  1.00  0.00     0.014 A 
HETATM   21  C   UNL     1      30.818  43.530  55.424  1.00  0.00     0.001 A 
HETATM   22  C   UNL     1      31.150  44.584  56.266  1.00  0.00     0.002 A 
ENDBRANCH   1  12
BRANCH   1  23
HETATM   23  O   UNL     1      25.354  44.084  53.486  1.00  0.00    -0.371 OA
HETATM   24  H   UNL     1      25.216  44.735  54.198  1.00  0.00     0.212 HD
ENDBRANCH   1  23
TORSDOF 2
ENDMDL
MODEL 9
REMARK VINA RESULT:      -7.5      7.862     10.000
REMARK  2 active torsions:
REMARK  status: ('A' for Active; 'I' for Inactive)
REMARK    1  A    between atoms: C_7  and  C_8 
REMARK    2  A    between atoms: C_8  and  O_9 
ROOT
HETATM    1  C   UNL     1      18.874  48.768  49.130  1.00  0.00     0.199 A 
HETATM    2  C   UNL     1      18.602  49.580  50.439  1.00  0.00     0.266 A 
HETATM    3  O   UNL     1      18.668  49.175  51.591  1.00  0.00    -0.269 OA
HETATM    4  N   UNL     1      18.196  50.860  50.062  1.00  0.00    -0.323 N 
HETATM    5  C   UNL     1      18.160  50.985  48.680  1.00  0.00     0.045 A 
HETATM    6  C   UNL     1      18.557  49.792  48.068  1.00  0.00     0.017 A 
HETATM    7  C   UNL     1      17.775  52.098  47.961  1.00  0.00     0.030 A 
HETATM    8  C   UNL     1      17.788  52.000  46.568  1.00  0.00     0.002 A 
HETATM    9  C   UNL     1      18.178  50.808  45.935  1.00  0.00     0.001 A 
HETATM   10  C   UNL     1      18.561  49.690  46.684  1.00  0.00     0.013 A 
HETATM   11  H   UNL     1      17.927  51.568  50.725  1.00  0.00     0.169 HD
ENDROOT
BRANCH   1  12
HETATM   12  C   UNL     1      20.314  48.340  48.939  1.00  0.00     0.025 A 
HETATM   13  C   UNL     1      20.768  47.028  48.775  1.00  0.00     0.016 A 
HETATM   14  C   UNL     1      20.035  45.733  48.727  1.00  0.00     0.069 C 
HETATM   15  N   UNL     1      22.131  47.059  48.649  1.00  0.00    -0.359 N 
HETATM   16  H   UNL     1      22.722  46.249  48.523  1.00  0.00     0.166 HD
HETATM   17  C   UNL     1      22.597  48.346  48.715  1.00  0.00     0.043 A 
HETATM   18  C   UNL     1      21.491  49.180  48.888  1.00  0.00     0.003 A 
HETATM   19  C   UNL     1      23.914  48.820  48.633  1.00  0.00     0.030 A 
HETATM   20  C   UNL     1      21.733  50.570  48.974  1.00  0.00     0.014 A 
HETATM   21  C   UNL     1      23.043  51.062  48.898  1.00  0.00     0.001 A 
HETATM   22  C   UNL     1      24.117  50.197  48.731  1.00  0.00     0.002 A 
ENDBRANCH   1  12
BRANCH   1  23
HETATM   23  O   UNL     1      17.953  47.683  49.056  1.00  0.00    -0.371 OA
HETATM   24  H   UNL     1      17.714  47.511  49.984  1.00  0.00     0.212 HD
ENDBRANCH   1  23
TORSDOF 2
ENDMDL
MODEL 10
REMARK VINA RESULT:      -7.5     12.862     14.375
REMARK  2 active torsions:
REMARK  status: ('A' for Active; 'I' for Inactive)
REMARK    1  A    between atoms: C_7  and  C_8 
REMARK    2  A    between atoms: C_8  and  O_9 
ROOT
HETATM    1  C   UNL     1      29.520  51.879  41.152  1.00  0.00     0.199 A 
HETATM    2  C   UNL     1      28.848  52.682  39.989  1.00  0.00     0.266 A 
HETATM    3  O   UNL     1      29.018  53.859  39.706  1.00  0.00    -0.269 OA
HETATM    4  N   UNL     1      27.950  51.826  39.353  1.00  0.00    -0.323 N 
HETATM    5  C   UNL     1      27.943  50.574  39.954  1.00  0.00     0.045 A 
HETATM    6  C   UNL     1      28.852  50.533  41.016  1.00  0.00     0.017 A 
HETATM    7  C   UNL     1      27.156  49.496  39.605  1.00  0.00     0.030 A 
HETATM    8  C   UNL     1      27.289  48.331  40.363  1.00  0.00     0.002 A 
HETATM    9  C   UNL     1      28.193  48.272  41.438  1.00  0.00     0.001 A 
HETATM   10  C   UNL     1      28.979  49.379  41.775  1.00  0.00     0.013 A 
HETATM   11  H   UNL     1      27.364  52.116  38.588  1.00  0.00     0.169 HD
ENDROOT
BRANCH   1  12
HETATM   12  C   UNL     1      31.011  51.669  40.997  1.00  0.00     0.025 A 
HETATM   13  C   UNL     1      31.684  51.400  39.802  1.00  0.00     0.016 A 
HETATM   14  C   UNL     1      31.190  51.258  38.405  1.00  0.00     0.069 C 
HETATM   15  N   UNL     1      33.018  51.262  40.083  1.00  0.00    -0.359 N 
HETATM   16  H   UNL     1      33.738  51.058  39.403  1.00  0.00     0.166 HD
HETATM   17  C   UNL     1      33.254  51.437  41.421  1.00  0.00     0.043 A 
HETATM   18  C   UNL     1      32.026  51.703  42.028  1.00  0.00     0.003 A 
HETATM   19  C   UNL     1      34.465  51.379  42.126  1.00  0.00     0.030 A 
HETATM   20  C   UNL     1      32.027  51.930  43.423  1.00  0.00     0.014 A 
HETATM   21  C   UNL     1      33.227  51.872  44.145  1.00  0.00     0.001 A 
HETATM   22  C   UNL     1      34.428  51.599  43.503  1.00  0.00     0.002 A 
ENDBRANCH   1  12
BRANCH   1  23
HETATM   23  O   UNL     1      29.166  52.478  42.396  1.00  0.00    -0.371 OA
HETATM   24  H   UNL     1      28.569  51.829  42.810  1.00  0.00     0.212 HD
ENDBRANCH   1  23
TORSDOF 2
ENDMDL
