MODEL 1
REMARK VINA RESULT:     -12.2      0.000      0.000
REMARK  8 active torsions:
REMARK  status: ('A' for Active; 'I' for Inactive)
REMARK    1  A    between atoms: C_3  and  S_4 
REMARK    2  A    between atoms: S_4  and  N_5 
REMARK    3  A    between atoms: N_5  and  C_6 
REMARK    4  A    between atoms: C_6  and  C_7 
REMARK    5  A    between atoms: C_20  and  C_21 
REMARK    6  A    between atoms: C_25  and  N_26 
REMARK    7  A    between atoms: N_26  and  C_27 
REMARK    8  A    between atoms: C_27  and  C_28 
ROOT
HETATM    1  C   UNL     1      27.629  42.451  52.797  1.00  0.00     0.050 C 
HETATM    2  C   UNL     1      26.900  43.547  52.070  1.00  0.00    -0.039 A 
HETATM    3  C   UNL     1      26.017  44.450  52.683  1.00  0.00     0.081 A 
HETATM    4  C   UNL     1      25.339  45.417  51.912  1.00  0.00     0.039 A 
HETATM    5  C   UNL     1      25.577  45.567  50.536  1.00  0.00    -0.003 A 
HETATM    6  C   UNL     1      26.488  44.681  49.942  1.00  0.00     0.014 A 
HETATM    7  C   UNL     1      27.117  43.677  50.688  1.00  0.00     0.009 A 
ENDROOT
BRANCH   5   8
HETATM    8  C   UNL     1      24.973  46.687  49.786  1.00  0.00     0.098 C 
HETATM    9  N   UNL     1      23.653  46.515  49.571  1.00  0.00    -0.172 NA
HETATM   10  N   UNL     1      22.954  47.491  49.025  1.00  0.00    -0.266 N 
HETATM   11  H   UNL     1      21.976  47.304  48.821  1.00  0.00     0.190 HD
HETATM   12  C   UNL     1      23.451  48.705  48.730  1.00  0.00     0.108 C 
HETATM   13  C   UNL     1      24.860  48.884  48.828  1.00  0.00     0.016 A 
HETATM   14  C   UNL     1      25.647  47.844  49.367  1.00  0.00     0.009 A 
HETATM   15  C   UNL     1      25.515  50.066  48.400  1.00  0.00     0.016 A 
HETATM   16  C   UNL     1      27.054  48.018  49.440  1.00  0.00     0.015 A 
HETATM   17  C   UNL     1      27.668  49.195  49.016  1.00  0.00     0.001 A 
HETATM   18  C   UNL     1      26.898  50.222  48.498  1.00  0.00     0.001 A 
BRANCH  12  19
HETATM   19  N   UNL     1      22.629  49.732  48.249  1.00  0.00    -0.273 NA
HETATM   20  H   UNL     1      23.149  50.339  47.613  1.00  0.00     0.129 HD
BRANCH  19  21
HETATM   21  C   UNL     1      21.772  50.541  49.117  1.00  0.00     0.132 C 
BRANCH  21  22
HETATM   22  C   UNL     1      20.511  50.968  48.409  1.00  0.00    -0.045 A 
HETATM   23  C   UNL     1      20.084  50.303  47.250  1.00  0.00     0.008 A 
HETATM   24  C   UNL     1      18.911  50.694  46.603  1.00  0.00     0.001 A 
HETATM   25  C   UNL     1      18.143  51.738  47.115  1.00  0.00     0.000 A 
HETATM   26  C   UNL     1      18.542  52.390  48.279  1.00  0.00     0.001 A 
HETATM   27  C   UNL     1      19.716  52.005  48.926  1.00  0.00     0.008 A 
ENDBRANCH  21  22
ENDBRANCH  19  21
ENDBRANCH  12  19
ENDBRANCH   5   8
BRANCH   3  28
HETATM   28  S   UNL     1      25.704  44.480  54.450  1.00  0.00     0.242 S 
HETATM   29  O   UNL     1      24.288  44.256  54.645  1.00  0.00    -0.206 OA
HETATM   30  O   UNL     1      26.699  43.681  55.123  1.00  0.00    -0.206 OA
BRANCH  28  31
HETATM   31  N   UNL     1      26.038  46.106  54.815  1.00  0.00    -0.208 NA
HETATM   32  H   UNL     1      25.909  46.284  55.813  1.00  0.00     0.140 HD
BRANCH  31  33
HETATM   33  C   UNL     1      27.342  46.584  54.327  1.00  0.00     0.182 C 
BRANCH  33  34
HETATM   34  C   UNL     1      28.419  46.044  55.202  1.00  0.00     0.119 A 
HETATM   35  N   UNL     1      28.710  46.437  56.429  1.00  0.00    -0.232 NA
HETATM   36  C   UNL     1      29.724  45.604  56.846  1.00  0.00     0.085 A 
HETATM   37  C   UNL     1      30.074  44.706  55.843  1.00  0.00     0.062 A 
HETATM   38  C   UNL     1      30.396  45.549  58.076  1.00  0.00     0.034 A 
HETATM   39  N   UNL     1      29.239  45.017  54.802  1.00  0.00    -0.342 N 
HETATM   40  C   UNL     1      31.073  43.742  55.990  1.00  0.00     0.032 A 
HETATM   41  H   UNL     1      29.221  44.566  53.897  1.00  0.00     0.167 HD
HETATM   42  C   UNL     1      31.729  43.700  57.226  1.00  0.00     0.002 A 
HETATM   43  C   UNL     1      31.397  44.587  58.254  1.00  0.00     0.002 A 
ENDBRANCH  33  34
ENDBRANCH  31  33
ENDBRANCH  28  31
ENDBRANCH   3  28
TORSDOF 8
ENDMDL
MODEL 2
REMARK VINA RESULT:     -11.6      2.847      5.435
REMARK  8 active torsions:
REMARK  status: ('A' for Active; 'I' for Inactive)
REMARK    1  A    between atoms: C_3  and  S_4 
REMARK    2  A    between atoms: S_4  and  N_5 
REMARK    3  A    between atoms: N_5  and  C_6 
REMARK    4  A    between atoms: C_6  and  C_7 
REMARK    5  A    between atoms: C_20  and  C_21 
REMARK    6  A    between atoms: C_25  and  N_26 
REMARK    7  A    between atoms: N_26  and  C_27 
REMARK    8  A    between atoms: C_27  and  C_28 
ROOT
HETATM    1  C   UNL     1      27.263  49.539  48.741  1.00  0.00     0.050 C 
HETATM    2  C   UNL     1      25.787  49.257  48.766  1.00  0.00    -0.039 A 
HETATM    3  C   UNL     1      25.204  48.155  49.412  1.00  0.00     0.081 A 
HETATM    4  C   UNL     1      23.812  47.943  49.342  1.00  0.00     0.039 A 
HETATM    5  C   UNL     1      22.956  48.853  48.701  1.00  0.00    -0.003 A 
HETATM    6  C   UNL     1      23.547  49.968  48.089  1.00  0.00     0.014 A 
HETATM    7  C   UNL     1      24.935  50.153  48.099  1.00  0.00     0.009 A 
ENDROOT
BRANCH   5   8
HETATM    8  C   UNL     1      21.489  48.689  48.778  1.00  0.00     0.098 C 
HETATM    9  N   UNL     1      21.118  47.397  48.889  1.00  0.00    -0.172 NA
HETATM   10  N   UNL     1      19.849  47.104  49.094  1.00  0.00    -0.266 N 
HETATM   11  H   UNL     1      19.596  46.120  49.110  1.00  0.00     0.190 HD
HETATM   12  C   UNL     1      18.883  48.019  49.284  1.00  0.00     0.108 C 
HETATM   13  C   UNL     1      19.211  49.385  49.055  1.00  0.00     0.016 A 
HETATM   14  C   UNL     1      20.552  49.732  48.789  1.00  0.00     0.009 A 
HETATM   15  C   UNL     1      18.242  50.420  49.075  1.00  0.00     0.016 A 
HETATM   16  C   UNL     1      20.870  51.093  48.537  1.00  0.00     0.015 A 
HETATM   17  C   UNL     1      19.896  52.089  48.570  1.00  0.00     0.001 A 
HETATM   18  C   UNL     1      18.582  51.753  48.842  1.00  0.00     0.001 A 
BRANCH  12  19
HETATM   19  N   UNL     1      17.572  47.639  49.602  1.00  0.00    -0.273 NA
HETATM   20  H   UNL     1      17.540  47.198  50.523  1.00  0.00     0.129 HD
BRANCH  19  21
HETATM   21  C   UNL     1      16.704  46.913  48.673  1.00  0.00     0.132 C 
BRANCH  21  22
HETATM   22  C   UNL     1      16.287  47.779  47.512  1.00  0.00    -0.045 A 
HETATM   23  C   UNL     1      15.319  48.780  47.680  1.00  0.00     0.008 A 
HETATM   24  C   UNL     1      14.943  49.587  46.606  1.00  0.00     0.001 A 
HETATM   25  C   UNL     1      15.541  49.417  45.358  1.00  0.00     0.000 A 
HETATM   26  C   UNL     1      16.522  48.444  45.184  1.00  0.00     0.001 A 
HETATM   27  C   UNL     1      16.897  47.633  46.254  1.00  0.00     0.008 A 
ENDBRANCH  21  22
ENDBRANCH  19  21
ENDBRANCH  12  19
ENDBRANCH   5   8
BRANCH   3  28
HETATM   28  S   UNL     1      26.140  46.972  50.386  1.00  0.00     0.242 S 
HETATM   29  O   UNL     1      27.165  46.418  49.528  1.00  0.00    -0.206 OA
HETATM   30  O   UNL     1      26.457  47.556  51.667  1.00  0.00    -0.206 OA
BRANCH  28  31
HETATM   31  N   UNL     1      24.970  45.771  50.658  1.00  0.00    -0.208 NA
HETATM   32  H   UNL     1      25.103  44.988  50.015  1.00  0.00     0.140 HD
BRANCH  31  33
HETATM   33  C   UNL     1      24.864  45.330  52.059  1.00  0.00     0.182 C 
BRANCH  33  34
HETATM   34  C   UNL     1      26.138  44.673  52.461  1.00  0.00     0.119 A 
HETATM   35  N   UNL     1      26.780  43.725  51.802  1.00  0.00    -0.232 NA
HETATM   36  C   UNL     1      27.927  43.491  52.527  1.00  0.00     0.085 A 
HETATM   37  C   UNL     1      27.969  44.293  53.663  1.00  0.00     0.062 A 
HETATM   38  C   UNL     1      28.988  42.610  52.274  1.00  0.00     0.034 A 
HETATM   39  N   UNL     1      26.812  45.024  53.606  1.00  0.00    -0.342 N 
HETATM   40  C   UNL     1      29.020  44.268  54.581  1.00  0.00     0.032 A 
HETATM   41  H   UNL     1      26.506  45.712  54.282  1.00  0.00     0.167 HD
HETATM   42  C   UNL     1      30.071  43.385  54.310  1.00  0.00     0.002 A 
HETATM   43  C   UNL     1      30.060  42.570  53.175  1.00  0.00     0.002 A 
ENDBRANCH  33  34
ENDBRANCH  31  33
ENDBRANCH  28  31
ENDBRANCH   3  28
TORSDOF 8
ENDMDL
MODEL 3
REMARK VINA RESULT:     -11.6      1.675      2.441
REMARK  8 active torsions:
REMARK  status: ('A' for Active; 'I' for Inactive)
REMARK    1  A    between atoms: C_3  and  S_4 
REMARK    2  A    between atoms: S_4  and  N_5 
REMARK    3  A    between atoms: N_5  and  C_6 
REMARK    4  A    between atoms: C_6  and  C_7 
REMARK    5  A    between atoms: C_20  and  C_21 
REMARK    6  A    between atoms: C_25  and  N_26 
REMARK    7  A    between atoms: N_26  and  C_27 
REMARK    8  A    between atoms: C_27  and  C_28 
ROOT
HETATM    1  C   UNL     1      26.734  43.605  54.815  1.00  0.00     0.050 C 
HETATM    2  C   UNL     1      26.319  44.446  53.640  1.00  0.00    -0.039 A 
HETATM    3  C   UNL     1      26.711  44.201  52.314  1.00  0.00     0.081 A 
HETATM    4  C   UNL     1      26.312  45.073  51.281  1.00  0.00     0.039 A 
HETATM    5  C   UNL     1      25.455  46.160  51.519  1.00  0.00    -0.003 A 
HETATM    6  C   UNL     1      25.042  46.374  52.842  1.00  0.00     0.014 A 
HETATM    7  C   UNL     1      25.485  45.550  53.884  1.00  0.00     0.009 A 
ENDROOT
BRANCH   5   8
HETATM    8  C   UNL     1      24.928  46.962  50.395  1.00  0.00     0.098 C 
HETATM    9  N   UNL     1      23.655  46.643  50.083  1.00  0.00    -0.172 NA
HETATM   10  N   UNL     1      23.009  47.361  49.185  1.00  0.00    -0.266 N 
HETATM   11  H   UNL     1      22.075  47.054  48.930  1.00  0.00     0.190 HD
HETATM   12  C   UNL     1      23.507  48.463  48.598  1.00  0.00     0.108 C 
HETATM   13  C   UNL     1      24.883  48.760  48.808  1.00  0.00     0.016 A 
HETATM   14  C   UNL     1      25.619  47.985  49.730  1.00  0.00     0.009 A 
HETATM   15  C   UNL     1      25.557  49.804  48.124  1.00  0.00     0.016 A 
HETATM   16  C   UNL     1      26.997  48.270  49.918  1.00  0.00     0.015 A 
HETATM   17  C   UNL     1      27.629  49.307  49.235  1.00  0.00     0.001 A 
HETATM   18  C   UNL     1      26.908  50.077  48.339  1.00  0.00     0.001 A 
BRANCH  12  19
HETATM   19  N   UNL     1      22.730  49.241  47.730  1.00  0.00    -0.273 NA
HETATM   20  H   UNL     1      22.877  50.236  47.911  1.00  0.00     0.129 HD
BRANCH  19  21
HETATM   21  C   UNL     1      21.309  48.986  47.487  1.00  0.00     0.132 C 
BRANCH  21  22
HETATM   22  C   UNL     1      20.434  49.878  48.331  1.00  0.00    -0.045 A 
HETATM   23  C   UNL     1      19.750  49.361  49.442  1.00  0.00     0.008 A 
HETATM   24  C   UNL     1      18.949  50.190  50.228  1.00  0.00     0.001 A 
HETATM   25  C   UNL     1      18.836  51.546  49.925  1.00  0.00     0.000 A 
HETATM   26  C   UNL     1      19.529  52.077  48.840  1.00  0.00     0.001 A 
HETATM   27  C   UNL     1      20.327  51.250  48.050  1.00  0.00     0.008 A 
ENDBRANCH  21  22
ENDBRANCH  19  21
ENDBRANCH  12  19
ENDBRANCH   5   8
BRANCH   3  28
HETATM   28  S   UNL     1      27.694  42.781  51.822  1.00  0.00     0.242 S 
HETATM   29  O   UNL     1      27.398  41.707  52.746  1.00  0.00    -0.206 OA
HETATM   30  O   UNL     1      27.592  42.604  50.395  1.00  0.00    -0.206 OA
BRANCH  28  31
HETATM   31  N   UNL     1      29.265  43.342  52.147  1.00  0.00    -0.208 NA
HETATM   32  H   UNL     1      29.249  44.335  52.388  1.00  0.00     0.140 HD
BRANCH  31  33
HETATM   33  C   UNL     1      30.005  42.540  53.135  1.00  0.00     0.182 C 
BRANCH  33  34
HETATM   34  C   UNL     1      30.206  43.349  54.368  1.00  0.00     0.119 A 
HETATM   35  N   UNL     1      29.632  44.502  54.659  1.00  0.00    -0.232 NA
HETATM   36  C   UNL     1      30.076  44.821  55.922  1.00  0.00     0.085 A 
HETATM   37  C   UNL     1      30.959  43.857  56.397  1.00  0.00     0.062 A 
HETATM   38  C   UNL     1      29.762  45.919  56.737  1.00  0.00     0.034 A 
HETATM   39  N   UNL     1      31.037  42.939  55.383  1.00  0.00    -0.342 N 
HETATM   40  C   UNL     1      31.564  43.921  57.654  1.00  0.00     0.032 A 
HETATM   41  H   UNL     1      31.601  42.099  55.381  1.00  0.00     0.167 HD
HETATM   42  C   UNL     1      31.236  45.023  58.453  1.00  0.00     0.002 A 
HETATM   43  C   UNL     1      30.349  46.006  58.005  1.00  0.00     0.002 A 
ENDBRANCH  33  34
ENDBRANCH  31  33
ENDBRANCH  28  31
ENDBRANCH   3  28
TORSDOF 8
ENDMDL
MODEL 4
REMARK VINA RESULT:     -11.5      3.152     10.556
REMARK  8 active torsions:
REMARK  status: ('A' for Active; 'I' for Inactive)
REMARK    1  A    between atoms: C_3  and  S_4 
REMARK    2  A    between atoms: S_4  and  N_5 
REMARK    3  A    between atoms: N_5  and  C_6 
REMARK    4  A    between atoms: C_6  and  C_7 
REMARK    5  A    between atoms: C_20  and  C_21 
REMARK    6  A    between atoms: C_25  and  N_26 
REMARK    7  A    between atoms: N_26  and  C_27 
REMARK    8  A    between atoms: C_27  and  C_28 
ROOT
HETATM    1  C   UNL     1      22.791  42.591  45.974  1.00  0.00     0.050 C 
HETATM    2  C   UNL     1      23.515  42.859  47.264  1.00  0.00    -0.039 A 
HETATM    3  C   UNL     1      23.264  43.961  48.097  1.00  0.00     0.081 A 
HETATM    4  C   UNL     1      24.027  44.158  49.266  1.00  0.00     0.039 A 
HETATM    5  C   UNL     1      24.998  43.233  49.681  1.00  0.00    -0.003 A 
HETATM    6  C   UNL     1      25.216  42.118  48.859  1.00  0.00     0.014 A 
HETATM    7  C   UNL     1      24.507  41.948  47.663  1.00  0.00     0.009 A 
ENDROOT
BRANCH   5   8
HETATM    8  C   UNL     1      25.670  43.383  50.989  1.00  0.00     0.098 C 
HETATM    9  N   UNL     1      26.204  42.227  51.433  1.00  0.00    -0.172 NA
HETATM   10  N   UNL     1      26.943  42.233  52.524  1.00  0.00    -0.266 N 
HETATM   11  H   UNL     1      27.277  41.335  52.865  1.00  0.00     0.190 HD
HETATM   12  C   UNL     1      27.281  43.343  53.203  1.00  0.00     0.108 C 
HETATM   13  C   UNL     1      26.642  44.561  52.838  1.00  0.00     0.016 A 
HETATM   14  C   UNL     1      25.807  44.584  51.700  1.00  0.00     0.009 A 
HETATM   15  C   UNL     1      26.801  45.763  53.575  1.00  0.00     0.016 A 
HETATM   16  C   UNL     1      25.153  45.795  51.355  1.00  0.00     0.015 A 
HETATM   17  C   UNL     1      25.334  46.962  52.096  1.00  0.00     0.001 A 
HETATM   18  C   UNL     1      26.161  46.946  53.206  1.00  0.00     0.001 A 
BRANCH  12  19
HETATM   19  N   UNL     1      28.157  43.292  54.295  1.00  0.00    -0.273 NA
HETATM   20  H   UNL     1      27.746  43.757  55.107  1.00  0.00     0.129 HD
BRANCH  19  21
HETATM   21  C   UNL     1      29.577  43.632  54.195  1.00  0.00     0.132 C 
BRANCH  21  22
HETATM   22  C   UNL     1      30.144  44.046  55.530  1.00  0.00    -0.045 A 
HETATM   23  C   UNL     1      31.104  43.251  56.174  1.00  0.00     0.008 A 
HETATM   24  C   UNL     1      31.634  43.642  57.405  1.00  0.00     0.001 A 
HETATM   25  C   UNL     1      31.226  44.837  57.995  1.00  0.00     0.000 A 
HETATM   26  C   UNL     1      30.293  45.647  57.355  1.00  0.00     0.001 A 
HETATM   27  C   UNL     1      29.758  45.258  56.127  1.00  0.00     0.008 A 
ENDBRANCH  21  22
ENDBRANCH  19  21
ENDBRANCH  12  19
ENDBRANCH   5   8
BRANCH   3  28
HETATM   28  S   UNL     1      21.968  45.163  47.781  1.00  0.00     0.242 S 
HETATM   29  O   UNL     1      22.300  45.846  46.549  1.00  0.00    -0.206 OA
HETATM   30  O   UNL     1      20.683  44.540  47.981  1.00  0.00    -0.206 OA
BRANCH  28  31
HETATM   31  N   UNL     1      22.205  46.247  49.067  1.00  0.00    -0.208 NA
HETATM   32  H   UNL     1      22.716  45.795  49.829  1.00  0.00     0.140 HD
BRANCH  31  33
HETATM   33  C   UNL     1      22.808  47.532  48.677  1.00  0.00     0.182 C 
BRANCH  33  34
HETATM   34  C   UNL     1      21.816  48.622  48.889  1.00  0.00     0.119 A 
HETATM   35  N   UNL     1      21.866  49.844  48.390  1.00  0.00    -0.232 NA
HETATM   36  C   UNL     1      20.705  50.454  48.807  1.00  0.00     0.085 A 
HETATM   37  C   UNL     1      19.948  49.596  49.599  1.00  0.00     0.062 A 
HETATM   38  C   UNL     1      20.221  51.744  48.544  1.00  0.00     0.034 A 
HETATM   39  N   UNL     1      20.685  48.442  49.648  1.00  0.00    -0.342 N 
HETATM   40  C   UNL     1      18.719  49.950  50.158  1.00  0.00     0.032 A 
HETATM   41  H   UNL     1      20.438  47.597  50.148  1.00  0.00     0.167 HD
HETATM   42  C   UNL     1      18.251  51.240  49.881  1.00  0.00     0.002 A 
HETATM   43  C   UNL     1      18.987  52.124  49.087  1.00  0.00     0.002 A 
ENDBRANCH  33  34
ENDBRANCH  31  33
ENDBRANCH  28  31
ENDBRANCH   3  28
TORSDOF 8
ENDMDL
MODEL 5
REMARK VINA RESULT:     -11.5      2.963     10.681
REMARK  8 active torsions:
REMARK  status: ('A' for Active; 'I' for Inactive)
REMARK    1  A    between atoms: C_3  and  S_4 
REMARK    2  A    between atoms: S_4  and  N_5 
REMARK    3  A    between atoms: N_5  and  C_6 
REMARK    4  A    between atoms: C_6  and  C_7 
REMARK    5  A    between atoms: C_20  and  C_21 
REMARK    6  A    between atoms: C_25  and  N_26 
REMARK    7  A    between atoms: N_26  and  C_27 
REMARK    8  A    between atoms: C_27  and  C_28 
ROOT
HETATM    1  C   UNL     1      22.374  42.143  46.922  1.00  0.00     0.050 C 
HETATM    2  C   UNL     1      23.262  42.597  48.047  1.00  0.00    -0.039 A 
HETATM    3  C   UNL     1      23.178  43.856  48.663  1.00  0.00     0.081 A 
HETATM    4  C   UNL     1      24.085  44.213  49.680  1.00  0.00     0.039 A 
HETATM    5  C   UNL     1      25.044  43.309  50.168  1.00  0.00    -0.003 A 
HETATM    6  C   UNL     1      25.095  42.043  49.569  1.00  0.00     0.014 A 
HETATM    7  C   UNL     1      24.240  41.702  48.515  1.00  0.00     0.009 A 
ENDROOT
BRANCH   5   8
HETATM    8  C   UNL     1      25.875  43.655  51.340  1.00  0.00     0.098 C 
HETATM    9  N   UNL     1      25.568  44.863  51.855  1.00  0.00    -0.172 NA
HETATM   10  N   UNL     1      26.139  45.252  52.978  1.00  0.00    -0.266 N 
HETATM   11  H   UNL     1      25.932  46.192  53.304  1.00  0.00     0.190 HD
HETATM   12  C   UNL     1      26.967  44.486  53.710  1.00  0.00     0.108 C 
HETATM   13  C   UNL     1      27.409  43.259  53.141  1.00  0.00     0.016 A 
HETATM   14  C   UNL     1      26.852  42.830  51.917  1.00  0.00     0.009 A 
HETATM   15  C   UNL     1      28.396  42.442  53.749  1.00  0.00     0.016 A 
HETATM   16  C   UNL     1      27.314  41.618  51.342  1.00  0.00     0.015 A 
HETATM   17  C   UNL     1      28.281  40.833  51.967  1.00  0.00     0.001 A 
HETATM   18  C   UNL     1      28.821  41.245  53.174  1.00  0.00     0.001 A 
BRANCH  12  19
HETATM   19  N   UNL     1      27.457  44.921  54.948  1.00  0.00    -0.273 NA
HETATM   20  H   UNL     1      26.691  45.227  55.551  1.00  0.00     0.129 HD
BRANCH  19  21
HETATM   21  C   UNL     1      28.589  45.841  55.080  1.00  0.00     0.132 C 
BRANCH  21  22
HETATM   22  C   UNL     1      29.594  45.342  56.086  1.00  0.00    -0.045 A 
HETATM   23  C   UNL     1      29.632  45.878  57.383  1.00  0.00     0.008 A 
HETATM   24  C   UNL     1      30.557  45.407  58.315  1.00  0.00     0.001 A 
HETATM   25  C   UNL     1      31.441  44.386  57.971  1.00  0.00     0.000 A 
HETATM   26  C   UNL     1      31.397  43.828  56.696  1.00  0.00     0.001 A 
HETATM   27  C   UNL     1      30.477  44.299  55.760  1.00  0.00     0.008 A 
ENDBRANCH  21  22
ENDBRANCH  19  21
ENDBRANCH  12  19
ENDBRANCH   5   8
BRANCH   3  28
HETATM   28  S   UNL     1      21.926  45.075  48.249  1.00  0.00     0.242 S 
HETATM   29  O   UNL     1      22.161  45.492  46.884  1.00  0.00    -0.206 OA
HETATM   30  O   UNL     1      20.636  44.599  48.686  1.00  0.00    -0.206 OA
BRANCH  28  31
HETATM   31  N   UNL     1      22.363  46.355  49.277  1.00  0.00    -0.208 NA
HETATM   32  H   UNL     1      23.039  46.039  49.976  1.00  0.00     0.140 HD
BRANCH  31  33
HETATM   33  C   UNL     1      22.809  47.571  48.579  1.00  0.00     0.182 C 
BRANCH  33  34
HETATM   34  C   UNL     1      21.823  48.661  48.817  1.00  0.00     0.119 A 
HETATM   35  N   UNL     1      21.842  49.872  48.290  1.00  0.00    -0.232 NA
HETATM   36  C   UNL     1      20.700  50.487  48.751  1.00  0.00     0.085 A 
HETATM   37  C   UNL     1      19.988  49.642  49.597  1.00  0.00     0.062 A 
HETATM   38  C   UNL     1      20.197  51.769  48.486  1.00  0.00     0.034 A 
HETATM   39  N   UNL     1      20.732  48.492  49.634  1.00  0.00    -0.342 N 
HETATM   40  C   UNL     1      18.786  50.003  50.208  1.00  0.00     0.032 A 
HETATM   41  H   UNL     1      20.514  47.658  50.163  1.00  0.00     0.167 HD
HETATM   42  C   UNL     1      18.298  51.285  49.928  1.00  0.00     0.002 A 
HETATM   43  C   UNL     1      18.989  52.155  49.080  1.00  0.00     0.002 A 
ENDBRANCH  33  34
ENDBRANCH  31  33
ENDBRANCH  28  31
ENDBRANCH   3  28
TORSDOF 8
ENDMDL
MODEL 6
REMARK VINA RESULT:     -11.3      1.836      2.792
REMARK  8 active torsions:
REMARK  status: ('A' for Active; 'I' for Inactive)
REMARK    1  A    between atoms: C_3  and  S_4 
REMARK    2  A    between atoms: S_4  and  N_5 
REMARK    3  A    between atoms: N_5  and  C_6 
REMARK    4  A    between atoms: C_6  and  C_7 
REMARK    5  A    between atoms: C_20  and  C_21 
REMARK    6  A    between atoms: C_25  and  N_26 
REMARK    7  A    between atoms: N_26  and  C_27 
REMARK    8  A    between atoms: C_27  and  C_28 
ROOT
HETATM    1  C   UNL     1      26.669  41.741  50.955  1.00  0.00     0.050 C 
HETATM    2  C   UNL     1      25.855  42.948  50.579  1.00  0.00    -0.039 A 
HETATM    3  C   UNL     1      25.523  43.985  51.465  1.00  0.00     0.081 A 
HETATM    4  C   UNL     1      24.712  45.055  51.037  1.00  0.00     0.039 A 
HETATM    5  C   UNL     1      24.276  45.168  49.706  1.00  0.00    -0.003 A 
HETATM    6  C   UNL     1      24.644  44.143  48.822  1.00  0.00     0.014 A 
HETATM    7  C   UNL     1      25.395  43.044  49.255  1.00  0.00     0.009 A 
ENDROOT
BRANCH   5   8
HETATM    8  C   UNL     1      23.562  46.378  49.249  1.00  0.00     0.098 C 
HETATM    9  N   UNL     1      24.253  47.510  49.492  1.00  0.00    -0.172 NA
HETATM   10  N   UNL     1      23.799  48.657  49.026  1.00  0.00    -0.266 N 
HETATM   11  H   UNL     1      24.311  49.497  49.280  1.00  0.00     0.190 HD
HETATM   12  C   UNL     1      22.714  48.779  48.241  1.00  0.00     0.108 C 
HETATM   13  C   UNL     1      21.894  47.629  48.063  1.00  0.00     0.016 A 
HETATM   14  C   UNL     1      22.326  46.391  48.586  1.00  0.00     0.009 A 
HETATM   15  C   UNL     1      20.649  47.672  47.385  1.00  0.00     0.016 A 
HETATM   16  C   UNL     1      21.493  45.254  48.428  1.00  0.00     0.015 A 
HETATM   17  C   UNL     1      20.277  45.326  47.751  1.00  0.00     0.001 A 
HETATM   18  C   UNL     1      19.856  46.535  47.226  1.00  0.00     0.001 A 
BRANCH  12  19
HETATM   19  N   UNL     1      22.346  50.014  47.693  1.00  0.00    -0.273 NA
HETATM   20  H   UNL     1      22.963  50.261  46.916  1.00  0.00     0.129 HD
BRANCH  19  21
HETATM   21  C   UNL     1      22.077  51.200  48.508  1.00  0.00     0.132 C 
BRANCH  21  22
HETATM   22  C   UNL     1      20.633  51.265  48.934  1.00  0.00    -0.045 A 
HETATM   23  C   UNL     1      20.147  50.415  49.940  1.00  0.00     0.008 A 
HETATM   24  C   UNL     1      18.812  50.485  50.339  1.00  0.00     0.001 A 
HETATM   25  C   UNL     1      17.952  51.413  49.753  1.00  0.00     0.000 A 
HETATM   26  C   UNL     1      18.428  52.279  48.772  1.00  0.00     0.001 A 
HETATM   27  C   UNL     1      19.761  52.210  48.367  1.00  0.00     0.008 A 
ENDBRANCH  21  22
ENDBRANCH  19  21
ENDBRANCH  12  19
ENDBRANCH   5   8
BRANCH   3  28
HETATM   28  S   UNL     1      26.110  44.060  53.160  1.00  0.00     0.242 S 
HETATM   29  O   UNL     1      24.952  44.212  54.015  1.00  0.00    -0.206 OA
HETATM   30  O   UNL     1      27.080  43.014  53.375  1.00  0.00    -0.206 OA
BRANCH  28  31
HETATM   31  N   UNL     1      26.956  45.533  53.149  1.00  0.00    -0.208 NA
HETATM   32  H   UNL     1      26.655  46.114  52.363  1.00  0.00     0.140 HD
BRANCH  31  33
HETATM   33  C   UNL     1      26.923  46.264  54.427  1.00  0.00     0.182 C 
BRANCH  33  34
HETATM   34  C   UNL     1      28.083  45.842  55.260  1.00  0.00     0.119 A 
HETATM   35  N   UNL     1      28.423  46.322  56.443  1.00  0.00    -0.232 NA
HETATM   36  C   UNL     1      29.512  45.579  56.838  1.00  0.00     0.085 A 
HETATM   37  C   UNL     1      29.858  44.648  55.864  1.00  0.00     0.062 A 
HETATM   38  C   UNL     1      30.258  45.636  58.024  1.00  0.00     0.034 A 
HETATM   39  N   UNL     1      28.943  44.847  54.863  1.00  0.00    -0.342 N 
HETATM   40  C   UNL     1      30.924  43.757  55.999  1.00  0.00     0.032 A 
HETATM   41  H   UNL     1      28.900  44.344  53.987  1.00  0.00     0.167 HD
HETATM   42  C   UNL     1      31.655  43.827  57.190  1.00  0.00     0.002 A 
HETATM   43  C   UNL     1      31.329  44.749  58.189  1.00  0.00     0.002 A 
ENDBRANCH  33  34
ENDBRANCH  31  33
ENDBRANCH  28  31
ENDBRANCH   3  28
TORSDOF 8
ENDMDL
MODEL 7
REMARK VINA RESULT:     -11.1      2.693      5.054
REMARK  8 active torsions:
REMARK  status: ('A' for Active; 'I' for Inactive)
REMARK    1  A    between atoms: C_3  and  S_4 
REMARK    2  A    between atoms: S_4  and  N_5 
REMARK    3  A    between atoms: N_5  and  C_6 
REMARK    4  A    between atoms: C_6  and  C_7 
REMARK    5  A    between atoms: C_20  and  C_21 
REMARK    6  A    between atoms: C_25  and  N_26 
REMARK    7  A    between atoms: N_26  and  C_27 
REMARK    8  A    between atoms: C_27  and  C_28 
ROOT
HETATM    1  C   UNL     1      27.334  48.968  48.824  1.00  0.00     0.050 C 
HETATM    2  C   UNL     1      25.834  49.034  48.905  1.00  0.00    -0.039 A 
HETATM    3  C   UNL     1      25.036  48.093  49.574  1.00  0.00     0.081 A 
HETATM    4  C   UNL     1      23.631  48.209  49.555  1.00  0.00     0.039 A 
HETATM    5  C   UNL     1      22.986  49.297  48.945  1.00  0.00    -0.003 A 
HETATM    6  C   UNL     1      23.796  50.250  48.310  1.00  0.00     0.014 A 
HETATM    7  C   UNL     1      25.188  50.108  48.269  1.00  0.00     0.009 A 
ENDROOT
BRANCH   5   8
HETATM    8  C   UNL     1      21.525  49.476  49.077  1.00  0.00     0.098 C 
HETATM    9  N   UNL     1      21.196  50.348  50.051  1.00  0.00    -0.172 NA
HETATM   10  N   UNL     1      19.935  50.704  50.201  1.00  0.00    -0.266 N 
HETATM   11  H   UNL     1      19.714  51.315  50.983  1.00  0.00     0.190 HD
HETATM   12  C   UNL     1      18.937  50.315  49.388  1.00  0.00     0.108 C 
HETATM   13  C   UNL     1      19.222  49.304  48.429  1.00  0.00     0.016 A 
HETATM   14  C   UNL     1      20.554  48.865  48.269  1.00  0.00     0.009 A 
HETATM   15  C   UNL     1      18.220  48.706  47.622  1.00  0.00     0.016 A 
HETATM   16  C   UNL     1      20.829  47.839  47.328  1.00  0.00     0.015 A 
HETATM   17  C   UNL     1      19.823  47.276  46.545  1.00  0.00     0.001 A 
HETATM   18  C   UNL     1      18.518  47.712  46.690  1.00  0.00     0.001 A 
BRANCH  12  19
HETATM   19  N   UNL     1      17.637  50.814  49.540  1.00  0.00    -0.273 NA
HETATM   20  H   UNL     1      17.061  50.567  48.733  1.00  0.00     0.129 HD
BRANCH  19  21
HETATM   21  C   UNL     1      17.353  52.191  49.949  1.00  0.00     0.132 C 
BRANCH  21  22
HETATM   22  C   UNL     1      16.237  52.793  49.132  1.00  0.00    -0.045 A 
HETATM   23  C   UNL     1      16.012  52.371  47.813  1.00  0.00     0.008 A 
HETATM   24  C   UNL     1      14.972  52.922  47.063  1.00  0.00     0.001 A 
HETATM   25  C   UNL     1      14.136  53.885  47.626  1.00  0.00     0.000 A 
HETATM   26  C   UNL     1      14.334  54.295  48.942  1.00  0.00     0.001 A 
HETATM   27  C   UNL     1      15.375  53.749  49.693  1.00  0.00     0.008 A 
ENDBRANCH  21  22
ENDBRANCH  19  21
ENDBRANCH  12  19
ENDBRANCH   5   8
BRANCH   3  28
HETATM   28  S   UNL     1      25.709  46.719  50.514  1.00  0.00     0.242 S 
HETATM   29  O   UNL     1      24.605  45.850  50.863  1.00  0.00    -0.206 OA
HETATM   30  O   UNL     1      26.887  46.220  49.849  1.00  0.00    -0.206 OA
BRANCH  28  31
HETATM   31  N   UNL     1      26.227  47.510  51.925  1.00  0.00    -0.208 NA
HETATM   32  H   UNL     1      25.998  48.505  51.884  1.00  0.00     0.140 HD
BRANCH  31  33
HETATM   33  C   UNL     1      25.768  46.884  53.177  1.00  0.00     0.182 C 
BRANCH  33  34
HETATM   34  C   UNL     1      26.881  46.085  53.759  1.00  0.00     0.119 A 
HETATM   35  N   UNL     1      27.269  44.880  53.385  1.00  0.00    -0.232 NA
HETATM   36  C   UNL     1      28.366  44.592  54.165  1.00  0.00     0.085 A 
HETATM   37  C   UNL     1      28.633  45.631  55.051  1.00  0.00     0.062 A 
HETATM   38  C   UNL     1      29.195  43.460  54.171  1.00  0.00     0.034 A 
HETATM   39  N   UNL     1      27.664  46.563  54.783  1.00  0.00    -0.342 N 
HETATM   40  C   UNL     1      29.691  45.611  55.961  1.00  0.00     0.032 A 
HETATM   41  H   UNL     1      27.548  47.453  55.249  1.00  0.00     0.167 HD
HETATM   42  C   UNL     1      30.509  44.475  55.949  1.00  0.00     0.002 A 
HETATM   43  C   UNL     1      30.268  43.417  55.069  1.00  0.00     0.002 A 
ENDBRANCH  33  34
ENDBRANCH  31  33
ENDBRANCH  28  31
ENDBRANCH   3  28
TORSDOF 8
ENDMDL
MODEL 8
REMARK VINA RESULT:     -11.1      4.036      6.667
REMARK  8 active torsions:
REMARK  status: ('A' for Active; 'I' for Inactive)
REMARK    1  A    between atoms: C_3  and  S_4 
REMARK    2  A    between atoms: S_4  and  N_5 
REMARK    3  A    between atoms: N_5  and  C_6 
REMARK    4  A    between atoms: C_6  and  C_7 
REMARK    5  A    between atoms: C_20  and  C_21 
REMARK    6  A    between atoms: C_25  and  N_26 
REMARK    7  A    between atoms: N_26  and  C_27 
REMARK    8  A    between atoms: C_27  and  C_28 
ROOT
HETATM    1  C   UNL     1      26.184  41.004  49.191  1.00  0.00     0.050 C 
HETATM    2  C   UNL     1      25.004  41.917  49.010  1.00  0.00    -0.039 A 
HETATM    3  C   UNL     1      24.918  43.213  49.541  1.00  0.00     0.081 A 
HETATM    4  C   UNL     1      23.749  43.980  49.362  1.00  0.00     0.039 A 
HETATM    5  C   UNL     1      22.671  43.518  48.589  1.00  0.00    -0.003 A 
HETATM    6  C   UNL     1      22.783  42.235  48.035  1.00  0.00     0.014 A 
HETATM    7  C   UNL     1      23.914  41.441  48.261  1.00  0.00     0.009 A 
ENDROOT
BRANCH   5   8
HETATM    8  C   UNL     1      21.527  44.404  48.287  1.00  0.00     0.098 C 
HETATM    9  N   UNL     1      20.751  44.632  49.365  1.00  0.00    -0.172 NA
HETATM   10  N   UNL     1      19.765  45.503  49.280  1.00  0.00    -0.266 N 
HETATM   11  H   UNL     1      19.162  45.604  50.092  1.00  0.00     0.190 HD
HETATM   12  C   UNL     1      19.516  46.260  48.197  1.00  0.00     0.108 C 
HETATM   13  C   UNL     1      20.233  45.964  47.004  1.00  0.00     0.016 A 
HETATM   14  C   UNL     1      21.267  45.004  47.046  1.00  0.00     0.009 A 
HETATM   15  C   UNL     1      19.951  46.589  45.763  1.00  0.00     0.016 A 
HETATM   16  C   UNL     1      21.963  44.694  45.849  1.00  0.00     0.015 A 
HETATM   17  C   UNL     1      21.666  45.331  44.645  1.00  0.00     0.001 A 
HETATM   18  C   UNL     1      20.661  46.281  44.602  1.00  0.00     0.001 A 
BRANCH  12  19
HETATM   19  N   UNL     1      18.518  47.243  48.208  1.00  0.00    -0.273 NA
HETATM   20  H   UNL     1      18.566  47.813  47.362  1.00  0.00     0.129 HD
BRANCH  19  21
HETATM   21  C   UNL     1      18.253  48.098  49.367  1.00  0.00     0.132 C 
BRANCH  21  22
HETATM   22  C   UNL     1      18.574  49.542  49.076  1.00  0.00    -0.045 A 
HETATM   23  C   UNL     1      18.634  50.006  47.753  1.00  0.00     0.008 A 
HETATM   24  C   UNL     1      18.920  51.346  47.487  1.00  0.00     0.001 A 
HETATM   25  C   UNL     1      19.132  52.239  48.536  1.00  0.00     0.000 A 
HETATM   26  C   UNL     1      19.050  51.797  49.854  1.00  0.00     0.001 A 
HETATM   27  C   UNL     1      18.768  50.458  50.124  1.00  0.00     0.008 A 
ENDBRANCH  21  22
ENDBRANCH  19  21
ENDBRANCH  12  19
ENDBRANCH   5   8
BRANCH   3  28
HETATM   28  S   UNL     1      26.258  44.003  50.438  1.00  0.00     0.242 S 
HETATM   29  O   UNL     1      26.683  43.090  51.477  1.00  0.00    -0.206 OA
HETATM   30  O   UNL     1      27.192  44.569  49.496  1.00  0.00    -0.206 OA
BRANCH  28  31
HETATM   31  N   UNL     1      25.441  45.299  51.173  1.00  0.00    -0.208 NA
HETATM   32  H   UNL     1      25.184  45.062  52.134  1.00  0.00     0.140 HD
BRANCH  31  33
HETATM   33  C   UNL     1      26.145  46.590  51.086  1.00  0.00     0.182 C 
BRANCH  33  34
HETATM   34  C   UNL     1      25.321  47.542  50.292  1.00  0.00     0.119 A 
HETATM   35  N   UNL     1      25.761  48.560  49.575  1.00  0.00    -0.232 NA
HETATM   36  C   UNL     1      24.642  49.094  48.978  1.00  0.00     0.085 A 
HETATM   37  C   UNL     1      23.496  48.405  49.361  1.00  0.00     0.062 A 
HETATM   38  C   UNL     1      24.525  50.170  48.085  1.00  0.00     0.034 A 
HETATM   39  N   UNL     1      23.953  47.432  50.210  1.00  0.00    -0.342 N 
HETATM   40  C   UNL     1      22.217  48.729  48.906  1.00  0.00     0.032 A 
HETATM   41  H   UNL     1      23.387  46.744  50.689  1.00  0.00     0.167 HD
HETATM   42  C   UNL     1      22.121  49.803  48.013  1.00  0.00     0.002 A 
HETATM   43  C   UNL     1      23.254  50.512  47.606  1.00  0.00     0.002 A 
ENDBRANCH  33  34
ENDBRANCH  31  33
ENDBRANCH  28  31
ENDBRANCH   3  28
TORSDOF 8
ENDMDL
MODEL 9
REMARK VINA RESULT:     -11.1      2.750     10.993
REMARK  8 active torsions:
REMARK  status: ('A' for Active; 'I' for Inactive)
REMARK    1  A    between atoms: C_3  and  S_4 
REMARK    2  A    between atoms: S_4  and  N_5 
REMARK    3  A    between atoms: N_5  and  C_6 
REMARK    4  A    between atoms: C_6  and  C_7 
REMARK    5  A    between atoms: C_20  and  C_21 
REMARK    6  A    between atoms: C_25  and  N_26 
REMARK    7  A    between atoms: N_26  and  C_27 
REMARK    8  A    between atoms: C_27  and  C_28 
ROOT
HETATM    1  C   UNL     1      22.501  48.249  48.229  1.00  0.00     0.050 C 
HETATM    2  C   UNL     1      23.417  47.364  49.028  1.00  0.00    -0.039 A 
HETATM    3  C   UNL     1      23.214  45.988  49.224  1.00  0.00     0.081 A 
HETATM    4  C   UNL     1      24.100  45.246  50.030  1.00  0.00     0.039 A 
HETATM    5  C   UNL     1      25.249  45.824  50.594  1.00  0.00    -0.003 A 
HETATM    6  C   UNL     1      25.459  47.191  50.362  1.00  0.00     0.014 A 
HETATM    7  C   UNL     1      24.550  47.950  49.616  1.00  0.00     0.009 A 
ENDROOT
BRANCH   5   8
HETATM    8  C   UNL     1      26.242  44.988  51.301  1.00  0.00     0.098 C 
HETATM    9  N   UNL     1      26.608  45.512  52.489  1.00  0.00    -0.172 NA
HETATM   10  N   UNL     1      27.391  44.816  53.289  1.00  0.00    -0.266 N 
HETATM   11  H   UNL     1      27.697  45.267  54.147  1.00  0.00     0.190 HD
HETATM   12  C   UNL     1      27.801  43.560  53.042  1.00  0.00     0.108 C 
HETATM   13  C   UNL     1      27.537  43.021  51.752  1.00  0.00     0.016 A 
HETATM   14  C   UNL     1      26.738  43.756  50.851  1.00  0.00     0.009 A 
HETATM   15  C   UNL     1      28.050  41.770  51.323  1.00  0.00     0.016 A 
HETATM   16  C   UNL     1      26.499  43.225  49.556  1.00  0.00     0.015 A 
HETATM   17  C   UNL     1      27.012  41.989  49.167  1.00  0.00     0.001 A 
HETATM   18  C   UNL     1      27.786  41.259  50.052  1.00  0.00     0.001 A 
BRANCH  12  19
HETATM   19  N   UNL     1      28.546  42.838  53.983  1.00  0.00    -0.273 NA
HETATM   20  H   UNL     1      28.075  42.837  54.890  1.00  0.00     0.129 HD
BRANCH  19  21
HETATM   21  C   UNL     1      29.986  43.022  54.172  1.00  0.00     0.132 C 
BRANCH  21  22
HETATM   22  C   UNL     1      30.289  43.731  55.468  1.00  0.00    -0.045 A 
HETATM   23  C   UNL     1      31.173  43.165  56.400  1.00  0.00     0.008 A 
HETATM   24  C   UNL     1      31.459  43.829  57.594  1.00  0.00     0.001 A 
HETATM   25  C   UNL     1      30.883  45.069  57.862  1.00  0.00     0.000 A 
HETATM   26  C   UNL     1      30.024  45.652  56.935  1.00  0.00     0.001 A 
HETATM   27  C   UNL     1      29.731  44.991  55.742  1.00  0.00     0.008 A 
ENDBRANCH  21  22
ENDBRANCH  19  21
ENDBRANCH  12  19
ENDBRANCH   5   8
BRANCH   3  28
HETATM   28  S   UNL     1      21.871  45.071  48.463  1.00  0.00     0.242 S 
HETATM   29  O   UNL     1      21.767  45.512  47.089  1.00  0.00    -0.206 OA
HETATM   30  O   UNL     1      21.996  43.675  48.805  1.00  0.00    -0.206 OA
BRANCH  28  31
HETATM   31  N   UNL     1      20.534  45.678  49.318  1.00  0.00    -0.208 NA
HETATM   32  H   UNL     1      20.826  46.411  49.968  1.00  0.00     0.140 HD
BRANCH  31  33
HETATM   33  C   UNL     1      19.410  46.103  48.467  1.00  0.00     0.182 C 
BRANCH  33  34
HETATM   34  C   UNL     1      19.213  47.571  48.614  1.00  0.00     0.119 A 
HETATM   35  N   UNL     1      19.151  48.250  49.746  1.00  0.00    -0.232 NA
HETATM   36  C   UNL     1      19.030  49.569  49.372  1.00  0.00     0.085 A 
HETATM   37  C   UNL     1      18.990  49.692  47.987  1.00  0.00     0.062 A 
HETATM   38  C   UNL     1      18.956  50.726  50.161  1.00  0.00     0.034 A 
HETATM   39  N   UNL     1      19.092  48.404  47.529  1.00  0.00    -0.342 N 
HETATM   40  C   UNL     1      18.873  50.917  47.327  1.00  0.00     0.032 A 
HETATM   41  H   UNL     1      19.089  48.114  46.559  1.00  0.00     0.167 HD
HETATM   42  C   UNL     1      18.804  52.059  48.132  1.00  0.00     0.002 A 
HETATM   43  C   UNL     1      18.846  51.969  49.526  1.00  0.00     0.002 A 
ENDBRANCH  33  34
ENDBRANCH  31  33
ENDBRANCH  28  31
ENDBRANCH   3  28
TORSDOF 8
ENDMDL
MODEL 10
REMARK VINA RESULT:     -11.0      3.576     11.211
REMARK  8 active torsions:
REMARK  status: ('A' for Active; 'I' for Inactive)
REMARK    1  A    between atoms: C_3  and  S_4 
REMARK    2  A    between atoms: S_4  and  N_5 
REMARK    3  A    between atoms: N_5  and  C_6 
REMARK    4  A    between atoms: C_6  and  C_7 
REMARK    5  A    between atoms: C_20  and  C_21 
REMARK    6  A    between atoms: C_25  and  N_26 
REMARK    7  A    between atoms: N_26  and  C_27 
REMARK    8  A    between atoms: C_27  and  C_28 
ROOT
HETATM    1  C   UNL     1      24.079  50.932  47.355  1.00  0.00     0.050 C 
HETATM    2  C   UNL     1      24.266  49.790  48.315  1.00  0.00    -0.039 A 
HETATM    3  C   UNL     1      23.214  49.122  48.961  1.00  0.00     0.081 A 
HETATM    4  C   UNL     1      23.487  48.092  49.884  1.00  0.00     0.039 A 
HETATM    5  C   UNL     1      24.795  47.645  50.131  1.00  0.00    -0.003 A 
HETATM    6  C   UNL     1      25.835  48.298  49.453  1.00  0.00     0.014 A 
HETATM    7  C   UNL     1      25.578  49.365  48.583  1.00  0.00     0.009 A 
ENDROOT
BRANCH   5   8
HETATM    8  C   UNL     1      25.038  46.462  50.982  1.00  0.00     0.098 C 
HETATM    9  N   UNL     1      25.301  46.791  52.263  1.00  0.00    -0.172 NA
HETATM   10  N   UNL     1      25.414  45.836  53.166  1.00  0.00    -0.266 N 
HETATM   11  H   UNL     1      25.673  46.116  54.108  1.00  0.00     0.190 HD
HETATM   12  C   UNL     1      25.205  44.532  52.918  1.00  0.00     0.108 C 
HETATM   13  C   UNL     1      25.047  44.134  51.560  1.00  0.00     0.016 A 
HETATM   14  C   UNL     1      24.965  45.126  50.560  1.00  0.00     0.009 A 
HETATM   15  C   UNL     1      24.972  42.775  51.162  1.00  0.00     0.016 A 
HETATM   16  C   UNL     1      24.832  44.724  49.206  1.00  0.00     0.015 A 
HETATM   17  C   UNL     1      24.755  43.380  48.846  1.00  0.00     0.001 A 
HETATM   18  C   UNL     1      24.822  42.404  49.826  1.00  0.00     0.001 A 
BRANCH  12  19
HETATM   19  N   UNL     1      25.238  43.580  53.945  1.00  0.00    -0.273 NA
HETATM   20  H   UNL     1      24.326  43.513  54.402  1.00  0.00     0.129 HD
BRANCH  19  21
HETATM   21  C   UNL     1      26.301  43.527  54.950  1.00  0.00     0.132 C 
BRANCH  21  22
HETATM   22  C   UNL     1      27.629  43.166  54.335  1.00  0.00    -0.045 A 
HETATM   23  C   UNL     1      28.764  43.956  54.572  1.00  0.00     0.008 A 
HETATM   24  C   UNL     1      29.994  43.612  54.009  1.00  0.00     0.001 A 
HETATM   25  C   UNL     1      30.108  42.469  53.220  1.00  0.00     0.000 A 
HETATM   26  C   UNL     1      28.996  41.663  52.997  1.00  0.00     0.001 A 
HETATM   27  C   UNL     1      27.764  42.005  53.554  1.00  0.00     0.008 A 
ENDBRANCH  21  22
ENDBRANCH  19  21
ENDBRANCH  12  19
ENDBRANCH   5   8
BRANCH   3  28
HETATM   28  S   UNL     1      21.482  49.479  48.656  1.00  0.00     0.242 S 
HETATM   29  O   UNL     1      21.289  50.899  48.859  1.00  0.00    -0.206 OA
HETATM   30  O   UNL     1      21.067  48.823  47.441  1.00  0.00    -0.206 OA
BRANCH  28  31
HETATM   31  N   UNL     1      20.745  48.655  49.947  1.00  0.00    -0.208 NA
HETATM   32  H   UNL     1      20.744  49.235  50.789  1.00  0.00     0.140 HD
BRANCH  31  33
HETATM   33  C   UNL     1      19.410  48.115  49.641  1.00  0.00     0.182 C 
BRANCH  33  34
HETATM   34  C   UNL     1      18.465  49.244  49.420  1.00  0.00     0.119 A 
HETATM   35  N   UNL     1      18.199  50.228  50.260  1.00  0.00    -0.232 NA
HETATM   36  C   UNL     1      17.326  51.053  49.589  1.00  0.00     0.085 A 
HETATM   37  C   UNL     1      17.033  50.546  48.327  1.00  0.00     0.062 A 
HETATM   38  C   UNL     1      16.741  52.263  49.990  1.00  0.00     0.034 A 
HETATM   39  N   UNL     1      17.758  49.386  48.250  1.00  0.00    -0.342 N 
HETATM   40  C   UNL     1      16.175  51.179  47.425  1.00  0.00     0.032 A 
HETATM   41  H   UNL     1      17.780  48.747  47.466  1.00  0.00     0.167 HD
HETATM   42  C   UNL     1      15.604  52.387  47.843  1.00  0.00     0.002 A 
HETATM   43  C   UNL     1      15.882  52.923  49.103  1.00  0.00     0.002 A 
ENDBRANCH  33  34
ENDBRANCH  31  33
ENDBRANCH  28  31
ENDBRANCH   3  28
TORSDOF 8
ENDMDL
