MODEL 1
REMARK VINA RESULT:     -10.5      0.000      0.000
REMARK  4 active torsions:
REMARK  status: ('A' for Active; 'I' for Inactive)
REMARK    1  A    between atoms: C_9  and  C_10 
REMARK    2  A    between atoms: C_10  and  C_11 
REMARK       I    between atoms: C_11  and  N_12 
REMARK    3  A    between atoms: N_12  and  C_13 
REMARK    4  A    between atoms: C_20  and  C_21 
REMARK       I    between atoms: C_21  and  N_22 
ROOT
HETATM    1  C   UNL     1      25.785  47.152  50.196  1.00  0.00     0.035 A 
HETATM    2  C   UNL     1      24.520  47.505  49.707  1.00  0.00     0.046 A 
HETATM    3  C   UNL     1      24.387  48.639  48.876  1.00  0.00     0.030 A 
HETATM    4  C   UNL     1      25.525  49.362  48.539  1.00  0.00     0.063 A 
HETATM    5  N   UNL     1      25.086  50.375  47.734  1.00  0.00    -0.277 N 
HETATM    6  H   UNL     1      25.645  51.097  47.297  1.00  0.00     0.189 HD
HETATM    7  N   UNL     1      23.758  50.394  47.538  1.00  0.00    -0.168 NA
HETATM    8  C   UNL     1      23.309  49.329  48.242  1.00  0.00     0.156 A 
HETATM    9  C   UNL     1      26.801  49.030  48.997  1.00  0.00     0.034 A 
HETATM   10  C   UNL     1      26.904  47.919  49.844  1.00  0.00     0.032 A 
ENDROOT
BRANCH   1  11
HETATM   11  N   UNL     1      25.999  46.080  51.088  1.00  0.00    -0.327 N 
HETATM   12  C   UNL     1      26.667  44.897  50.826  1.00  0.00     0.226 C 
HETATM   13  O   UNL     1      27.353  44.649  49.837  1.00  0.00    -0.273 OA
HETATM   14  H   UNL     1      25.607  46.187  52.014  1.00  0.00     0.169 HD
BRANCH  12  15
HETATM   15  C   UNL     1      26.465  43.851  51.914  1.00  0.00     0.141 C 
BRANCH  15  16
HETATM   16  C   UNL     1      27.660  43.762  52.833  1.00  0.00    -0.049 A 
HETATM   17  C   UNL     1      28.595  42.734  52.668  1.00  0.00     0.008 A 
HETATM   18  C   UNL     1      29.682  42.616  53.534  1.00  0.00     0.013 A 
HETATM   19  C   UNL     1      29.863  43.527  54.584  1.00  0.00    -0.026 A 
HETATM   20  C   UNL     1      30.946  43.413  55.469  1.00  0.00     0.012 A 
HETATM   21  C   UNL     1      28.935  44.579  54.753  1.00  0.00    -0.025 A 
HETATM   22  C   UNL     1      31.114  44.326  56.510  1.00  0.00     0.001 A 
HETATM   23  C   UNL     1      30.204  45.364  56.677  1.00  0.00     0.001 A 
HETATM   24  C   UNL     1      29.122  45.492  55.805  1.00  0.00     0.012 A 
HETATM   25  C   UNL     1      27.844  44.687  53.872  1.00  0.00     0.020 A 
ENDBRANCH  15  16
ENDBRANCH  12  15
ENDBRANCH   1  11
BRANCH   8  26
HETATM   26  C   UNL     1      21.877  49.009  48.310  1.00  0.00     0.270 C 
HETATM   27  N   UNL     1      21.309  49.253  49.530  1.00  0.00    -0.365 N 
HETATM   28  H   UNL     1      21.897  49.602  50.278  1.00  0.00     0.159 HD
HETATM   29  H   UNL     1      20.338  49.032  49.680  1.00  0.00     0.159 HD
HETATM   30  O   UNL     1      21.217  48.551  47.384  1.00  0.00    -0.266 OA
ENDBRANCH   8  26
TORSDOF 4
ENDMDL
MODEL 2
REMARK VINA RESULT:     -10.2      4.840      7.656
REMARK  4 active torsions:
REMARK  status: ('A' for Active; 'I' for Inactive)
REMARK    1  A    between atoms: C_9  and  C_10 
REMARK    2  A    between atoms: C_10  and  C_11 
REMARK       I    between atoms: C_11  and  N_12 
REMARK    3  A    between atoms: N_12  and  C_13 
REMARK    4  A    between atoms: C_20  and  C_21 
REMARK       I    between atoms: C_21  and  N_22 
ROOT
HETATM    1  C   UNL     1      27.276  41.684  50.160  1.00  0.00     0.035 A 
HETATM    2  C   UNL     1      28.050  40.540  50.396  1.00  0.00     0.046 A 
HETATM    3  C   UNL     1      28.239  39.601  49.359  1.00  0.00     0.030 A 
HETATM    4  C   UNL     1      27.674  39.853  48.115  1.00  0.00     0.063 A 
HETATM    5  N   UNL     1      28.032  38.791  47.332  1.00  0.00    -0.277 N 
HETATM    6  H   UNL     1      27.798  38.641  46.358  1.00  0.00     0.189 HD
HETATM    7  N   UNL     1      28.757  37.854  47.963  1.00  0.00    -0.168 NA
HETATM    8  C   UNL     1      28.891  38.338  49.220  1.00  0.00     0.156 A 
HETATM    9  C   UNL     1      26.909  40.988  47.841  1.00  0.00     0.034 A 
HETATM   10  C   UNL     1      26.711  41.890  48.894  1.00  0.00     0.032 A 
ENDROOT
BRANCH   1  11
HETATM   11  N   UNL     1      26.976  42.635  51.157  1.00  0.00    -0.327 N 
HETATM   12  C   UNL     1      27.383  43.958  51.199  1.00  0.00     0.226 C 
HETATM   13  O   UNL     1      27.913  44.587  50.287  1.00  0.00    -0.273 OA
HETATM   14  H   UNL     1      26.415  42.306  51.932  1.00  0.00     0.169 HD
BRANCH  12  15
HETATM   15  C   UNL     1      27.121  44.614  52.547  1.00  0.00     0.141 C 
BRANCH  15  16
HETATM   16  C   UNL     1      28.234  44.339  53.530  1.00  0.00    -0.049 A 
HETATM   17  C   UNL     1      29.108  43.268  53.314  1.00  0.00     0.008 A 
HETATM   18  C   UNL     1      30.117  42.977  54.234  1.00  0.00     0.013 A 
HETATM   19  C   UNL     1      30.277  43.755  55.389  1.00  0.00    -0.026 A 
HETATM   20  C   UNL     1      31.279  43.467  56.328  1.00  0.00     0.012 A 
HETATM   21  C   UNL     1      29.410  44.849  55.612  1.00  0.00    -0.025 A 
HETATM   22  C   UNL     1      31.428  44.248  57.474  1.00  0.00     0.001 A 
HETATM   23  C   UNL     1      30.578  45.327  57.694  1.00  0.00     0.001 A 
HETATM   24  C   UNL     1      29.576  45.627  56.770  1.00  0.00     0.012 A 
HETATM   25  C   UNL     1      28.399  45.131  54.676  1.00  0.00     0.020 A 
ENDBRANCH  15  16
ENDBRANCH  12  15
ENDBRANCH   1  11
BRANCH   8  26
HETATM   26  C   UNL     1      29.611  37.583  50.254  1.00  0.00     0.270 C 
HETATM   27  N   UNL     1      28.860  36.616  50.864  1.00  0.00    -0.365 N 
HETATM   28  H   UNL     1      27.891  36.507  50.585  1.00  0.00     0.159 HD
HETATM   29  H   UNL     1      29.260  36.070  51.609  1.00  0.00     0.159 HD
HETATM   30  O   UNL     1      30.776  37.779  50.582  1.00  0.00    -0.266 OA
ENDBRANCH   8  26
TORSDOF 4
ENDMDL
MODEL 3
REMARK VINA RESULT:     -10.2      0.628      1.474
REMARK  4 active torsions:
REMARK  status: ('A' for Active; 'I' for Inactive)
REMARK    1  A    between atoms: C_9  and  C_10 
REMARK    2  A    between atoms: C_10  and  C_11 
REMARK       I    between atoms: C_11  and  N_12 
REMARK    3  A    between atoms: N_12  and  C_13 
REMARK    4  A    between atoms: C_20  and  C_21 
REMARK       I    between atoms: C_21  and  N_22 
ROOT
HETATM    1  C   UNL     1      25.799  47.358  50.140  1.00  0.00     0.035 A 
HETATM    2  C   UNL     1      24.528  47.653  49.630  1.00  0.00     0.046 A 
HETATM    3  C   UNL     1      24.364  48.759  48.767  1.00  0.00     0.030 A 
HETATM    4  C   UNL     1      25.480  49.512  48.422  1.00  0.00     0.063 A 
HETATM    5  N   UNL     1      25.014  50.488  47.586  1.00  0.00    -0.277 N 
HETATM    6  H   UNL     1      25.553  51.218  47.135  1.00  0.00     0.189 HD
HETATM    7  N   UNL     1      23.688  50.456  47.377  1.00  0.00    -0.168 NA
HETATM    8  C   UNL     1      23.270  49.395  48.105  1.00  0.00     0.156 A 
HETATM    9  C   UNL     1      26.762  49.238  48.901  1.00  0.00     0.034 A 
HETATM   10  C   UNL     1      26.894  48.154  49.778  1.00  0.00     0.032 A 
ENDROOT
BRANCH   1  11
HETATM   11  N   UNL     1      26.041  46.318  51.061  1.00  0.00    -0.327 N 
HETATM   12  C   UNL     1      26.770  45.162  50.844  1.00  0.00     0.226 C 
HETATM   13  O   UNL     1      27.491  44.925  49.878  1.00  0.00    -0.273 OA
HETATM   14  H   UNL     1      25.621  46.427  51.976  1.00  0.00     0.169 HD
BRANCH  12  15
HETATM   15  C   UNL     1      26.591  44.133  51.952  1.00  0.00     0.141 C 
BRANCH  15  16
HETATM   16  C   UNL     1      27.444  44.453  53.156  1.00  0.00    -0.049 A 
HETATM   17  C   UNL     1      27.202  45.614  53.897  1.00  0.00     0.008 A 
HETATM   18  C   UNL     1      28.007  45.943  54.988  1.00  0.00     0.013 A 
HETATM   19  C   UNL     1      29.071  45.113  55.368  1.00  0.00    -0.026 A 
HETATM   20  C   UNL     1      29.896  45.437  56.456  1.00  0.00     0.012 A 
HETATM   21  C   UNL     1      29.318  43.928  54.637  1.00  0.00    -0.025 A 
HETATM   22  C   UNL     1      30.952  44.603  56.822  1.00  0.00     0.001 A 
HETATM   23  C   UNL     1      31.196  43.435  56.107  1.00  0.00     0.001 A 
HETATM   24  C   UNL     1      30.384  43.098  55.022  1.00  0.00     0.012 A 
HETATM   25  C   UNL     1      28.497  43.610  53.540  1.00  0.00     0.020 A 
ENDBRANCH  15  16
ENDBRANCH  12  15
ENDBRANCH   1  11
BRANCH   8  26
HETATM   26  C   UNL     1      21.848  49.027  48.168  1.00  0.00     0.270 C 
HETATM   27  N   UNL     1      21.037  50.018  48.649  1.00  0.00    -0.365 N 
HETATM   28  H   UNL     1      21.460  50.893  48.938  1.00  0.00     0.159 HD
HETATM   29  H   UNL     1      20.052  49.843  48.760  1.00  0.00     0.159 HD
HETATM   30  O   UNL     1      21.392  47.937  47.842  1.00  0.00    -0.266 OA
ENDBRANCH   8  26
TORSDOF 4
ENDMDL
MODEL 4
REMARK VINA RESULT:      -9.7      1.975      2.703
REMARK  4 active torsions:
REMARK  status: ('A' for Active; 'I' for Inactive)
REMARK    1  A    between atoms: C_9  and  C_10 
REMARK    2  A    between atoms: C_10  and  C_11 
REMARK       I    between atoms: C_11  and  N_12 
REMARK    3  A    between atoms: N_12  and  C_13 
REMARK    4  A    between atoms: C_20  and  C_21 
REMARK       I    between atoms: C_21  and  N_22 
ROOT
HETATM    1  C   UNL     1      26.005  45.763  50.197  1.00  0.00     0.035 A 
HETATM    2  C   UNL     1      24.749  45.335  49.749  1.00  0.00     0.046 A 
HETATM    3  C   UNL     1      23.802  46.289  49.317  1.00  0.00     0.030 A 
HETATM    4  C   UNL     1      24.153  47.634  49.320  1.00  0.00     0.063 A 
HETATM    5  N   UNL     1      23.055  48.297  48.850  1.00  0.00    -0.277 N 
HETATM    6  H   UNL     1      22.954  49.295  48.713  1.00  0.00     0.189 HD
HETATM    7  N   UNL     1      22.007  47.508  48.566  1.00  0.00    -0.168 NA
HETATM    8  C   UNL     1      22.451  46.262  48.854  1.00  0.00     0.156 A 
HETATM    9  C   UNL     1      25.401  48.093  49.747  1.00  0.00     0.034 A 
HETATM   10  C   UNL     1      26.312  47.131  50.199  1.00  0.00     0.032 A 
ENDROOT
BRANCH   1  11
HETATM   11  N   UNL     1      26.983  44.888  50.712  1.00  0.00    -0.327 N 
HETATM   12  C   UNL     1      26.898  44.123  51.863  1.00  0.00     0.226 C 
HETATM   13  O   UNL     1      25.888  43.926  52.535  1.00  0.00    -0.273 OA
HETATM   14  H   UNL     1      27.846  44.826  50.188  1.00  0.00     0.169 HD
BRANCH  12  15
HETATM   15  C   UNL     1      28.233  43.517  52.271  1.00  0.00     0.141 C 
BRANCH  15  16
HETATM   16  C   UNL     1      28.702  44.042  53.607  1.00  0.00    -0.049 A 
HETATM   17  C   UNL     1      28.150  45.215  54.131  1.00  0.00     0.008 A 
HETATM   18  C   UNL     1      28.601  45.733  55.345  1.00  0.00     0.013 A 
HETATM   19  C   UNL     1      29.613  45.086  56.067  1.00  0.00    -0.026 A 
HETATM   20  C   UNL     1      30.085  45.602  57.284  1.00  0.00     0.012 A 
HETATM   21  C   UNL     1      30.171  43.891  55.557  1.00  0.00    -0.025 A 
HETATM   22  C   UNL     1      31.094  44.949  57.992  1.00  0.00     0.001 A 
HETATM   23  C   UNL     1      31.641  43.771  57.494  1.00  0.00     0.001 A 
HETATM   24  C   UNL     1      31.183  43.244  56.284  1.00  0.00     0.012 A 
HETATM   25  C   UNL     1      29.705  43.380  54.331  1.00  0.00     0.020 A 
ENDBRANCH  15  16
ENDBRANCH  12  15
ENDBRANCH   1  11
BRANCH   8  26
HETATM   26  C   UNL     1      21.578  45.089  48.703  1.00  0.00     0.270 C 
HETATM   27  N   UNL     1      20.430  45.149  49.444  1.00  0.00    -0.365 N 
HETATM   28  H   UNL     1      20.278  45.956  50.038  1.00  0.00     0.159 HD
HETATM   29  H   UNL     1      19.788  44.373  49.430  1.00  0.00     0.159 HD
HETATM   30  O   UNL     1      21.827  44.117  47.999  1.00  0.00    -0.266 OA
ENDBRANCH   8  26
TORSDOF 4
ENDMDL
MODEL 5
REMARK VINA RESULT:      -9.4      3.840      6.398
REMARK  4 active torsions:
REMARK  status: ('A' for Active; 'I' for Inactive)
REMARK    1  A    between atoms: C_9  and  C_10 
REMARK    2  A    between atoms: C_10  and  C_11 
REMARK       I    between atoms: C_11  and  N_12 
REMARK    3  A    between atoms: N_12  and  C_13 
REMARK    4  A    between atoms: C_20  and  C_21 
REMARK       I    between atoms: C_21  and  N_22 
ROOT
HETATM    1  C   UNL     1      24.770  43.292  50.696  1.00  0.00     0.035 A 
HETATM    2  C   UNL     1      25.862  42.451  50.445  1.00  0.00     0.046 A 
HETATM    3  C   UNL     1      25.729  41.397  49.514  1.00  0.00     0.030 A 
HETATM    4  C   UNL     1      24.521  41.240  48.846  1.00  0.00     0.063 A 
HETATM    5  N   UNL     1      24.699  40.164  48.023  1.00  0.00    -0.277 N 
HETATM    6  H   UNL     1      24.025  39.764  47.382  1.00  0.00     0.189 HD
HETATM    7  N   UNL     1      25.909  39.588  48.114  1.00  0.00    -0.168 NA
HETATM    8  C   UNL     1      26.557  40.336  49.036  1.00  0.00     0.156 A 
HETATM    9  C   UNL     1      23.418  42.068  49.062  1.00  0.00     0.034 A 
HETATM   10  C   UNL     1      23.564  43.087  50.011  1.00  0.00     0.032 A 
ENDROOT
BRANCH   1  11
HETATM   11  N   UNL     1      24.792  44.322  51.659  1.00  0.00    -0.327 N 
HETATM   12  C   UNL     1      25.656  45.402  51.709  1.00  0.00     0.226 C 
HETATM   13  O   UNL     1      26.430  45.758  50.823  1.00  0.00    -0.273 OA
HETATM   14  H   UNL     1      24.108  44.251  52.402  1.00  0.00     0.169 HD
BRANCH  12  15
HETATM   15  C   UNL     1      25.584  46.156  53.029  1.00  0.00     0.141 C 
BRANCH  15  16
HETATM   16  C   UNL     1      26.817  45.929  53.872  1.00  0.00    -0.049 A 
HETATM   17  C   UNL     1      27.303  46.953  54.691  1.00  0.00     0.008 A 
HETATM   18  C   UNL     1      28.463  46.771  55.445  1.00  0.00     0.013 A 
HETATM   19  C   UNL     1      29.162  45.557  55.400  1.00  0.00    -0.026 A 
HETATM   20  C   UNL     1      30.336  45.364  56.143  1.00  0.00     0.012 A 
HETATM   21  C   UNL     1      28.674  44.508  54.588  1.00  0.00    -0.025 A 
HETATM   22  C   UNL     1      31.023  44.151  56.089  1.00  0.00     0.001 A 
HETATM   23  C   UNL     1      30.543  43.116  55.294  1.00  0.00     0.001 A 
HETATM   24  C   UNL     1      29.376  43.292  54.548  1.00  0.00     0.012 A 
HETATM   25  C   UNL     1      27.502  44.706  53.834  1.00  0.00     0.020 A 
ENDBRANCH  15  16
ENDBRANCH  12  15
ENDBRANCH   1  11
BRANCH   8  26
HETATM   26  C   UNL     1      27.929  40.012  49.451  1.00  0.00     0.270 C 
HETATM   27  N   UNL     1      28.019  39.472  50.705  1.00  0.00    -0.365 N 
HETATM   28  H   UNL     1      27.169  39.357  51.245  1.00  0.00     0.159 HD
HETATM   29  H   UNL     1      28.924  39.250  51.087  1.00  0.00     0.159 HD
HETATM   30  O   UNL     1      28.931  40.207  48.772  1.00  0.00    -0.266 OA
ENDBRANCH   8  26
TORSDOF 4
ENDMDL
MODEL 6
REMARK VINA RESULT:      -9.3      2.400      3.189
REMARK  4 active torsions:
REMARK  status: ('A' for Active; 'I' for Inactive)
REMARK    1  A    between atoms: C_9  and  C_10 
REMARK    2  A    between atoms: C_10  and  C_11 
REMARK       I    between atoms: C_11  and  N_12 
REMARK    3  A    between atoms: N_12  and  C_13 
REMARK    4  A    between atoms: C_20  and  C_21 
REMARK       I    between atoms: C_21  and  N_22 
ROOT
HETATM    1  C   UNL     1      26.412  45.012  50.556  1.00  0.00     0.035 A 
HETATM    2  C   UNL     1      25.528  44.611  49.545  1.00  0.00     0.046 A 
HETATM    3  C   UNL     1      24.391  45.399  49.262  1.00  0.00     0.030 A 
HETATM    4  C   UNL     1      24.192  46.573  49.978  1.00  0.00     0.063 A 
HETATM    5  N   UNL     1      23.037  47.109  49.483  1.00  0.00    -0.277 N 
HETATM    6  H   UNL     1      22.589  47.971  49.768  1.00  0.00     0.189 HD
HETATM    7  N   UNL     1      22.448  46.374  48.526  1.00  0.00    -0.168 NA
HETATM    8  C   UNL     1      23.270  45.309  48.381  1.00  0.00     0.156 A 
HETATM    9  C   UNL     1      25.059  47.009  50.981  1.00  0.00     0.034 A 
HETATM   10  C   UNL     1      26.164  46.196  51.264  1.00  0.00     0.032 A 
ENDROOT
BRANCH   1  11
HETATM   11  N   UNL     1      27.531  44.252  50.952  1.00  0.00    -0.327 N 
HETATM   12  C   UNL     1      27.591  43.326  51.979  1.00  0.00     0.226 C 
HETATM   13  O   UNL     1      26.638  42.864  52.601  1.00  0.00    -0.273 OA
HETATM   14  H   UNL     1      28.386  44.416  50.436  1.00  0.00     0.169 HD
BRANCH  12  15
HETATM   15  C   UNL     1      29.016  42.905  52.313  1.00  0.00     0.141 C 
BRANCH  15  16
HETATM   16  C   UNL     1      29.464  43.454  53.647  1.00  0.00    -0.049 A 
HETATM   17  C   UNL     1      30.606  42.938  54.268  1.00  0.00     0.008 A 
HETATM   18  C   UNL     1      31.009  43.407  55.518  1.00  0.00     0.013 A 
HETATM   19  C   UNL     1      30.282  44.410  56.175  1.00  0.00    -0.026 A 
HETATM   20  C   UNL     1      30.669  44.884  57.437  1.00  0.00     0.012 A 
HETATM   21  C   UNL     1      29.134  44.951  55.552  1.00  0.00    -0.025 A 
HETATM   22  C   UNL     1      29.936  45.881  58.080  1.00  0.00     0.001 A 
HETATM   23  C   UNL     1      28.808  46.418  57.468  1.00  0.00     0.001 A 
HETATM   24  C   UNL     1      28.409  45.957  56.212  1.00  0.00     0.012 A 
HETATM   25  C   UNL     1      28.740  44.468  54.290  1.00  0.00     0.020 A 
ENDBRANCH  15  16
ENDBRANCH  12  15
ENDBRANCH   1  11
BRANCH   8  26
HETATM   26  C   UNL     1      22.962  44.232  47.430  1.00  0.00     0.270 C 
HETATM   27  N   UNL     1      22.588  43.057  48.021  1.00  0.00    -0.365 N 
HETATM   28  H   UNL     1      22.572  43.007  49.033  1.00  0.00     0.159 HD
HETATM   29  H   UNL     1      22.390  42.253  47.448  1.00  0.00     0.159 HD
HETATM   30  O   UNL     1      23.035  44.333  46.210  1.00  0.00    -0.266 OA
ENDBRANCH   8  26
TORSDOF 4
ENDMDL
MODEL 7
REMARK VINA RESULT:      -8.9      4.417      9.990
REMARK  4 active torsions:
REMARK  status: ('A' for Active; 'I' for Inactive)
REMARK    1  A    between atoms: C_9  and  C_10 
REMARK    2  A    between atoms: C_10  and  C_11 
REMARK       I    between atoms: C_11  and  N_12 
REMARK    3  A    between atoms: N_12  and  C_13 
REMARK    4  A    between atoms: C_20  and  C_21 
REMARK       I    between atoms: C_21  and  N_22 
ROOT
HETATM    1  C   UNL     1      24.327  48.000  49.540  1.00  0.00     0.035 A 
HETATM    2  C   UNL     1      23.853  46.682  49.582  1.00  0.00     0.046 A 
HETATM    3  C   UNL     1      24.773  45.612  49.636  1.00  0.00     0.030 A 
HETATM    4  C   UNL     1      26.133  45.897  49.675  1.00  0.00     0.063 A 
HETATM    5  N   UNL     1      26.757  44.683  49.731  1.00  0.00    -0.277 N 
HETATM    6  H   UNL     1      27.753  44.507  49.776  1.00  0.00     0.189 HD
HETATM    7  N   UNL     1      25.926  43.629  49.704  1.00  0.00    -0.168 NA
HETATM    8  C   UNL     1      24.695  44.186  49.640  1.00  0.00     0.156 A 
HETATM    9  C   UNL     1      26.639  47.198  49.648  1.00  0.00     0.034 A 
HETATM   10  C   UNL     1      25.708  48.241  49.565  1.00  0.00     0.032 A 
ENDROOT
BRANCH   1  11
HETATM   11  N   UNL     1      23.484  49.122  49.413  1.00  0.00    -0.327 N 
HETATM   12  C   UNL     1      23.427  50.010  48.352  1.00  0.00     0.226 C 
HETATM   13  O   UNL     1      23.961  49.870  47.255  1.00  0.00    -0.273 OA
HETATM   14  H   UNL     1      22.865  49.304  50.193  1.00  0.00     0.169 HD
BRANCH  12  15
HETATM   15  C   UNL     1      22.613  51.257  48.669  1.00  0.00     0.141 C 
BRANCH  15  16
HETATM   16  C   UNL     1      21.135  51.029  48.466  1.00  0.00    -0.049 A 
HETATM   17  C   UNL     1      20.692  50.170  47.454  1.00  0.00     0.008 A 
HETATM   18  C   UNL     1      19.328  49.980  47.228  1.00  0.00     0.013 A 
HETATM   19  C   UNL     1      18.374  50.640  48.015  1.00  0.00    -0.026 A 
HETATM   20  C   UNL     1      17.000  50.468  47.793  1.00  0.00     0.012 A 
HETATM   21  C   UNL     1      18.807  51.499  49.051  1.00  0.00    -0.025 A 
HETATM   22  C   UNL     1      16.061  51.131  48.582  1.00  0.00     0.001 A 
HETATM   23  C   UNL     1      16.484  51.974  49.604  1.00  0.00     0.001 A 
HETATM   24  C   UNL     1      17.848  52.157  49.839  1.00  0.00     0.012 A 
HETATM   25  C   UNL     1      20.186  51.680  49.267  1.00  0.00     0.020 A 
ENDBRANCH  15  16
ENDBRANCH  12  15
ENDBRANCH   1  11
BRANCH   8  26
HETATM   26  C   UNL     1      23.485  43.355  49.565  1.00  0.00     0.270 C 
HETATM   27  N   UNL     1      23.265  42.803  48.333  1.00  0.00    -0.365 N 
HETATM   28  H   UNL     1      23.913  43.015  47.583  1.00  0.00     0.159 HD
HETATM   29  H   UNL     1      22.440  42.245  48.178  1.00  0.00     0.159 HD
HETATM   30  O   UNL     1      22.710  43.160  50.494  1.00  0.00    -0.266 OA
ENDBRANCH   8  26
TORSDOF 4
ENDMDL
MODEL 8
REMARK VINA RESULT:      -8.5      3.583      5.410
REMARK  4 active torsions:
REMARK  status: ('A' for Active; 'I' for Inactive)
REMARK    1  A    between atoms: C_9  and  C_10 
REMARK    2  A    between atoms: C_10  and  C_11 
REMARK       I    between atoms: C_11  and  N_12 
REMARK    3  A    between atoms: N_12  and  C_13 
REMARK    4  A    between atoms: C_20  and  C_21 
REMARK       I    between atoms: C_21  and  N_22 
ROOT
HETATM    1  C   UNL     1      24.315  44.069  50.432  1.00  0.00     0.035 A 
HETATM    2  C   UNL     1      25.194  43.187  49.788  1.00  0.00     0.046 A 
HETATM    3  C   UNL     1      24.757  42.477  48.649  1.00  0.00     0.030 A 
HETATM    4  C   UNL     1      23.469  42.695  48.175  1.00  0.00     0.063 A 
HETATM    5  N   UNL     1      23.345  41.888  47.079  1.00  0.00    -0.277 N 
HETATM    6  H   UNL     1      22.536  41.792  46.477  1.00  0.00     0.189 HD
HETATM    7  N   UNL     1      24.428  41.141  46.812  1.00  0.00    -0.168 NA
HETATM    8  C   UNL     1      25.310  41.490  47.776  1.00  0.00     0.156 A 
HETATM    9  C   UNL     1      22.573  43.576  48.783  1.00  0.00     0.034 A 
HETATM   10  C   UNL     1      23.019  44.246  49.929  1.00  0.00     0.032 A 
ENDROOT
BRANCH   1  11
HETATM   11  N   UNL     1      24.643  44.763  51.615  1.00  0.00    -0.327 N 
HETATM   12  C   UNL     1      25.587  45.765  51.761  1.00  0.00     0.226 C 
HETATM   13  O   UNL     1      26.168  46.357  50.856  1.00  0.00    -0.273 OA
HETATM   14  H   UNL     1      24.141  44.484  52.448  1.00  0.00     0.169 HD
BRANCH  12  15
HETATM   15  C   UNL     1      25.881  46.091  53.219  1.00  0.00     0.141 C 
BRANCH  15  16
HETATM   16  C   UNL     1      27.114  45.374  53.716  1.00  0.00    -0.049 A 
HETATM   17  C   UNL     1      27.561  44.218  53.066  1.00  0.00     0.008 A 
HETATM   18  C   UNL     1      28.675  43.524  53.537  1.00  0.00     0.013 A 
HETATM   19  C   UNL     1      29.373  43.973  54.667  1.00  0.00    -0.026 A 
HETATM   20  C   UNL     1      30.488  43.277  55.159  1.00  0.00     0.012 A 
HETATM   21  C   UNL     1      28.941  45.147  55.325  1.00  0.00    -0.025 A 
HETATM   22  C   UNL     1      31.173  43.734  56.285  1.00  0.00     0.001 A 
HETATM   23  C   UNL     1      30.752  44.892  56.932  1.00  0.00     0.001 A 
HETATM   24  C   UNL     1      29.644  45.595  56.455  1.00  0.00     0.012 A 
HETATM   25  C   UNL     1      27.816  45.838  54.838  1.00  0.00     0.020 A 
ENDBRANCH  15  16
ENDBRANCH  12  15
ENDBRANCH   1  11
BRANCH   8  26
HETATM   26  C   UNL     1      26.638  40.866  47.856  1.00  0.00     0.270 C 
HETATM   27  N   UNL     1      27.496  41.253  46.864  1.00  0.00    -0.365 N 
HETATM   28  H   UNL     1      27.162  41.900  46.160  1.00  0.00     0.159 HD
HETATM   29  H   UNL     1      28.418  40.850  46.819  1.00  0.00     0.159 HD
HETATM   30  O   UNL     1      26.981  40.056  48.710  1.00  0.00    -0.266 OA
ENDBRANCH   8  26
TORSDOF 4
ENDMDL
MODEL 9
REMARK VINA RESULT:      -8.0     11.329     13.804
REMARK  4 active torsions:
REMARK  status: ('A' for Active; 'I' for Inactive)
REMARK    1  A    between atoms: C_9  and  C_10 
REMARK    2  A    between atoms: C_10  and  C_11 
REMARK       I    between atoms: C_11  and  N_12 
REMARK    3  A    between atoms: N_12  and  C_13 
REMARK    4  A    between atoms: C_20  and  C_21 
REMARK       I    between atoms: C_21  and  N_22 
ROOT
HETATM    1  C   UNL     1      32.209  49.813  41.725  1.00  0.00     0.035 A 
HETATM    2  C   UNL     1      31.606  50.477  40.649  1.00  0.00     0.046 A 
HETATM    3  C   UNL     1      30.239  50.255  40.371  1.00  0.00     0.030 A 
HETATM    4  C   UNL     1      29.517  49.401  41.195  1.00  0.00     0.063 A 
HETATM    5  N   UNL     1      28.248  49.395  40.689  1.00  0.00    -0.277 N 
HETATM    6  H   UNL     1      27.449  48.884  41.043  1.00  0.00     0.189 HD
HETATM    7  N   UNL     1      28.084  50.148  39.589  1.00  0.00    -0.168 NA
HETATM    8  C   UNL     1      29.308  50.684  39.376  1.00  0.00     0.156 A 
HETATM    9  C   UNL     1      30.082  48.734  42.284  1.00  0.00     0.034 A 
HETATM   10  C   UNL     1      31.446  48.948  42.521  1.00  0.00     0.032 A 
ENDROOT
BRANCH   1  11
HETATM   11  N   UNL     1      33.581  49.920  42.030  1.00  0.00    -0.327 N 
HETATM   12  C   UNL     1      34.238  51.022  42.550  1.00  0.00     0.226 C 
HETATM   13  O   UNL     1      33.714  52.032  43.013  1.00  0.00    -0.273 OA
HETATM   14  H   UNL     1      34.146  49.104  41.832  1.00  0.00     0.169 HD
BRANCH  12  15
HETATM   15  C   UNL     1      35.754  50.890  42.488  1.00  0.00     0.141 C 
BRANCH  15  16
HETATM   16  C   UNL     1      36.443  52.193  42.816  1.00  0.00    -0.049 A 
HETATM   17  C   UNL     1      36.808  53.069  41.788  1.00  0.00     0.008 A 
HETATM   18  C   UNL     1      37.481  54.258  42.072  1.00  0.00     0.013 A 
HETATM   19  C   UNL     1      37.801  54.601  43.394  1.00  0.00    -0.026 A 
HETATM   20  C   UNL     1      38.487  55.787  43.693  1.00  0.00     0.012 A 
HETATM   21  C   UNL     1      37.425  53.732  44.443  1.00  0.00    -0.025 A 
HETATM   22  C   UNL     1      38.800  56.116  45.012  1.00  0.00     0.001 A 
HETATM   23  C   UNL     1      38.428  55.265  46.047  1.00  0.00     0.001 A 
HETATM   24  C   UNL     1      37.744  54.080  45.766  1.00  0.00     0.012 A 
HETATM   25  C   UNL     1      36.745  52.537  44.141  1.00  0.00     0.020 A 
ENDBRANCH  15  16
ENDBRANCH  12  15
ENDBRANCH   1  11
BRANCH   8  26
HETATM   26  C   UNL     1      29.565  51.566  38.229  1.00  0.00     0.270 C 
HETATM   27  N   UNL     1      28.850  52.731  38.252  1.00  0.00    -0.365 N 
HETATM   28  H   UNL     1      28.203  52.889  39.016  1.00  0.00     0.159 HD
HETATM   29  H   UNL     1      28.936  53.383  37.488  1.00  0.00     0.159 HD
HETATM   30  O   UNL     1      30.332  51.311  37.307  1.00  0.00    -0.266 OA
ENDBRANCH   8  26
TORSDOF 4
ENDMDL
MODEL 10
REMARK VINA RESULT:      -7.9      3.522      9.207
REMARK  4 active torsions:
REMARK  status: ('A' for Active; 'I' for Inactive)
REMARK    1  A    between atoms: C_9  and  C_10 
REMARK    2  A    between atoms: C_10  and  C_11 
REMARK       I    between atoms: C_11  and  N_12 
REMARK    3  A    between atoms: N_12  and  C_13 
REMARK    4  A    between atoms: C_20  and  C_21 
REMARK       I    between atoms: C_21  and  N_22 
ROOT
HETATM    1  C   UNL     1      26.135  42.912  49.691  1.00  0.00     0.035 A 
HETATM    2  C   UNL     1      26.551  43.109  51.014  1.00  0.00     0.046 A 
HETATM    3  C   UNL     1      27.447  42.192  51.605  1.00  0.00     0.030 A 
HETATM    4  C   UNL     1      27.919  41.129  50.845  1.00  0.00     0.063 A 
HETATM    5  N   UNL     1      28.758  40.436  51.671  1.00  0.00    -0.277 N 
HETATM    6  H   UNL     1      29.286  39.601  51.449  1.00  0.00     0.189 HD
HETATM    7  N   UNL     1      28.854  40.936  52.913  1.00  0.00    -0.168 NA
HETATM    8  C   UNL     1      28.046  42.021  52.891  1.00  0.00     0.156 A 
HETATM    9  C   UNL     1      27.536  40.911  49.520  1.00  0.00     0.034 A 
HETATM   10  C   UNL     1      26.623  41.817  48.965  1.00  0.00     0.032 A 
ENDROOT
BRANCH   1  11
HETATM   11  N   UNL     1      25.189  43.736  49.046  1.00  0.00    -0.327 N 
HETATM   12  C   UNL     1      23.905  44.028  49.474  1.00  0.00     0.226 C 
HETATM   13  O   UNL     1      23.430  43.778  50.579  1.00  0.00    -0.273 OA
HETATM   14  H   UNL     1      25.480  44.144  48.167  1.00  0.00     0.169 HD
BRANCH  12  15
HETATM   15  C   UNL     1      23.066  44.712  48.404  1.00  0.00     0.141 C 
BRANCH  15  16
HETATM   16  C   UNL     1      22.996  46.205  48.616  1.00  0.00    -0.049 A 
HETATM   17  C   UNL     1      23.920  46.836  49.457  1.00  0.00     0.008 A 
HETATM   18  C   UNL     1      23.843  48.209  49.694  1.00  0.00     0.013 A 
HETATM   19  C   UNL     1      22.843  48.985  49.090  1.00  0.00    -0.026 A 
HETATM   20  C   UNL     1      22.747  50.364  49.329  1.00  0.00     0.012 A 
HETATM   21  C   UNL     1      21.913  48.363  48.227  1.00  0.00    -0.025 A 
HETATM   22  C   UNL     1      21.747  51.124  48.723  1.00  0.00     0.001 A 
HETATM   23  C   UNL     1      20.832  50.515  47.870  1.00  0.00     0.001 A 
HETATM   24  C   UNL     1      20.914  49.144  47.622  1.00  0.00     0.012 A 
HETATM   25  C   UNL     1      22.003  46.977  47.996  1.00  0.00     0.020 A 
ENDBRANCH  15  16
ENDBRANCH  12  15
ENDBRANCH   1  11
BRANCH   8  26
HETATM   26  C   UNL     1      27.848  42.849  54.089  1.00  0.00     0.270 C 
HETATM   27  N   UNL     1      26.573  42.815  54.585  1.00  0.00    -0.365 N 
HETATM   28  H   UNL     1      25.878  42.262  54.098  1.00  0.00     0.159 HD
HETATM   29  H   UNL     1      26.336  43.379  55.385  1.00  0.00     0.159 HD
HETATM   30  O   UNL     1      28.716  43.533  54.619  1.00  0.00    -0.266 OA
ENDBRANCH   8  26
TORSDOF 4
ENDMDL
