MODEL 1
REMARK VINA RESULT:     -11.6      0.000      0.000
REMARK  5 active torsions:
REMARK  status: ('A' for Active; 'I' for Inactive)
REMARK    1  A    between atoms: C_4  and  N_5 
REMARK       I    between atoms: N_5  and  C_6 
REMARK    2  A    between atoms: C_6  and  C_7 
REMARK    3  A    between atoms: C_8  and  N_9 
REMARK    4  A    between atoms: N_10  and  N_11 
REMARK    5  A    between atoms: C_12  and  C_13 
ROOT
HETATM    1  C   UNL     1      25.274  46.368  51.187  1.00  0.00     0.105 C 
HETATM    2  C   UNL     1      25.615  46.551  52.523  1.00  0.00     0.123 C 
HETATM    3  N   UNL     1      26.304  45.435  52.975  1.00  0.00    -0.202 N 
HETATM    4  C   UNL     1      26.192  44.444  52.018  1.00  0.00     0.183 A 
HETATM    5  C   UNL     1      25.574  45.004  50.902  1.00  0.00     0.124 A 
HETATM    6  N   UNL     1      25.338  44.254  49.794  1.00  0.00    -0.242 NA
HETATM    7  C   UNL     1      25.671  42.958  49.897  1.00  0.00     0.086 A 
HETATM    8  C   UNL     1      26.282  42.414  51.056  1.00  0.00     0.088 A 
HETATM    9  N   UNL     1      26.581  43.152  52.136  1.00  0.00    -0.225 NA
HETATM   10  C   UNL     1      25.390  42.114  48.829  1.00  0.00     0.034 A 
HETATM   11  C   UNL     1      25.680  40.749  48.879  1.00  0.00     0.002 A 
HETATM   12  C   UNL     1      26.274  40.217  50.015  1.00  0.00     0.002 A 
HETATM   13  C   UNL     1      26.573  41.056  51.089  1.00  0.00     0.034 A 
ENDROOT
BRANCH   1  14
HETATM   14  C   UNL     1      24.707  47.375  50.283  1.00  0.00     0.262 C 
HETATM   15  N   UNL     1      23.397  47.098  49.932  1.00  0.00    -0.323 N 
HETATM   16  H   UNL     1      23.021  46.241  50.333  1.00  0.00     0.169 HD
HETATM   17  O   UNL     1      25.350  48.345  49.900  1.00  0.00    -0.267 OA
BRANCH  15  18
HETATM   18  C   UNL     1      22.525  47.815  49.099  1.00  0.00     0.036 A 
HETATM   19  C   UNL     1      22.294  49.186  49.196  1.00  0.00     0.036 A 
HETATM   20  C   UNL     1      21.386  49.818  48.329  1.00  0.00    -0.059 A 
HETATM   21  C   UNL     1      21.135  51.292  48.453  1.00  0.00     0.048 C 
HETATM   22  C   UNL     1      20.752  49.069  47.328  1.00  0.00     0.013 A 
HETATM   23  C   UNL     1      20.971  47.693  47.220  1.00  0.00    -0.059 A 
HETATM   24  C   UNL     1      21.851  47.076  48.117  1.00  0.00     0.036 A 
HETATM   25  C   UNL     1      20.336  46.898  46.118  1.00  0.00     0.048 C 
ENDBRANCH  15  18
ENDBRANCH   1  14
BRANCH   2  26
HETATM   26  N   UNL     1      25.417  47.616  53.369  1.00  0.00    -0.286 NA
HETATM   27  H   UNL     1      24.910  47.392  54.230  1.00  0.00     0.125 HD
HETATM   28  H   UNL     1      26.304  48.048  53.665  1.00  0.00     0.125 HD
ENDBRANCH   2  26
BRANCH   3  29
HETATM   29  N   UNL     1      26.860  45.411  54.228  1.00  0.00    -0.176 NA
HETATM   30  C   UNL     1      28.136  45.608  54.268  1.00  0.00     0.153 C 
BRANCH  30  31
HETATM   31  C   UNL     1      28.789  45.619  55.562  1.00  0.00     0.011 A 
HETATM   32  C   UNL     1      29.866  44.781  55.999  1.00  0.00     0.004 A 
HETATM   33  C   UNL     1      30.188  45.163  57.303  1.00  0.00     0.043 A 
HETATM   34  C   UNL     1      30.615  43.746  55.400  1.00  0.00     0.014 A 
HETATM   35  C   UNL     1      31.217  44.562  58.037  1.00  0.00     0.030 A 
HETATM   36  N   UNL     1      29.334  46.183  57.650  1.00  0.00    -0.364 N 
HETATM   37  C   UNL     1      31.945  43.541  57.420  1.00  0.00     0.002 A 
HETATM   38  C   UNL     1      31.650  43.137  56.120  1.00  0.00     0.001 A 
HETATM   39  H   UNL     1      29.339  46.655  58.544  1.00  0.00     0.165 HD
HETATM   40  C   UNL     1      28.497  46.473  56.609  1.00  0.00     0.102 A 
ENDBRANCH  30  31
ENDBRANCH   3  29
TORSDOF 5
ENDMDL
MODEL 2
REMARK VINA RESULT:     -11.0      1.896      2.835
REMARK  5 active torsions:
REMARK  status: ('A' for Active; 'I' for Inactive)
REMARK    1  A    between atoms: C_4  and  N_5 
REMARK       I    between atoms: N_5  and  C_6 
REMARK    2  A    between atoms: C_6  and  C_7 
REMARK    3  A    between atoms: C_8  and  N_9 
REMARK    4  A    between atoms: N_10  and  N_11 
REMARK    5  A    between atoms: C_12  and  C_13 
ROOT
HETATM    1  C   UNL     1      24.311  46.704  49.816  1.00  0.00     0.105 C 
HETATM    2  C   UNL     1      25.351  46.596  50.733  1.00  0.00     0.123 C 
HETATM    3  N   UNL     1      25.959  45.357  50.588  1.00  0.00    -0.202 N 
HETATM    4  C   UNL     1      25.166  44.583  49.763  1.00  0.00     0.183 A 
HETATM    5  C   UNL     1      24.154  45.400  49.264  1.00  0.00     0.124 A 
HETATM    6  N   UNL     1      23.220  44.901  48.412  1.00  0.00    -0.242 NA
HETATM    7  C   UNL     1      23.314  43.585  48.165  1.00  0.00     0.086 A 
HETATM    8  C   UNL     1      24.347  42.776  48.705  1.00  0.00     0.088 A 
HETATM    9  N   UNL     1      25.315  43.263  49.497  1.00  0.00    -0.225 NA
HETATM   10  C   UNL     1      22.348  42.990  47.361  1.00  0.00     0.034 A 
HETATM   11  C   UNL     1      22.366  41.622  47.088  1.00  0.00     0.002 A 
HETATM   12  C   UNL     1      23.374  40.830  47.619  1.00  0.00     0.002 A 
HETATM   13  C   UNL     1      24.357  41.417  48.418  1.00  0.00     0.034 A 
ENDROOT
BRANCH   1  14
HETATM   14  C   UNL     1      23.536  47.913  49.510  1.00  0.00     0.262 C 
HETATM   15  N   UNL     1      22.233  47.630  49.139  1.00  0.00    -0.323 N 
HETATM   16  H   UNL     1      22.002  46.639  49.117  1.00  0.00     0.169 HD
HETATM   17  O   UNL     1      24.020  49.035  49.587  1.00  0.00    -0.267 OA
BRANCH  15  18
HETATM   18  C   UNL     1      21.198  48.506  48.778  1.00  0.00     0.036 A 
HETATM   19  C   UNL     1      20.831  49.635  49.508  1.00  0.00     0.036 A 
HETATM   20  C   UNL     1      19.766  50.444  49.080  1.00  0.00    -0.059 A 
HETATM   21  C   UNL     1      19.372  51.649  49.882  1.00  0.00     0.048 C 
HETATM   22  C   UNL     1      19.106  50.140  47.881  1.00  0.00     0.013 A 
HETATM   23  C   UNL     1      19.459  49.009  47.139  1.00  0.00    -0.059 A 
HETATM   24  C   UNL     1      20.499  48.194  47.603  1.00  0.00     0.036 A 
HETATM   25  C   UNL     1      18.792  48.709  45.831  1.00  0.00     0.048 C 
ENDBRANCH  15  18
ENDBRANCH   1  14
BRANCH   2  26
HETATM   26  N   UNL     1      25.844  47.491  51.652  1.00  0.00    -0.286 NA
HETATM   27  H   UNL     1      26.750  47.902  51.408  1.00  0.00     0.125 HD
HETATM   28  H   UNL     1      25.204  48.285  51.805  1.00  0.00     0.125 HD
ENDBRANCH   2  26
BRANCH   3  29
HETATM   29  N   UNL     1      27.093  45.043  51.293  1.00  0.00    -0.176 NA
HETATM   30  C   UNL     1      26.941  44.147  52.210  1.00  0.00     0.153 C 
BRANCH  30  31
HETATM   31  C   UNL     1      28.102  43.748  52.980  1.00  0.00     0.011 A 
HETATM   32  C   UNL     1      28.669  44.424  54.109  1.00  0.00     0.004 A 
HETATM   33  C   UNL     1      29.758  43.664  54.544  1.00  0.00     0.043 A 
HETATM   34  C   UNL     1      28.347  45.599  54.819  1.00  0.00     0.014 A 
HETATM   35  C   UNL     1      30.540  44.023  55.648  1.00  0.00     0.030 A 
HETATM   36  N   UNL     1      29.858  42.579  53.706  1.00  0.00    -0.364 N 
HETATM   37  C   UNL     1      30.198  45.190  56.335  1.00  0.00     0.002 A 
HETATM   38  C   UNL     1      29.117  45.969  55.928  1.00  0.00     0.001 A 
HETATM   39  H   UNL     1      30.560  41.856  53.785  1.00  0.00     0.165 HD
HETATM   40  C   UNL     1      28.862  42.612  52.770  1.00  0.00     0.102 A 
ENDBRANCH  30  31
ENDBRANCH   3  29
TORSDOF 5
ENDMDL
MODEL 3
REMARK VINA RESULT:     -11.0      2.196      9.710
REMARK  5 active torsions:
REMARK  status: ('A' for Active; 'I' for Inactive)
REMARK    1  A    between atoms: C_4  and  N_5 
REMARK       I    between atoms: N_5  and  C_6 
REMARK    2  A    between atoms: C_6  and  C_7 
REMARK    3  A    between atoms: C_8  and  N_9 
REMARK    4  A    between atoms: N_10  and  N_11 
REMARK    5  A    between atoms: C_12  and  C_13 
ROOT
HETATM    1  C   UNL     1      24.603  46.316  50.509  1.00  0.00     0.105 C 
HETATM    2  C   UNL     1      23.951  47.344  49.837  1.00  0.00     0.123 C 
HETATM    3  N   UNL     1      23.104  46.799  48.882  1.00  0.00    -0.202 N 
HETATM    4  C   UNL     1      23.393  45.452  48.771  1.00  0.00     0.183 A 
HETATM    5  C   UNL     1      24.303  45.132  49.775  1.00  0.00     0.124 A 
HETATM    6  N   UNL     1      24.764  43.860  49.911  1.00  0.00    -0.242 NA
HETATM    7  C   UNL     1      24.338  42.994  48.978  1.00  0.00     0.086 A 
HETATM    8  C   UNL     1      23.426  43.356  47.955  1.00  0.00     0.088 A 
HETATM    9  N   UNL     1      22.910  44.590  47.844  1.00  0.00    -0.225 NA
HETATM   10  C   UNL     1      24.827  41.693  49.010  1.00  0.00     0.034 A 
HETATM   11  C   UNL     1      24.452  40.747  48.054  1.00  0.00     0.002 A 
HETATM   12  C   UNL     1      23.563  41.104  47.051  1.00  0.00     0.002 A 
HETATM   13  C   UNL     1      23.054  42.404  47.015  1.00  0.00     0.034 A 
ENDROOT
BRANCH   1  14
HETATM   14  C   UNL     1      25.438  46.447  51.709  1.00  0.00     0.262 C 
HETATM   15  N   UNL     1      26.258  45.350  51.909  1.00  0.00    -0.323 N 
HETATM   16  H   UNL     1      26.159  44.612  51.215  1.00  0.00     0.169 HD
HETATM   17  O   UNL     1      25.392  47.434  52.432  1.00  0.00    -0.267 OA
BRANCH  15  18
HETATM   18  C   UNL     1      27.188  45.105  52.931  1.00  0.00     0.036 A 
HETATM   19  C   UNL     1      27.228  45.797  54.140  1.00  0.00     0.036 A 
HETATM   20  C   UNL     1      28.210  45.497  55.099  1.00  0.00    -0.059 A 
HETATM   21  C   UNL     1      28.251  46.258  56.392  1.00  0.00     0.048 C 
HETATM   22  C   UNL     1      29.119  44.459  54.855  1.00  0.00     0.013 A 
HETATM   23  C   UNL     1      29.095  43.758  53.647  1.00  0.00    -0.059 A 
HETATM   24  C   UNL     1      28.132  44.097  52.688  1.00  0.00     0.036 A 
HETATM   25  C   UNL     1      30.031  42.612  53.403  1.00  0.00     0.048 C 
ENDBRANCH  15  18
ENDBRANCH   1  14
BRANCH   2  26
HETATM   26  N   UNL     1      23.994  48.706  50.008  1.00  0.00    -0.286 NA
HETATM   27  H   UNL     1      23.095  49.138  50.243  1.00  0.00     0.125 HD
HETATM   28  H   UNL     1      24.647  48.986  50.754  1.00  0.00     0.125 HD
ENDBRANCH   2  26
BRANCH   3  29
HETATM   29  N   UNL     1      22.252  47.594  48.160  1.00  0.00    -0.176 NA
HETATM   30  C   UNL     1      21.013  47.543  48.522  1.00  0.00     0.153 C 
BRANCH  30  31
HETATM   31  C   UNL     1      20.058  48.375  47.818  1.00  0.00     0.011 A 
HETATM   32  C   UNL     1      19.743  49.748  48.079  1.00  0.00     0.004 A 
HETATM   33  C   UNL     1      18.791  50.143  47.137  1.00  0.00     0.043 A 
HETATM   34  C   UNL     1      20.196  50.703  49.014  1.00  0.00     0.014 A 
HETATM   35  C   UNL     1      18.267  51.441  47.086  1.00  0.00     0.030 A 
HETATM   36  N   UNL     1      18.526  49.052  46.344  1.00  0.00    -0.364 N 
HETATM   37  C   UNL     1      18.734  52.367  48.022  1.00  0.00     0.002 A 
HETATM   38  C   UNL     1      19.685  52.005  48.973  1.00  0.00     0.001 A 
HETATM   39  H   UNL     1      17.870  49.048  45.575  1.00  0.00     0.165 HD
HETATM   40  C   UNL     1      19.289  47.987  46.736  1.00  0.00     0.102 A 
ENDBRANCH  30  31
ENDBRANCH   3  29
TORSDOF 5
ENDMDL
MODEL 4
REMARK VINA RESULT:     -10.9      2.142      9.111
REMARK  5 active torsions:
REMARK  status: ('A' for Active; 'I' for Inactive)
REMARK    1  A    between atoms: C_4  and  N_5 
REMARK       I    between atoms: N_5  and  C_6 
REMARK    2  A    between atoms: C_6  and  C_7 
REMARK    3  A    between atoms: C_8  and  N_9 
REMARK    4  A    between atoms: N_10  and  N_11 
REMARK    5  A    between atoms: C_12  and  C_13 
ROOT
HETATM    1  C   UNL     1      27.241  43.642  52.124  1.00  0.00     0.105 C 
HETATM    2  C   UNL     1      26.645  44.766  51.563  1.00  0.00     0.123 C 
HETATM    3  N   UNL     1      26.202  44.458  50.284  1.00  0.00    -0.202 N 
HETATM    4  C   UNL     1      26.727  43.229  49.932  1.00  0.00     0.183 A 
HETATM    5  C   UNL     1      27.358  42.703  51.058  1.00  0.00     0.124 A 
HETATM    6  N   UNL     1      27.964  41.488  51.005  1.00  0.00    -0.242 NA
HETATM    7  C   UNL     1      27.966  40.899  49.799  1.00  0.00     0.086 A 
HETATM    8  C   UNL     1      27.332  41.471  48.667  1.00  0.00     0.088 A 
HETATM    9  N   UNL     1      26.673  42.640  48.714  1.00  0.00    -0.225 NA
HETATM   10  C   UNL     1      28.633  39.689  49.652  1.00  0.00     0.034 A 
HETATM   11  C   UNL     1      28.702  39.036  48.421  1.00  0.00     0.002 A 
HETATM   12  C   UNL     1      28.085  39.598  47.313  1.00  0.00     0.002 A 
HETATM   13  C   UNL     1      27.401  40.807  47.449  1.00  0.00     0.034 A 
ENDROOT
BRANCH   1  14
HETATM   14  C   UNL     1      27.671  43.483  53.517  1.00  0.00     0.262 C 
HETATM   15  N   UNL     1      28.661  44.383  53.874  1.00  0.00    -0.323 N 
HETATM   16  H   UNL     1      28.957  45.009  53.128  1.00  0.00     0.169 HD
HETATM   17  O   UNL     1      27.185  42.638  54.259  1.00  0.00    -0.267 OA
BRANCH  15  18
HETATM   18  C   UNL     1      29.320  44.544  55.103  1.00  0.00     0.036 A 
HETATM   19  C   UNL     1      30.464  43.843  55.480  1.00  0.00     0.036 A 
HETATM   20  C   UNL     1      31.045  44.056  56.741  1.00  0.00    -0.059 A 
HETATM   21  C   UNL     1      32.269  43.286  57.141  1.00  0.00     0.048 C 
HETATM   22  C   UNL     1      30.497  45.017  57.601  1.00  0.00     0.013 A 
HETATM   23  C   UNL     1      29.347  45.725  57.240  1.00  0.00    -0.059 A 
HETATM   24  C   UNL     1      28.762  45.472  55.993  1.00  0.00     0.036 A 
HETATM   25  C   UNL     1      28.788  46.792  58.133  1.00  0.00     0.048 C 
ENDBRANCH  15  18
ENDBRANCH   1  14
BRANCH   2  26
HETATM   26  N   UNL     1      26.413  46.019  52.078  1.00  0.00    -0.286 NA
HETATM   27  H   UNL     1      26.355  46.060  53.100  1.00  0.00     0.125 HD
HETATM   28  H   UNL     1      27.145  46.693  51.808  1.00  0.00     0.125 HD
ENDBRANCH   2  26
BRANCH   3  29
HETATM   29  N   UNL     1      25.468  45.360  49.556  1.00  0.00    -0.176 NA
HETATM   30  C   UNL     1      24.213  45.416  49.855  1.00  0.00     0.153 C 
BRANCH  30  31
HETATM   31  C   UNL     1      23.380  46.363  49.142  1.00  0.00     0.011 A 
HETATM   32  C   UNL     1      23.657  47.745  48.888  1.00  0.00     0.004 A 
HETATM   33  C   UNL     1      22.590  48.254  48.144  1.00  0.00     0.043 A 
HETATM   34  C   UNL     1      24.728  48.610  49.201  1.00  0.00     0.014 A 
HETATM   35  C   UNL     1      22.538  49.581  47.702  1.00  0.00     0.030 A 
HETATM   36  N   UNL     1      21.694  47.227  47.964  1.00  0.00    -0.364 N 
HETATM   37  C   UNL     1      23.612  50.415  48.024  1.00  0.00     0.002 A 
HETATM   38  C   UNL     1      24.692  49.939  48.762  1.00  0.00     0.001 A 
HETATM   39  H   UNL     1      20.822  47.310  47.459  1.00  0.00     0.165 HD
HETATM   40  C   UNL     1      22.162  46.083  48.549  1.00  0.00     0.102 A 
ENDBRANCH  30  31
ENDBRANCH   3  29
TORSDOF 5
ENDMDL
MODEL 5
REMARK VINA RESULT:     -10.9      3.584      7.635
REMARK  5 active torsions:
REMARK  status: ('A' for Active; 'I' for Inactive)
REMARK    1  A    between atoms: C_4  and  N_5 
REMARK       I    between atoms: N_5  and  C_6 
REMARK    2  A    between atoms: C_6  and  C_7 
REMARK    3  A    between atoms: C_8  and  N_9 
REMARK    4  A    between atoms: N_10  and  N_11 
REMARK    5  A    between atoms: C_12  and  C_13 
ROOT
HETATM    1  C   UNL     1      27.661  40.435  50.634  1.00  0.00     0.105 C 
HETATM    2  C   UNL     1      28.268  41.085  51.704  1.00  0.00     0.123 C 
HETATM    3  N   UNL     1      27.388  42.024  52.225  1.00  0.00    -0.202 N 
HETATM    4  C   UNL     1      26.326  42.149  51.349  1.00  0.00     0.183 A 
HETATM    5  C   UNL     1      26.468  41.168  50.371  1.00  0.00     0.124 A 
HETATM    6  N   UNL     1      25.555  41.051  49.371  1.00  0.00    -0.242 NA
HETATM    7  C   UNL     1      24.584  41.979  49.371  1.00  0.00     0.086 A 
HETATM    8  C   UNL     1      24.478  42.978  50.371  1.00  0.00     0.088 A 
HETATM    9  N   UNL     1      25.334  43.070  51.401  1.00  0.00    -0.225 NA
HETATM   10  C   UNL     1      23.656  41.967  48.335  1.00  0.00     0.034 A 
HETATM   11  C   UNL     1      22.639  42.919  48.254  1.00  0.00     0.002 A 
HETATM   12  C   UNL     1      22.539  43.899  49.231  1.00  0.00     0.002 A 
HETATM   13  C   UNL     1      23.456  43.914  50.283  1.00  0.00     0.034 A 
ENDROOT
BRANCH   1  14
HETATM   14  C   UNL     1      28.170  39.254  49.927  1.00  0.00     0.262 C 
HETATM   15  N   UNL     1      27.422  38.944  48.804  1.00  0.00    -0.323 N 
HETATM   16  H   UNL     1      26.629  39.560  48.637  1.00  0.00     0.169 HD
HETATM   17  O   UNL     1      29.153  38.634  50.312  1.00  0.00    -0.267 OA
BRANCH  15  18
HETATM   18  C   UNL     1      27.591  37.902  47.879  1.00  0.00     0.036 A 
HETATM   19  C   UNL     1      28.638  37.825  46.962  1.00  0.00     0.036 A 
HETATM   20  C   UNL     1      28.715  36.752  46.059  1.00  0.00    -0.059 A 
HETATM   21  C   UNL     1      29.840  36.688  45.068  1.00  0.00     0.048 C 
HETATM   22  C   UNL     1      27.759  35.729  46.119  1.00  0.00     0.013 A 
HETATM   23  C   UNL     1      26.701  35.793  47.029  1.00  0.00    -0.059 A 
HETATM   24  C   UNL     1      26.621  36.889  47.897  1.00  0.00     0.036 A 
HETATM   25  C   UNL     1      25.708  34.675  47.133  1.00  0.00     0.048 C 
ENDBRANCH  15  18
ENDBRANCH   1  14
BRANCH   2  26
HETATM   26  N   UNL     1      29.497  40.907  52.291  1.00  0.00    -0.286 NA
HETATM   27  H   UNL     1      29.931  41.764  52.647  1.00  0.00     0.125 HD
HETATM   28  H   UNL     1      29.457  40.257  53.089  1.00  0.00     0.125 HD
ENDBRANCH   2  26
BRANCH   3  29
HETATM   29  N   UNL     1      27.695  42.720  53.366  1.00  0.00    -0.176 NA
HETATM   30  C   UNL     1      28.313  43.839  53.178  1.00  0.00     0.153 C 
BRANCH  30  31
HETATM   31  C   UNL     1      28.650  44.640  54.337  1.00  0.00     0.011 A 
HETATM   32  C   UNL     1      29.623  44.342  55.346  1.00  0.00     0.004 A 
HETATM   33  C   UNL     1      29.625  45.407  56.249  1.00  0.00     0.043 A 
HETATM   34  C   UNL     1      30.521  43.276  55.566  1.00  0.00     0.014 A 
HETATM   35  C   UNL     1      30.475  45.458  57.360  1.00  0.00     0.030 A 
HETATM   36  N   UNL     1      28.683  46.310  55.816  1.00  0.00    -0.364 N 
HETATM   37  C   UNL     1      31.356  44.390  57.553  1.00  0.00     0.002 A 
HETATM   38  C   UNL     1      31.380  43.314  56.670  1.00  0.00     0.001 A 
HETATM   39  H   UNL     1      28.468  47.181  56.281  1.00  0.00     0.165 HD
HETATM   40  C   UNL     1      28.099  45.866  54.663  1.00  0.00     0.102 A 
ENDBRANCH  30  31
ENDBRANCH   3  29
TORSDOF 5
ENDMDL
MODEL 6
REMARK VINA RESULT:     -10.7      2.480      6.883
REMARK  5 active torsions:
REMARK  status: ('A' for Active; 'I' for Inactive)
REMARK    1  A    between atoms: C_4  and  N_5 
REMARK       I    between atoms: N_5  and  C_6 
REMARK    2  A    between atoms: C_6  and  C_7 
REMARK    3  A    between atoms: C_8  and  N_9 
REMARK    4  A    between atoms: N_10  and  N_11 
REMARK    5  A    between atoms: C_12  and  C_13 
ROOT
HETATM    1  C   UNL     1      26.627  44.574  51.367  1.00  0.00     0.105 C 
HETATM    2  C   UNL     1      27.005  43.657  50.392  1.00  0.00     0.123 C 
HETATM    3  N   UNL     1      27.936  42.779  50.928  1.00  0.00    -0.202 N 
HETATM    4  C   UNL     1      28.337  43.275  52.154  1.00  0.00     0.183 A 
HETATM    5  C   UNL     1      27.532  44.372  52.449  1.00  0.00     0.124 A 
HETATM    6  N   UNL     1      27.700  45.061  53.608  1.00  0.00    -0.242 NA
HETATM    7  C   UNL     1      28.722  44.651  54.376  1.00  0.00     0.086 A 
HETATM    8  C   UNL     1      29.537  43.541  54.037  1.00  0.00     0.088 A 
HETATM    9  N   UNL     1      29.346  42.809  52.928  1.00  0.00    -0.225 NA
HETATM   10  C   UNL     1      29.000  45.355  55.541  1.00  0.00     0.034 A 
HETATM   11  C   UNL     1      30.067  45.005  56.371  1.00  0.00     0.002 A 
HETATM   12  C   UNL     1      30.866  43.921  56.037  1.00  0.00     0.002 A 
HETATM   13  C   UNL     1      30.590  43.197  54.876  1.00  0.00     0.034 A 
ENDROOT
BRANCH   1  14
HETATM   14  C   UNL     1      25.535  45.551  51.273  1.00  0.00     0.262 C 
HETATM   15  N   UNL     1      25.235  45.889  49.965  1.00  0.00    -0.323 N 
HETATM   16  H   UNL     1      25.814  45.431  49.263  1.00  0.00     0.169 HD
HETATM   17  O   UNL     1      24.970  45.996  52.264  1.00  0.00    -0.267 OA
BRANCH  15  18
HETATM   18  C   UNL     1      24.266  46.776  49.473  1.00  0.00     0.036 A 
HETATM   19  C   UNL     1      24.418  48.161  49.428  1.00  0.00     0.036 A 
HETATM   20  C   UNL     1      23.384  48.975  48.936  1.00  0.00    -0.059 A 
HETATM   21  C   UNL     1      23.553  50.465  48.905  1.00  0.00     0.048 C 
HETATM   22  C   UNL     1      22.215  48.381  48.439  1.00  0.00     0.013 A 
HETATM   23  C   UNL     1      22.046  46.994  48.480  1.00  0.00    -0.059 A 
HETATM   24  C   UNL     1      23.073  46.204  49.009  1.00  0.00     0.036 A 
HETATM   25  C   UNL     1      20.821  46.352  47.902  1.00  0.00     0.048 C 
ENDBRANCH  15  18
ENDBRANCH   1  14
BRANCH   2  26
HETATM   26  N   UNL     1      26.582  43.490  49.095  1.00  0.00    -0.286 NA
HETATM   27  H   UNL     1      26.073  42.619  48.917  1.00  0.00     0.125 HD
HETATM   28  H   UNL     1      25.960  44.251  48.786  1.00  0.00     0.125 HD
ENDBRANCH   2  26
BRANCH   3  29
HETATM   29  N   UNL     1      28.382  41.700  50.209  1.00  0.00    -0.176 NA
HETATM   30  C   UNL     1      27.888  40.560  50.564  1.00  0.00     0.153 C 
BRANCH  30  31
HETATM   31  C   UNL     1      28.297  39.377  49.833  1.00  0.00     0.011 A 
HETATM   32  C   UNL     1      28.052  39.081  48.453  1.00  0.00     0.004 A 
HETATM   33  C   UNL     1      28.653  37.850  48.178  1.00  0.00     0.043 A 
HETATM   34  C   UNL     1      27.395  39.755  47.401  1.00  0.00     0.014 A 
HETATM   35  C   UNL     1      28.626  37.259  46.910  1.00  0.00     0.030 A 
HETATM   36  N   UNL     1      29.227  37.409  49.347  1.00  0.00    -0.364 N 
HETATM   37  C   UNL     1      27.971  37.948  45.886  1.00  0.00     0.002 A 
HETATM   38  C   UNL     1      27.364  39.179  46.126  1.00  0.00     0.001 A 
HETATM   39  H   UNL     1      29.734  36.539  49.443  1.00  0.00     0.165 HD
HETATM   40  C   UNL     1      29.031  38.322  50.345  1.00  0.00     0.102 A 
ENDBRANCH  30  31
ENDBRANCH   3  29
TORSDOF 5
ENDMDL
MODEL 7
REMARK VINA RESULT:     -10.6      2.641      4.936
REMARK  5 active torsions:
REMARK  status: ('A' for Active; 'I' for Inactive)
REMARK    1  A    between atoms: C_4  and  N_5 
REMARK       I    between atoms: N_5  and  C_6 
REMARK    2  A    between atoms: C_6  and  C_7 
REMARK    3  A    between atoms: C_8  and  N_9 
REMARK    4  A    between atoms: N_10  and  N_11 
REMARK    5  A    between atoms: C_12  and  C_13 
ROOT
HETATM    1  C   UNL     1      23.677  44.762  49.835  1.00  0.00     0.105 C 
HETATM    2  C   UNL     1      24.622  43.854  50.301  1.00  0.00     0.123 C 
HETATM    3  N   UNL     1      25.795  44.531  50.603  1.00  0.00    -0.202 N 
HETATM    4  C   UNL     1      25.690  45.816  50.104  1.00  0.00     0.183 A 
HETATM    5  C   UNL     1      24.386  45.982  49.641  1.00  0.00     0.124 A 
HETATM    6  N   UNL     1      23.992  47.164  49.097  1.00  0.00    -0.242 NA
HETATM    7  C   UNL     1      24.956  48.091  48.981  1.00  0.00     0.086 A 
HETATM    8  C   UNL     1      26.280  47.883  49.445  1.00  0.00     0.088 A 
HETATM    9  N   UNL     1      26.671  46.747  50.043  1.00  0.00    -0.225 NA
HETATM   10  C   UNL     1      24.644  49.298  48.365  1.00  0.00     0.034 A 
HETATM   11  C   UNL     1      25.603  50.295  48.183  1.00  0.00     0.002 A 
HETATM   12  C   UNL     1      26.898  50.089  48.634  1.00  0.00     0.002 A 
HETATM   13  C   UNL     1      27.222  48.887  49.265  1.00  0.00     0.034 A 
ENDROOT
BRANCH   1  14
HETATM   14  C   UNL     1      22.256  44.494  49.584  1.00  0.00     0.262 C 
HETATM   15  N   UNL     1      21.765  45.202  48.500  1.00  0.00    -0.323 N 
HETATM   16  H   UNL     1      22.443  45.811  48.046  1.00  0.00     0.169 HD
HETATM   17  O   UNL     1      21.605  43.720  50.274  1.00  0.00    -0.267 OA
BRANCH  15  18
HETATM   18  C   UNL     1      20.473  45.213  47.953  1.00  0.00     0.036 A 
HETATM   19  C   UNL     1      20.072  44.435  46.868  1.00  0.00     0.036 A 
HETATM   20  C   UNL     1      18.760  44.527  46.374  1.00  0.00    -0.059 A 
HETATM   21  C   UNL     1      18.343  43.695  45.198  1.00  0.00     0.048 C 
HETATM   22  C   UNL     1      17.839  45.369  47.012  1.00  0.00     0.013 A 
HETATM   23  C   UNL     1      18.226  46.158  48.098  1.00  0.00    -0.059 A 
HETATM   24  C   UNL     1      19.548  46.080  48.553  1.00  0.00     0.036 A 
HETATM   25  C   UNL     1      17.232  47.020  48.816  1.00  0.00     0.048 C 
ENDBRANCH  15  18
ENDBRANCH   1  14
BRANCH   2  26
HETATM   26  N   UNL     1      24.542  42.501  50.527  1.00  0.00    -0.286 NA
HETATM   27  H   UNL     1      23.996  41.981  49.833  1.00  0.00     0.125 HD
HETATM   28  H   UNL     1      25.470  42.054  50.551  1.00  0.00     0.125 HD
ENDBRANCH   2  26
BRANCH   3  29
HETATM   29  N   UNL     1      26.848  43.885  51.197  1.00  0.00    -0.176 NA
HETATM   30  C   UNL     1      27.329  44.465  52.246  1.00  0.00     0.153 C 
BRANCH  30  31
HETATM   31  C   UNL     1      28.430  43.826  52.939  1.00  0.00     0.011 A 
HETATM   32  C   UNL     1      29.049  44.247  54.161  1.00  0.00     0.004 A 
HETATM   33  C   UNL     1      30.045  43.316  54.465  1.00  0.00     0.043 A 
HETATM   34  C   UNL     1      28.843  45.322  55.051  1.00  0.00     0.014 A 
HETATM   35  C   UNL     1      30.844  43.407  55.611  1.00  0.00     0.030 A 
HETATM   36  N   UNL     1      30.041  42.374  53.464  1.00  0.00    -0.364 N 
HETATM   37  C   UNL     1      30.617  44.480  56.477  1.00  0.00     0.002 A 
HETATM   38  C   UNL     1      29.631  45.425  56.204  1.00  0.00     0.001 A 
HETATM   39  H   UNL     1      30.662  41.577  53.424  1.00  0.00     0.165 HD
HETATM   40  C   UNL     1      29.068  42.663  52.547  1.00  0.00     0.102 A 
ENDBRANCH  30  31
ENDBRANCH   3  29
TORSDOF 5
ENDMDL
MODEL 8
REMARK VINA RESULT:     -10.5      2.299      9.416
REMARK  5 active torsions:
REMARK  status: ('A' for Active; 'I' for Inactive)
REMARK    1  A    between atoms: C_4  and  N_5 
REMARK       I    between atoms: N_5  and  C_6 
REMARK    2  A    between atoms: C_6  and  C_7 
REMARK    3  A    between atoms: C_8  and  N_9 
REMARK    4  A    between atoms: N_10  and  N_11 
REMARK    5  A    between atoms: C_12  and  C_13 
ROOT
HETATM    1  C   UNL     1      25.675  43.635  50.814  1.00  0.00     0.105 C 
HETATM    2  C   UNL     1      24.740  44.524  50.295  1.00  0.00     0.123 C 
HETATM    3  N   UNL     1      24.968  45.786  50.825  1.00  0.00    -0.202 N 
HETATM    4  C   UNL     1      25.876  45.661  51.859  1.00  0.00     0.183 A 
HETATM    5  C   UNL     1      26.336  44.345  51.858  1.00  0.00     0.124 A 
HETATM    6  N   UNL     1      27.252  43.933  52.773  1.00  0.00    -0.242 NA
HETATM    7  C   UNL     1      27.603  44.852  53.687  1.00  0.00     0.086 A 
HETATM    8  C   UNL     1      27.101  46.178  53.672  1.00  0.00     0.088 A 
HETATM    9  N   UNL     1      26.245  46.622  52.739  1.00  0.00    -0.225 NA
HETATM   10  C   UNL     1      28.480  44.479  54.699  1.00  0.00     0.034 A 
HETATM   11  C   UNL     1      28.864  45.372  55.700  1.00  0.00     0.002 A 
HETATM   12  C   UNL     1      28.370  46.668  55.687  1.00  0.00     0.002 A 
HETATM   13  C   UNL     1      27.498  47.059  54.670  1.00  0.00     0.034 A 
ENDROOT
BRANCH   1  14
HETATM   14  C   UNL     1      25.904  42.253  50.378  1.00  0.00     0.262 C 
HETATM   15  N   UNL     1      27.243  41.980  50.157  1.00  0.00    -0.323 N 
HETATM   16  H   UNL     1      27.869  42.767  50.311  1.00  0.00     0.169 HD
HETATM   17  O   UNL     1      24.988  41.452  50.238  1.00  0.00    -0.267 OA
BRANCH  15  18
HETATM   18  C   UNL     1      27.853  40.787  49.738  1.00  0.00     0.036 A 
HETATM   19  C   UNL     1      28.554  39.924  50.580  1.00  0.00     0.036 A 
HETATM   20  C   UNL     1      29.150  38.760  50.068  1.00  0.00    -0.059 A 
HETATM   21  C   UNL     1      29.913  37.846  50.981  1.00  0.00     0.048 C 
HETATM   22  C   UNL     1      28.992  38.442  48.712  1.00  0.00     0.013 A 
HETATM   23  C   UNL     1      28.296  39.298  47.855  1.00  0.00    -0.059 A 
HETATM   24  C   UNL     1      27.740  40.472  48.376  1.00  0.00     0.036 A 
HETATM   25  C   UNL     1      28.079  38.936  46.416  1.00  0.00     0.048 C 
ENDBRANCH  15  18
ENDBRANCH   1  14
BRANCH   2  26
HETATM   26  N   UNL     1      23.738  44.346  49.372  1.00  0.00    -0.286 NA
HETATM   27  H   UNL     1      23.918  44.766  48.455  1.00  0.00     0.125 HD
HETATM   28  H   UNL     1      23.543  43.350  49.195  1.00  0.00     0.125 HD
ENDBRANCH   2  26
BRANCH   3  29
HETATM   29  N   UNL     1      24.259  46.874  50.383  1.00  0.00    -0.176 NA
HETATM   30  C   UNL     1      24.815  47.544  49.429  1.00  0.00     0.153 C 
BRANCH  30  31
HETATM   31  C   UNL     1      24.112  48.693  48.897  1.00  0.00     0.011 A 
HETATM   32  C   UNL     1      22.718  48.791  48.585  1.00  0.00     0.004 A 
HETATM   33  C   UNL     1      22.483  50.089  48.126  1.00  0.00     0.043 A 
HETATM   34  C   UNL     1      21.624  47.904  48.670  1.00  0.00     0.014 A 
HETATM   35  C   UNL     1      21.215  50.543  47.747  1.00  0.00     0.030 A 
HETATM   36  N   UNL     1      23.688  50.750  48.145  1.00  0.00    -0.364 N 
HETATM   37  C   UNL     1      20.148  49.644  47.843  1.00  0.00     0.002 A 
HETATM   38  C   UNL     1      20.348  48.343  48.298  1.00  0.00     0.001 A 
HETATM   39  H   UNL     1      23.819  51.713  47.863  1.00  0.00     0.165 HD
HETATM   40  C   UNL     1      24.672  49.927  48.617  1.00  0.00     0.102 A 
ENDBRANCH  30  31
ENDBRANCH   3  29
TORSDOF 5
ENDMDL
MODEL 9
REMARK VINA RESULT:     -10.5      3.290      5.741
REMARK  5 active torsions:
REMARK  status: ('A' for Active; 'I' for Inactive)
REMARK    1  A    between atoms: C_4  and  N_5 
REMARK       I    between atoms: N_5  and  C_6 
REMARK    2  A    between atoms: C_6  and  C_7 
REMARK    3  A    between atoms: C_8  and  N_9 
REMARK    4  A    between atoms: N_10  and  N_11 
REMARK    5  A    between atoms: C_12  and  C_13 
ROOT
HETATM    1  C   UNL     1      22.350  46.301  49.067  1.00  0.00     0.105 C 
HETATM    2  C   UNL     1      22.732  45.048  49.536  1.00  0.00     0.123 C 
HETATM    3  N   UNL     1      24.015  45.127  50.058  1.00  0.00    -0.202 N 
HETATM    4  C   UNL     1      24.547  46.353  49.705  1.00  0.00     0.183 A 
HETATM    5  C   UNL     1      23.532  47.097  49.107  1.00  0.00     0.124 A 
HETATM    6  N   UNL     1      23.770  48.358  48.662  1.00  0.00    -0.242 NA
HETATM    7  C   UNL     1      25.040  48.777  48.777  1.00  0.00     0.086 A 
HETATM    8  C   UNL     1      26.056  47.987  49.373  1.00  0.00     0.088 A 
HETATM    9  N   UNL     1      25.826  46.764  49.876  1.00  0.00    -0.225 NA
HETATM   10  C   UNL     1      25.374  50.029  48.274  1.00  0.00     0.034 A 
HETATM   11  C   UNL     1      26.681  50.515  48.330  1.00  0.00     0.002 A 
HETATM   12  C   UNL     1      27.675  49.740  48.910  1.00  0.00     0.002 A 
HETATM   13  C   UNL     1      27.351  48.486  49.430  1.00  0.00     0.034 A 
ENDROOT
BRANCH   1  14
HETATM   14  C   UNL     1      21.012  46.694  48.613  1.00  0.00     0.262 C 
HETATM   15  N   UNL     1      20.691  47.993  48.967  1.00  0.00    -0.323 N 
HETATM   16  H   UNL     1      21.410  48.480  49.498  1.00  0.00     0.169 HD
HETATM   17  O   UNL     1      20.285  45.933  47.987  1.00  0.00    -0.267 OA
BRANCH  15  18
HETATM   18  C   UNL     1      19.518  48.722  48.716  1.00  0.00     0.036 A 
HETATM   19  C   UNL     1      18.257  48.152  48.548  1.00  0.00     0.036 A 
HETATM   20  C   UNL     1      17.141  48.961  48.279  1.00  0.00    -0.059 A 
HETATM   21  C   UNL     1      15.791  48.335  48.087  1.00  0.00     0.048 C 
HETATM   22  C   UNL     1      17.292  50.354  48.232  1.00  0.00     0.013 A 
HETATM   23  C   UNL     1      18.550  50.941  48.395  1.00  0.00    -0.059 A 
HETATM   24  C   UNL     1      19.657  50.115  48.625  1.00  0.00     0.036 A 
HETATM   25  C   UNL     1      18.708  52.432  48.398  1.00  0.00     0.048 C 
ENDBRANCH  15  18
ENDBRANCH   1  14
BRANCH   2  26
HETATM   26  N   UNL     1      22.050  43.856  49.589  1.00  0.00    -0.286 NA
HETATM   27  H   UNL     1      21.215  43.812  48.998  1.00  0.00     0.125 HD
HETATM   28  H   UNL     1      22.638  43.057  49.309  1.00  0.00     0.125 HD
ENDBRANCH   2  26
BRANCH   3  29
HETATM   29  N   UNL     1      24.583  44.055  50.697  1.00  0.00    -0.176 NA
HETATM   30  C   UNL     1      25.613  43.545  50.106  1.00  0.00     0.153 C 
BRANCH  30  31
HETATM   31  C   UNL     1      26.279  42.422  50.736  1.00  0.00     0.011 A 
HETATM   32  C   UNL     1      27.458  42.456  51.548  1.00  0.00     0.004 A 
HETATM   33  C   UNL     1      27.718  41.146  51.959  1.00  0.00     0.043 A 
HETATM   34  C   UNL     1      28.320  43.481  51.994  1.00  0.00     0.014 A 
HETATM   35  C   UNL     1      28.795  40.811  52.788  1.00  0.00     0.030 A 
HETATM   36  N   UNL     1      26.744  40.347  51.409  1.00  0.00    -0.364 N 
HETATM   37  C   UNL     1      29.631  41.845  53.217  1.00  0.00     0.002 A 
HETATM   38  C   UNL     1      29.399  43.162  52.826  1.00  0.00     0.001 A 
HETATM   39  H   UNL     1      26.683  39.346  51.539  1.00  0.00     0.165 HD
HETATM   40  C   UNL     1      25.867  41.102  50.681  1.00  0.00     0.102 A 
ENDBRANCH  30  31
ENDBRANCH   3  29
TORSDOF 5
ENDMDL
MODEL 10
REMARK VINA RESULT:     -10.5      2.163      6.300
REMARK  5 active torsions:
REMARK  status: ('A' for Active; 'I' for Inactive)
REMARK    1  A    between atoms: C_4  and  N_5 
REMARK       I    between atoms: N_5  and  C_6 
REMARK    2  A    between atoms: C_6  and  C_7 
REMARK    3  A    between atoms: C_8  and  N_9 
REMARK    4  A    between atoms: N_10  and  N_11 
REMARK    5  A    between atoms: C_12  and  C_13 
ROOT
HETATM    1  C   UNL     1      24.491  46.441  50.220  1.00  0.00     0.105 C 
HETATM    2  C   UNL     1      24.576  45.170  49.660  1.00  0.00     0.123 C 
HETATM    3  N   UNL     1      25.099  44.292  50.599  1.00  0.00    -0.202 N 
HETATM    4  C   UNL     1      25.575  45.034  51.663  1.00  0.00     0.183 A 
HETATM    5  C   UNL     1      25.197  46.359  51.455  1.00  0.00     0.124 A 
HETATM    6  N   UNL     1      25.528  47.322  52.355  1.00  0.00    -0.242 NA
HETATM    7  C   UNL     1      26.288  46.909  53.382  1.00  0.00     0.086 A 
HETATM    8  C   UNL     1      26.674  45.555  53.554  1.00  0.00     0.088 A 
HETATM    9  N   UNL     1      26.303  44.580  52.711  1.00  0.00    -0.225 NA
HETATM   10  C   UNL     1      26.728  47.853  54.302  1.00  0.00     0.034 A 
HETATM   11  C   UNL     1      27.547  47.501  55.377  1.00  0.00     0.002 A 
HETATM   12  C   UNL     1      27.927  46.177  55.542  1.00  0.00     0.002 A 
HETATM   13  C   UNL     1      27.482  45.217  54.632  1.00  0.00     0.034 A 
ENDROOT
BRANCH   1  14
HETATM   14  C   UNL     1      23.826  47.611  49.636  1.00  0.00     0.262 C 
HETATM   15  N   UNL     1      22.536  47.336  49.217  1.00  0.00    -0.323 N 
HETATM   16  H   UNL     1      22.238  46.373  49.358  1.00  0.00     0.169 HD
HETATM   17  O   UNL     1      24.380  48.699  49.545  1.00  0.00    -0.267 OA
BRANCH  15  18
HETATM   18  C   UNL     1      21.592  48.185  48.618  1.00  0.00     0.036 A 
HETATM   19  C   UNL     1      21.420  49.528  48.948  1.00  0.00     0.036 A 
HETATM   20  C   UNL     1      20.434  50.297  48.307  1.00  0.00    -0.059 A 
HETATM   21  C   UNL     1      20.250  51.739  48.680  1.00  0.00     0.048 C 
HETATM   22  C   UNL     1      19.657  49.719  47.294  1.00  0.00     0.013 A 
HETATM   23  C   UNL     1      19.815  48.373  46.955  1.00  0.00    -0.059 A 
HETATM   24  C   UNL     1      20.777  47.613  47.630  1.00  0.00     0.036 A 
HETATM   25  C   UNL     1      19.023  47.764  45.836  1.00  0.00     0.048 C 
ENDBRANCH  15  18
ENDBRANCH   1  14
BRANCH   2  26
HETATM   26  N   UNL     1      24.201  44.699  48.425  1.00  0.00    -0.286 NA
HETATM   27  H   UNL     1      24.462  45.301  47.638  1.00  0.00     0.125 HD
HETATM   28  H   UNL     1      24.607  43.774  48.221  1.00  0.00     0.125 HD
ENDBRANCH   2  26
BRANCH   3  29
HETATM   29  N   UNL     1      25.174  42.947  50.340  1.00  0.00    -0.176 NA
HETATM   30  C   UNL     1      26.340  42.519  49.989  1.00  0.00     0.153 C 
BRANCH  30  31
HETATM   31  C   UNL     1      26.500  41.103  49.722  1.00  0.00     0.011 A 
HETATM   32  C   UNL     1      27.027  40.497  48.536  1.00  0.00     0.004 A 
HETATM   33  C   UNL     1      27.017  39.115  48.735  1.00  0.00     0.043 A 
HETATM   34  C   UNL     1      27.536  40.994  47.317  1.00  0.00     0.014 A 
HETATM   35  C   UNL     1      27.484  38.207  47.778  1.00  0.00     0.030 A 
HETATM   36  N   UNL     1      26.492  38.888  49.985  1.00  0.00    -0.364 N 
HETATM   37  C   UNL     1      27.984  38.725  46.581  1.00  0.00     0.002 A 
HETATM   38  C   UNL     1      28.011  40.099  46.351  1.00  0.00     0.001 A 
HETATM   39  H   UNL     1      26.364  37.973  50.396  1.00  0.00     0.165 HD
HETATM   40  C   UNL     1      26.188  40.075  50.593  1.00  0.00     0.102 A 
ENDBRANCH  30  31
ENDBRANCH   3  29
TORSDOF 5
ENDMDL
