MODEL 1
REMARK VINA RESULT:      -8.5      0.000      0.000
REMARK  8 active torsions:
REMARK  status: ('A' for Active; 'I' for Inactive)
REMARK    1  A    between atoms: C_2  and  O_3 
REMARK    2  A    between atoms: O_3  and  C_4 
REMARK    3  A    between atoms: C_4  and  C_5 
REMARK    4  A    between atoms: C_6  and  C_8 
REMARK    5  A    between atoms: C_6  and  O_7 
REMARK    6  A    between atoms: C_16  and  C_17 
REMARK    7  A    between atoms: C_18  and  C_19 
REMARK    8  A    between atoms: N_26  and  C_27 
ROOT
HETATM    1  C   UNL     1      20.185  45.954  47.385  1.00  0.00     0.177 C 
HETATM    2  C   UNL     1      18.821  45.273  47.205  1.00  0.00     0.250 C 
HETATM    3  N   UNL     1      17.926  45.692  48.271  1.00  0.00    -0.303 N 
HETATM    4  C   UNL     1      17.836  46.972  48.693  1.00  0.00     0.319 C 
HETATM    5  O   UNL     1      16.871  47.367  49.331  1.00  0.00    -0.247 OA
HETATM    6  N   UNL     1      18.889  47.772  48.423  1.00  0.00    -0.333 N 
HETATM    7  C   UNL     1      19.968  47.466  47.503  1.00  0.00     0.142 C 
HETATM    8  H   UNL     1      17.056  45.179  48.378  1.00  0.00     0.167 HD
HETATM    9  H   UNL     1      18.765  48.730  48.731  1.00  0.00     0.165 HD
ENDROOT
BRANCH   7  10
HETATM   10  C   UNL     1      21.166  48.227  48.000  1.00  0.00     0.015 A 
HETATM   11  C   UNL     1      21.235  49.589  48.429  1.00  0.00     0.097 A 
HETATM   12  N   UNL     1      22.487  49.924  48.766  1.00  0.00    -0.167 NA
HETATM   13  N   UNL     1      23.232  48.812  48.594  1.00  0.00    -0.244 N 
HETATM   14  C   UNL     1      22.462  47.763  48.147  1.00  0.00     0.130 A 
BRANCH  11  15
HETATM   15  C   UNL     1      20.165  50.584  48.524  1.00  0.00    -0.005 A 
HETATM   16  C   UNL     1      19.511  51.062  47.381  1.00  0.00     0.014 A 
HETATM   17  C   UNL     1      18.496  52.016  47.493  1.00  0.00     0.001 A 
HETATM   18  C   UNL     1      18.115  52.487  48.748  1.00  0.00     0.000 A 
HETATM   19  C   UNL     1      18.744  52.003  49.893  1.00  0.00     0.001 A 
HETATM   20  C   UNL     1      19.763  51.055  49.782  1.00  0.00     0.014 A 
ENDBRANCH  11  15
BRANCH  13  21
HETATM   21  C   UNL     1      24.631  48.826  48.857  1.00  0.00     0.058 A 
HETATM   22  C   UNL     1      25.430  49.823  48.274  1.00  0.00     0.031 A 
HETATM   23  C   UNL     1      26.806  49.852  48.509  1.00  0.00     0.002 A 
HETATM   24  C   UNL     1      27.395  48.890  49.326  1.00  0.00     0.000 A 
HETATM   25  C   UNL     1      26.610  47.897  49.909  1.00  0.00     0.002 A 
HETATM   26  C   UNL     1      25.231  47.862  49.680  1.00  0.00     0.031 A 
ENDBRANCH  13  21
ENDBRANCH   7  10
BRANCH   1  27
HETATM   27  C   UNL     1      21.115  45.651  46.234  1.00  0.00     0.270 C 
HETATM   28  O   UNL     1      21.366  46.427  45.324  1.00  0.00    -0.265 OA
BRANCH  27  29
HETATM   29  O   UNL     1      21.641  44.405  46.363  1.00  0.00    -0.321 OA
BRANCH  29  30
HETATM   30  C   UNL     1      23.074  44.321  46.437  1.00  0.00     0.174 C 
HETATM   31  C   UNL     1      23.556  44.178  47.869  1.00  0.00     0.034 C 
ENDBRANCH  29  30
ENDBRANCH  27  29
ENDBRANCH   1  27
BRANCH   2  32
HETATM   32  C   UNL     1      18.187  45.506  45.782  1.00  0.00     0.439 C 
HETATM   33  F   UNL     1      18.746  44.722  44.836  1.00  0.00    -0.166 F 
HETATM   34  F   UNL     1      16.859  45.225  45.802  1.00  0.00    -0.166 F 
HETATM   35  F   UNL     1      18.310  46.788  45.376  1.00  0.00    -0.166 F 
ENDBRANCH   2  32
BRANCH   2  36
HETATM   36  O   UNL     1      18.957  43.873  47.476  1.00  0.00    -0.363 OA
HETATM   37  H   UNL     1      18.051  43.519  47.486  1.00  0.00     0.213 HD
ENDBRANCH   2  36
TORSDOF 8
ENDMDL
MODEL 2
REMARK VINA RESULT:      -8.5      3.337      6.254
REMARK  8 active torsions:
REMARK  status: ('A' for Active; 'I' for Inactive)
REMARK    1  A    between atoms: C_2  and  O_3 
REMARK    2  A    between atoms: O_3  and  C_4 
REMARK    3  A    between atoms: C_4  and  C_5 
REMARK    4  A    between atoms: C_6  and  C_8 
REMARK    5  A    between atoms: C_6  and  O_7 
REMARK    6  A    between atoms: C_16  and  C_17 
REMARK    7  A    between atoms: C_18  and  C_19 
REMARK    8  A    between atoms: N_26  and  C_27 
ROOT
HETATM    1  C   UNL     1      18.855  49.522  48.194  1.00  0.00     0.177 C 
HETATM    2  C   UNL     1      18.159  50.541  49.107  1.00  0.00     0.250 C 
HETATM    3  N   UNL     1      17.849  49.917  50.382  1.00  0.00    -0.303 N 
HETATM    4  C   UNL     1      18.717  49.115  51.037  1.00  0.00     0.319 C 
HETATM    5  O   UNL     1      18.591  48.877  52.229  1.00  0.00    -0.247 OA
HETATM    6  N   UNL     1      19.693  48.550  50.296  1.00  0.00    -0.333 N 
HETATM    7  C   UNL     1      20.054  48.930  48.943  1.00  0.00     0.142 C 
HETATM    8  H   UNL     1      17.228  50.419  51.009  1.00  0.00     0.167 HD
HETATM    9  H   UNL     1      20.338  47.981  50.833  1.00  0.00     0.165 HD
ENDROOT
BRANCH   7  10
HETATM   10  C   UNL     1      20.636  47.698  48.306  1.00  0.00     0.015 A 
HETATM   11  C   UNL     1      22.007  47.406  48.033  1.00  0.00     0.097 A 
HETATM   12  N   UNL     1      22.134  46.221  47.420  1.00  0.00    -0.167 NA
HETATM   13  N   UNL     1      20.885  45.722  47.309  1.00  0.00    -0.244 N 
HETATM   14  C   UNL     1      19.957  46.582  47.849  1.00  0.00     0.130 A 
BRANCH  11  15
HETATM   15  C   UNL     1      23.199  48.205  48.322  1.00  0.00    -0.005 A 
HETATM   16  C   UNL     1      23.358  49.494  47.796  1.00  0.00     0.014 A 
HETATM   17  C   UNL     1      24.505  50.239  48.080  1.00  0.00     0.001 A 
HETATM   18  C   UNL     1      25.496  49.710  48.905  1.00  0.00     0.000 A 
HETATM   19  C   UNL     1      25.340  48.437  49.451  1.00  0.00     0.001 A 
HETATM   20  C   UNL     1      24.196  47.690  49.163  1.00  0.00     0.014 A 
ENDBRANCH  11  15
BRANCH  13  21
HETATM   21  C   UNL     1      20.658  44.462  46.686  1.00  0.00     0.058 A 
HETATM   22  C   UNL     1      21.625  43.450  46.810  1.00  0.00     0.031 A 
HETATM   23  C   UNL     1      21.430  42.210  46.199  1.00  0.00     0.002 A 
HETATM   24  C   UNL     1      20.273  41.968  45.463  1.00  0.00     0.000 A 
HETATM   25  C   UNL     1      19.308  42.966  45.335  1.00  0.00     0.002 A 
HETATM   26  C   UNL     1      19.495  44.211  45.945  1.00  0.00     0.031 A 
ENDBRANCH  13  21
ENDBRANCH   7  10
BRANCH   1  27
HETATM   27  C   UNL     1      19.312  50.154  46.900  1.00  0.00     0.270 C 
HETATM   28  O   UNL     1      20.459  50.505  46.669  1.00  0.00    -0.265 OA
BRANCH  27  29
HETATM   29  O   UNL     1      18.273  50.260  46.031  1.00  0.00    -0.321 OA
BRANCH  29  30
HETATM   30  C   UNL     1      17.625  49.033  45.658  1.00  0.00     0.174 C 
HETATM   31  C   UNL     1      18.507  48.180  44.764  1.00  0.00     0.034 C 
ENDBRANCH  29  30
ENDBRANCH  27  29
ENDBRANCH   1  27
BRANCH   2  32
HETATM   32  C   UNL     1      18.973  51.877  49.291  1.00  0.00     0.439 C 
HETATM   33  F   UNL     1      18.864  52.696  48.223  1.00  0.00    -0.166 F 
HETATM   34  F   UNL     1      18.521  52.565  50.370  1.00  0.00    -0.166 F 
HETATM   35  F   UNL     1      20.287  51.646  49.497  1.00  0.00    -0.166 F 
ENDBRANCH   2  32
BRANCH   2  36
HETATM   36  O   UNL     1      16.850  50.813  48.593  1.00  0.00    -0.363 OA
HETATM   37  H   UNL     1      16.870  50.535  47.662  1.00  0.00     0.213 HD
ENDBRANCH   2  36
TORSDOF 8
ENDMDL
MODEL 3
REMARK VINA RESULT:      -8.1      4.028      5.948
REMARK  8 active torsions:
REMARK  status: ('A' for Active; 'I' for Inactive)
REMARK    1  A    between atoms: C_2  and  O_3 
REMARK    2  A    between atoms: O_3  and  C_4 
REMARK    3  A    between atoms: C_4  and  C_5 
REMARK    4  A    between atoms: C_6  and  C_8 
REMARK    5  A    between atoms: C_6  and  O_7 
REMARK    6  A    between atoms: C_16  and  C_17 
REMARK    7  A    between atoms: C_18  and  C_19 
REMARK    8  A    between atoms: N_26  and  C_27 
ROOT
HETATM    1  C   UNL     1      24.107  43.625  49.682  1.00  0.00     0.177 C 
HETATM    2  C   UNL     1      23.036  43.086  48.723  1.00  0.00     0.250 C 
HETATM    3  N   UNL     1      21.820  43.869  48.867  1.00  0.00    -0.303 N 
HETATM    4  C   UNL     1      21.822  45.217  48.967  1.00  0.00     0.319 C 
HETATM    5  O   UNL     1      20.815  45.875  48.750  1.00  0.00    -0.247 OA
HETATM    6  N   UNL     1      22.975  45.790  49.374  1.00  0.00    -0.333 N 
HETATM    7  C   UNL     1      24.265  45.130  49.447  1.00  0.00     0.142 C 
HETATM    8  H   UNL     1      20.978  43.509  48.428  1.00  0.00     0.167 HD
HETATM    9  H   UNL     1      22.939  46.802  49.406  1.00  0.00     0.165 HD
ENDROOT
BRANCH   7  10
HETATM   10  C   UNL     1      25.037  45.848  50.521  1.00  0.00     0.015 A 
HETATM   11  C   UNL     1      25.451  47.215  50.550  1.00  0.00     0.097 A 
HETATM   12  N   UNL     1      26.156  47.480  51.658  1.00  0.00    -0.167 NA
HETATM   13  N   UNL     1      26.190  46.330  52.365  1.00  0.00    -0.244 N 
HETATM   14  C   UNL     1      25.509  45.328  51.713  1.00  0.00     0.130 A 
BRANCH  11  15
HETATM   15  C   UNL     1      25.214  48.275  49.569  1.00  0.00    -0.005 A 
HETATM   16  C   UNL     1      23.916  48.710  49.266  1.00  0.00     0.014 A 
HETATM   17  C   UNL     1      23.710  49.720  48.323  1.00  0.00     0.001 A 
HETATM   18  C   UNL     1      24.798  50.315  47.687  1.00  0.00     0.000 A 
HETATM   19  C   UNL     1      26.094  49.906  47.996  1.00  0.00     0.001 A 
HETATM   20  C   UNL     1      26.300  48.893  48.934  1.00  0.00     0.014 A 
ENDBRANCH  11  15
BRANCH  13  21
HETATM   21  C   UNL     1      26.878  46.262  53.609  1.00  0.00     0.058 A 
HETATM   22  C   UNL     1      27.564  45.085  53.951  1.00  0.00     0.031 A 
HETATM   23  C   UNL     1      28.238  44.990  55.170  1.00  0.00     0.002 A 
HETATM   24  C   UNL     1      28.235  46.065  56.055  1.00  0.00     0.000 A 
HETATM   25  C   UNL     1      27.556  47.238  55.724  1.00  0.00     0.002 A 
HETATM   26  C   UNL     1      26.880  47.341  54.504  1.00  0.00     0.031 A 
ENDBRANCH  13  21
ENDBRANCH   7  10
BRANCH   1  27
HETATM   27  C   UNL     1      25.432  42.926  49.486  1.00  0.00     0.270 C 
HETATM   28  O   UNL     1      26.395  43.417  48.917  1.00  0.00    -0.265 OA
BRANCH  27  29
HETATM   29  O   UNL     1      25.404  41.688  50.044  1.00  0.00    -0.321 OA
BRANCH  29  30
HETATM   30  C   UNL     1      26.677  41.095  50.348  1.00  0.00     0.174 C 
HETATM   31  C   UNL     1      27.200  41.548  51.699  1.00  0.00     0.034 C 
ENDBRANCH  29  30
ENDBRANCH  27  29
ENDBRANCH   1  27
BRANCH   2  32
HETATM   32  C   UNL     1      23.515  43.016  47.224  1.00  0.00     0.439 C 
HETATM   33  F   UNL     1      24.424  42.039  47.021  1.00  0.00    -0.166 F 
HETATM   34  F   UNL     1      22.465  42.764  46.401  1.00  0.00    -0.166 F 
HETATM   35  F   UNL     1      24.064  44.179  46.813  1.00  0.00    -0.166 F 
ENDBRANCH   2  32
BRANCH   2  36
HETATM   36  O   UNL     1      22.604  41.798  49.178  1.00  0.00    -0.363 OA
HETATM   37  H   UNL     1      22.076  41.965  49.977  1.00  0.00     0.213 HD
ENDBRANCH   2  36
TORSDOF 8
ENDMDL
MODEL 4
REMARK VINA RESULT:      -8.0      5.431      8.568
REMARK  8 active torsions:
REMARK  status: ('A' for Active; 'I' for Inactive)
REMARK    1  A    between atoms: C_2  and  O_3 
REMARK    2  A    between atoms: O_3  and  C_4 
REMARK    3  A    between atoms: C_4  and  C_5 
REMARK    4  A    between atoms: C_6  and  C_8 
REMARK    5  A    between atoms: C_6  and  O_7 
REMARK    6  A    between atoms: C_16  and  C_17 
REMARK    7  A    between atoms: C_18  and  C_19 
REMARK    8  A    between atoms: N_26  and  C_27 
ROOT
HETATM    1  C   UNL     1      25.672  43.904  51.429  1.00  0.00     0.177 C 
HETATM    2  C   UNL     1      26.774  42.861  51.658  1.00  0.00     0.250 C 
HETATM    3  N   UNL     1      26.956  42.074  50.449  1.00  0.00    -0.303 N 
HETATM    4  C   UNL     1      26.983  42.622  49.214  1.00  0.00     0.319 C 
HETATM    5  O   UNL     1      27.461  42.024  48.261  1.00  0.00    -0.247 OA
HETATM    6  N   UNL     1      26.405  43.834  49.079  1.00  0.00    -0.333 N 
HETATM    7  C   UNL     1      26.009  44.707  50.168  1.00  0.00     0.142 C 
HETATM    8  H   UNL     1      27.522  41.234  50.520  1.00  0.00     0.167 HD
HETATM    9  H   UNL     1      26.475  44.219  48.143  1.00  0.00     0.165 HD
ENDROOT
BRANCH   7  10
HETATM   10  C   UNL     1      24.872  45.539  49.640  1.00  0.00     0.015 A 
HETATM   11  C   UNL     1      23.764  45.120  48.841  1.00  0.00     0.097 A 
HETATM   12  N   UNL     1      22.975  46.157  48.532  1.00  0.00    -0.167 NA
HETATM   13  N   UNL     1      23.523  47.236  49.130  1.00  0.00    -0.244 N 
HETATM   14  C   UNL     1      24.662  46.895  49.821  1.00  0.00     0.130 A 
BRANCH  11  15
HETATM   15  C   UNL     1      23.429  43.780  48.354  1.00  0.00    -0.005 A 
HETATM   16  C   UNL     1      23.064  42.754  49.235  1.00  0.00     0.014 A 
HETATM   17  C   UNL     1      22.752  41.481  48.751  1.00  0.00     0.001 A 
HETATM   18  C   UNL     1      22.787  41.227  47.381  1.00  0.00     0.000 A 
HETATM   19  C   UNL     1      23.128  42.246  46.493  1.00  0.00     0.001 A 
HETATM   20  C   UNL     1      23.445  43.516  46.977  1.00  0.00     0.014 A 
ENDBRANCH  11  15
BRANCH  13  21
HETATM   21  C   UNL     1      22.929  48.523  48.992  1.00  0.00     0.058 A 
HETATM   22  C   UNL     1      21.533  48.649  49.084  1.00  0.00     0.031 A 
HETATM   23  C   UNL     1      20.927  49.898  48.943  1.00  0.00     0.002 A 
HETATM   24  C   UNL     1      21.705  51.030  48.710  1.00  0.00     0.000 A 
HETATM   25  C   UNL     1      23.091  50.914  48.618  1.00  0.00     0.002 A 
HETATM   26  C   UNL     1      23.706  49.666  48.760  1.00  0.00     0.031 A 
ENDBRANCH  13  21
ENDBRANCH   7  10
BRANCH   1  27
HETATM   27  C   UNL     1      25.528  44.832  52.612  1.00  0.00     0.270 C 
HETATM   28  O   UNL     1      24.914  44.561  53.633  1.00  0.00    -0.265 OA
BRANCH  27  29
HETATM   29  O   UNL     1      26.190  45.997  52.386  1.00  0.00    -0.321 OA
BRANCH  29  30
HETATM   30  C   UNL     1      25.949  47.060  53.322  1.00  0.00     0.174 C 
HETATM   31  C   UNL     1      27.127  47.265  54.256  1.00  0.00     0.034 C 
ENDBRANCH  29  30
ENDBRANCH  27  29
ENDBRANCH   1  27
BRANCH   2  32
HETATM   32  C   UNL     1      28.131  43.483  52.161  1.00  0.00     0.439 C 
HETATM   33  F   UNL     1      28.061  43.901  53.443  1.00  0.00    -0.166 F 
HETATM   34  F   UNL     1      29.129  42.566  52.093  1.00  0.00    -0.166 F 
HETATM   35  F   UNL     1      28.516  44.536  51.409  1.00  0.00    -0.166 F 
ENDBRANCH   2  32
BRANCH   2  36
HETATM   36  O   UNL     1      26.300  41.871  52.578  1.00  0.00    -0.363 OA
HETATM   37  H   UNL     1      27.007  41.764  53.236  1.00  0.00     0.213 HD
ENDBRANCH   2  36
TORSDOF 8
ENDMDL
MODEL 5
REMARK VINA RESULT:      -7.9      4.363      7.277
REMARK  8 active torsions:
REMARK  status: ('A' for Active; 'I' for Inactive)
REMARK    1  A    between atoms: C_2  and  O_3 
REMARK    2  A    between atoms: O_3  and  C_4 
REMARK    3  A    between atoms: C_4  and  C_5 
REMARK    4  A    between atoms: C_6  and  C_8 
REMARK    5  A    between atoms: C_6  and  O_7 
REMARK    6  A    between atoms: C_16  and  C_17 
REMARK    7  A    between atoms: C_18  and  C_19 
REMARK    8  A    between atoms: N_26  and  C_27 
ROOT
HETATM    1  C   UNL     1      24.113  44.616  50.588  1.00  0.00     0.177 C 
HETATM    2  C   UNL     1      24.785  43.247  50.415  1.00  0.00     0.250 C 
HETATM    3  N   UNL     1      24.294  42.616  49.201  1.00  0.00    -0.303 N 
HETATM    4  C   UNL     1      24.134  43.287  48.039  1.00  0.00     0.319 C 
HETATM    5  O   UNL     1      24.050  42.699  46.970  1.00  0.00    -0.247 OA
HETATM    6  N   UNL     1      24.015  44.628  48.128  1.00  0.00    -0.333 N 
HETATM    7  C   UNL     1      24.310  45.426  49.303  1.00  0.00     0.142 C 
HETATM    8  H   UNL     1      24.516  41.635  49.063  1.00  0.00     0.167 HD
HETATM    9  H   UNL     1      23.926  45.092  47.230  1.00  0.00     0.165 HD
ENDROOT
BRANCH   7  10
HETATM   10  C   UNL     1      23.442  46.650  49.202  1.00  0.00     0.015 A 
HETATM   11  C   UNL     1      23.846  48.017  49.094  1.00  0.00     0.097 A 
HETATM   12  N   UNL     1      22.783  48.831  49.066  1.00  0.00    -0.167 NA
HETATM   13  N   UNL     1      21.696  48.033  49.126  1.00  0.00    -0.244 N 
HETATM   14  C   UNL     1      22.059  46.708  49.193  1.00  0.00     0.130 A 
BRANCH  11  15
HETATM   15  C   UNL     1      25.195  48.580  49.024  1.00  0.00    -0.005 A 
HETATM   16  C   UNL     1      26.299  47.894  49.549  1.00  0.00     0.014 A 
HETATM   17  C   UNL     1      27.579  48.450  49.476  1.00  0.00     0.001 A 
HETATM   18  C   UNL     1      27.769  49.689  48.867  1.00  0.00     0.000 A 
HETATM   19  C   UNL     1      26.681  50.371  48.323  1.00  0.00     0.001 A 
HETATM   20  C   UNL     1      25.402  49.818  48.399  1.00  0.00     0.014 A 
ENDBRANCH  11  15
BRANCH  13  21
HETATM   21  C   UNL     1      20.385  48.587  49.126  1.00  0.00     0.058 A 
HETATM   22  C   UNL     1      20.225  49.971  49.305  1.00  0.00     0.031 A 
HETATM   23  C   UNL     1      18.948  50.537  49.318  1.00  0.00     0.002 A 
HETATM   24  C   UNL     1      17.825  49.731  49.154  1.00  0.00     0.000 A 
HETATM   25  C   UNL     1      17.975  48.356  48.975  1.00  0.00     0.002 A 
HETATM   26  C   UNL     1      19.250  47.782  48.959  1.00  0.00     0.031 A 
ENDBRANCH  13  21
ENDBRANCH   7  10
BRANCH   1  27
HETATM   27  C   UNL     1      24.681  45.370  51.769  1.00  0.00     0.270 C 
HETATM   28  O   UNL     1      25.166  46.489  51.706  1.00  0.00    -0.265 OA
BRANCH  27  29
HETATM   29  O   UNL     1      24.560  44.634  52.904  1.00  0.00    -0.321 OA
BRANCH  29  30
HETATM   30  C   UNL     1      25.447  44.974  53.983  1.00  0.00     0.174 C 
HETATM   31  C   UNL     1      25.849  43.752  54.788  1.00  0.00     0.034 C 
ENDBRANCH  29  30
ENDBRANCH  27  29
ENDBRANCH   1  27
BRANCH   2  32
HETATM   32  C   UNL     1      26.359  43.312  50.446  1.00  0.00     0.439 C 
HETATM   33  F   UNL     1      26.861  43.039  51.669  1.00  0.00    -0.166 F 
HETATM   34  F   UNL     1      26.889  42.407  49.584  1.00  0.00    -0.166 F 
HETATM   35  F   UNL     1      26.824  44.524  50.075  1.00  0.00    -0.166 F 
ENDBRANCH   2  32
BRANCH   2  36
HETATM   36  O   UNL     1      24.296  42.354  51.423  1.00  0.00    -0.363 OA
HETATM   37  H   UNL     1      25.060  41.816  51.690  1.00  0.00     0.213 HD
ENDBRANCH   2  36
TORSDOF 8
ENDMDL
MODEL 6
REMARK VINA RESULT:      -7.9      4.703      8.391
REMARK  8 active torsions:
REMARK  status: ('A' for Active; 'I' for Inactive)
REMARK    1  A    between atoms: C_2  and  O_3 
REMARK    2  A    between atoms: O_3  and  C_4 
REMARK    3  A    between atoms: C_4  and  C_5 
REMARK    4  A    between atoms: C_6  and  C_8 
REMARK    5  A    between atoms: C_6  and  O_7 
REMARK    6  A    between atoms: C_16  and  C_17 
REMARK    7  A    between atoms: C_18  and  C_19 
REMARK    8  A    between atoms: N_26  and  C_27 
ROOT
HETATM    1  C   UNL     1      16.474  51.425  46.343  1.00  0.00     0.177 C 
HETATM    2  C   UNL     1      16.332  50.140  45.515  1.00  0.00     0.250 C 
HETATM    3  N   UNL     1      16.471  48.985  46.386  1.00  0.00    -0.303 N 
HETATM    4  C   UNL     1      15.886  48.907  47.601  1.00  0.00     0.319 C 
HETATM    5  O   UNL     1      15.728  47.834  48.166  1.00  0.00    -0.247 OA
HETATM    6  N   UNL     1      15.541  50.077  48.180  1.00  0.00    -0.333 N 
HETATM    7  C   UNL     1      15.490  51.365  47.516  1.00  0.00     0.142 C 
HETATM    8  H   UNL     1      16.581  48.078  45.943  1.00  0.00     0.167 HD
HETATM    9  H   UNL     1      15.079  49.969  49.077  1.00  0.00     0.165 HD
ENDROOT
BRANCH   7  10
HETATM   10  C   UNL     1      15.736  52.394  48.585  1.00  0.00     0.015 A 
HETATM   11  C   UNL     1      16.910  52.584  49.378  1.00  0.00     0.097 A 
HETATM   12  N   UNL     1      16.741  53.580  50.257  1.00  0.00    -0.167 NA
HETATM   13  N   UNL     1      15.498  54.062  50.042  1.00  0.00    -0.244 N 
HETATM   14  C   UNL     1      14.870  53.378  49.028  1.00  0.00     0.130 A 
BRANCH  11  15
HETATM   15  C   UNL     1      18.180  51.856  49.339  1.00  0.00    -0.005 A 
HETATM   16  C   UNL     1      18.372  50.686  50.086  1.00  0.00     0.014 A 
HETATM   17  C   UNL     1      19.594  50.009  50.040  1.00  0.00     0.001 A 
HETATM   18  C   UNL     1      20.627  50.486  49.236  1.00  0.00     0.000 A 
HETATM   19  C   UNL     1      20.440  51.637  48.472  1.00  0.00     0.001 A 
HETATM   20  C   UNL     1      19.222  52.317  48.522  1.00  0.00     0.014 A 
ENDBRANCH  11  15
BRANCH  13  21
HETATM   21  C   UNL     1      14.989  55.135  50.827  1.00  0.00     0.058 A 
HETATM   22  C   UNL     1      15.293  56.457  50.462  1.00  0.00     0.031 A 
HETATM   23  C   UNL     1      14.814  57.527  51.221  1.00  0.00     0.002 A 
HETATM   24  C   UNL     1      14.030  57.288  52.347  1.00  0.00     0.000 A 
HETATM   25  C   UNL     1      13.723  55.979  52.716  1.00  0.00     0.002 A 
HETATM   26  C   UNL     1      14.198  54.902  51.960  1.00  0.00     0.031 A 
ENDBRANCH  13  21
ENDBRANCH   7  10
BRANCH   1  27
HETATM   27  C   UNL     1      16.213  52.657  45.509  1.00  0.00     0.270 C 
HETATM   28  O   UNL     1      15.206  53.344  45.585  1.00  0.00    -0.265 OA
BRANCH  27  29
HETATM   29  O   UNL     1      17.261  52.899  44.678  1.00  0.00    -0.321 OA
BRANCH  29  30
HETATM   30  C   UNL     1      16.961  53.598  43.459  1.00  0.00     0.174 C 
HETATM   31  C   UNL     1      17.478  52.854  42.241  1.00  0.00     0.034 C 
ENDBRANCH  29  30
ENDBRANCH  27  29
ENDBRANCH   1  27
BRANCH   2  32
HETATM   32  C   UNL     1      15.003  50.082  44.672  1.00  0.00     0.439 C 
HETATM   33  F   UNL     1      15.080  50.813  43.539  1.00  0.00    -0.166 F 
HETATM   34  F   UNL     1      14.728  48.804  44.305  1.00  0.00    -0.166 F 
HETATM   35  F   UNL     1      13.937  50.525  45.372  1.00  0.00    -0.166 F 
ENDBRANCH   2  32
BRANCH   2  36
HETATM   36  O   UNL     1      17.477  50.001  44.666  1.00  0.00    -0.363 OA
HETATM   37  H   UNL     1      17.187  50.293  43.785  1.00  0.00     0.213 HD
ENDBRANCH   2  36
TORSDOF 8
ENDMDL
MODEL 7
REMARK VINA RESULT:      -7.7      3.770      7.215
REMARK  8 active torsions:
REMARK  status: ('A' for Active; 'I' for Inactive)
REMARK    1  A    between atoms: C_2  and  O_3 
REMARK    2  A    between atoms: O_3  and  C_4 
REMARK    3  A    between atoms: C_4  and  C_5 
REMARK    4  A    between atoms: C_6  and  C_8 
REMARK    5  A    between atoms: C_6  and  O_7 
REMARK    6  A    between atoms: C_16  and  C_17 
REMARK    7  A    between atoms: C_18  and  C_19 
REMARK    8  A    between atoms: N_26  and  C_27 
ROOT
HETATM    1  C   UNL     1      16.156  49.039  47.144  1.00  0.00     0.177 C 
HETATM    2  C   UNL     1      16.211  48.236  45.837  1.00  0.00     0.250 C 
HETATM    3  N   UNL     1      15.824  49.090  44.727  1.00  0.00    -0.303 N 
HETATM    4  C   UNL     1      16.260  50.363  44.594  1.00  0.00     0.319 C 
HETATM    5  O   UNL     1      16.210  50.945  43.520  1.00  0.00    -0.247 OA
HETATM    6  N   UNL     1      16.696  50.971  45.716  1.00  0.00    -0.333 N 
HETATM    7  C   UNL     1      16.993  50.311  46.974  1.00  0.00     0.142 C 
HETATM    8  H   UNL     1      15.641  48.642  43.835  1.00  0.00     0.167 HD
HETATM    9  H   UNL     1      17.041  51.913  45.564  1.00  0.00     0.165 HD
ENDROOT
BRANCH   7  10
HETATM   10  C   UNL     1      16.775  51.344  48.046  1.00  0.00     0.015 A 
HETATM   11  C   UNL     1      17.719  51.855  48.988  1.00  0.00     0.097 A 
HETATM   12  N   UNL     1      17.144  52.738  49.815  1.00  0.00    -0.167 NA
HETATM   13  N   UNL     1      15.856  52.837  49.421  1.00  0.00    -0.244 N 
HETATM   14  C   UNL     1      15.604  52.019  48.344  1.00  0.00     0.130 A 
BRANCH  11  15
HETATM   15  C   UNL     1      19.140  51.535  49.141  1.00  0.00    -0.005 A 
HETATM   16  C   UNL     1      20.017  51.574  48.049  1.00  0.00     0.014 A 
HETATM   17  C   UNL     1      21.369  51.261  48.215  1.00  0.00     0.001 A 
HETATM   18  C   UNL     1      21.858  50.922  49.475  1.00  0.00     0.000 A 
HETATM   19  C   UNL     1      20.999  50.901  50.572  1.00  0.00     0.001 A 
HETATM   20  C   UNL     1      19.648  51.208  50.406  1.00  0.00     0.014 A 
ENDBRANCH  11  15
BRANCH  13  21
HETATM   21  C   UNL     1      14.950  53.696  50.104  1.00  0.00     0.058 A 
HETATM   22  C   UNL     1      13.667  53.903  49.575  1.00  0.00     0.031 A 
HETATM   23  C   UNL     1      12.764  54.749  50.222  1.00  0.00     0.002 A 
HETATM   24  C   UNL     1      13.133  55.394  51.400  1.00  0.00     0.000 A 
HETATM   25  C   UNL     1      14.405  55.194  51.933  1.00  0.00     0.002 A 
HETATM   26  C   UNL     1      15.315  54.347  51.291  1.00  0.00     0.031 A 
ENDBRANCH  13  21
ENDBRANCH   7  10
BRANCH   1  27
HETATM   27  C   UNL     1      16.670  48.233  48.314  1.00  0.00     0.270 C 
HETATM   28  O   UNL     1      16.052  47.328  48.855  1.00  0.00    -0.265 OA
BRANCH  27  29
HETATM   29  O   UNL     1      17.916  48.646  48.666  1.00  0.00    -0.321 OA
BRANCH  29  30
HETATM   30  C   UNL     1      18.757  47.668  49.298  1.00  0.00     0.174 C 
HETATM   31  C   UNL     1      20.166  47.688  48.733  1.00  0.00     0.034 C 
ENDBRANCH  29  30
ENDBRANCH  27  29
ENDBRANCH   1  27
BRANCH   2  32
HETATM   32  C   UNL     1      17.603  47.542  45.585  1.00  0.00     0.439 C 
HETATM   33  F   UNL     1      18.641  48.361  45.852  1.00  0.00    -0.166 F 
HETATM   34  F   UNL     1      17.740  46.450  46.379  1.00  0.00    -0.166 F 
HETATM   35  F   UNL     1      17.734  47.117  44.310  1.00  0.00    -0.166 F 
ENDBRANCH   2  32
BRANCH   2  36
HETATM   36  O   UNL     1      15.155  47.268  45.837  1.00  0.00    -0.363 OA
HETATM   37  H   UNL     1      14.449  47.649  45.288  1.00  0.00     0.213 HD
ENDBRANCH   2  36
TORSDOF 8
ENDMDL
MODEL 8
REMARK VINA RESULT:      -7.7      5.234      8.361
REMARK  8 active torsions:
REMARK  status: ('A' for Active; 'I' for Inactive)
REMARK    1  A    between atoms: C_2  and  O_3 
REMARK    2  A    between atoms: O_3  and  C_4 
REMARK    3  A    between atoms: C_4  and  C_5 
REMARK    4  A    between atoms: C_6  and  C_8 
REMARK    5  A    between atoms: C_6  and  O_7 
REMARK    6  A    between atoms: C_16  and  C_17 
REMARK    7  A    between atoms: C_18  and  C_19 
REMARK    8  A    between atoms: N_26  and  C_27 
ROOT
HETATM    1  C   UNL     1      25.420  44.024  51.420  1.00  0.00     0.177 C 
HETATM    2  C   UNL     1      26.576  43.041  51.654  1.00  0.00     0.250 C 
HETATM    3  N   UNL     1      26.779  42.238  50.459  1.00  0.00    -0.303 N 
HETATM    4  C   UNL     1      26.761  42.759  49.213  1.00  0.00     0.319 C 
HETATM    5  O   UNL     1      27.254  42.164  48.266  1.00  0.00    -0.247 OA
HETATM    6  N   UNL     1      26.122  43.939  49.061  1.00  0.00    -0.333 N 
HETATM    7  C   UNL     1      25.699  44.815  50.137  1.00  0.00     0.142 C 
HETATM    8  H   UNL     1      27.386  41.429  50.539  1.00  0.00     0.167 HD
HETATM    9  H   UNL     1      26.160  44.306  48.116  1.00  0.00     0.165 HD
ENDROOT
BRANCH   7  10
HETATM   10  C   UNL     1      24.516  45.578  49.610  1.00  0.00     0.015 A 
HETATM   11  C   UNL     1      24.462  46.938  49.174  1.00  0.00     0.097 A 
HETATM   12  N   UNL     1      23.218  47.276  48.807  1.00  0.00    -0.167 NA
HETATM   13  N   UNL     1      22.466  46.167  48.967  1.00  0.00    -0.244 N 
HETATM   14  C   UNL     1      23.222  45.118  49.436  1.00  0.00     0.130 A 
BRANCH  11  15
HETATM   15  C   UNL     1      25.537  47.929  49.098  1.00  0.00    -0.005 A 
HETATM   16  C   UNL     1      26.834  47.631  49.537  1.00  0.00     0.014 A 
HETATM   17  C   UNL     1      27.845  48.593  49.460  1.00  0.00     0.001 A 
HETATM   18  C   UNL     1      27.573  49.853  48.931  1.00  0.00     0.000 A 
HETATM   19  C   UNL     1      26.292  50.153  48.472  1.00  0.00     0.001 A 
HETATM   20  C   UNL     1      25.280  49.195  48.553  1.00  0.00     0.014 A 
ENDBRANCH  11  15
BRANCH  13  21
HETATM   21  C   UNL     1      21.073  46.185  48.673  1.00  0.00     0.058 A 
HETATM   22  C   UNL     1      20.364  47.394  48.775  1.00  0.00     0.031 A 
HETATM   23  C   UNL     1      18.996  47.435  48.500  1.00  0.00     0.002 A 
HETATM   24  C   UNL     1      18.325  46.275  48.123  1.00  0.00     0.000 A 
HETATM   25  C   UNL     1      19.020  45.071  48.018  1.00  0.00     0.002 A 
HETATM   26  C   UNL     1      20.391  45.022  48.290  1.00  0.00     0.031 A 
ENDBRANCH  13  21
ENDBRANCH   7  10
BRANCH   1  27
HETATM   27  C   UNL     1      25.248  44.969  52.586  1.00  0.00     0.270 C 
HETATM   28  O   UNL     1      24.782  44.654  53.670  1.00  0.00    -0.265 OA
BRANCH  27  29
HETATM   29  O   UNL     1      25.699  46.210  52.262  1.00  0.00    -0.321 OA
BRANCH  29  30
HETATM   30  C   UNL     1      25.692  47.187  53.316  1.00  0.00     0.174 C 
HETATM   31  C   UNL     1      27.024  47.242  54.041  1.00  0.00     0.034 C 
ENDBRANCH  29  30
ENDBRANCH  27  29
ENDBRANCH   1  27
BRANCH   2  32
HETATM   32  C   UNL     1      27.908  43.740  52.123  1.00  0.00     0.439 C 
HETATM   33  F   UNL     1      27.853  44.137  53.412  1.00  0.00    -0.166 F 
HETATM   34  F   UNL     1      28.957  42.887  52.011  1.00  0.00    -0.166 F 
HETATM   35  F   UNL     1      28.203  44.824  51.373  1.00  0.00    -0.166 F 
ENDBRANCH   2  32
BRANCH   2  36
HETATM   36  O   UNL     1      26.164  42.050  52.602  1.00  0.00    -0.363 OA
HETATM   37  H   UNL     1      26.899  41.968  53.232  1.00  0.00     0.213 HD
ENDBRANCH   2  36
TORSDOF 8
ENDMDL
MODEL 9
REMARK VINA RESULT:      -7.7      6.746      9.999
REMARK  8 active torsions:
REMARK  status: ('A' for Active; 'I' for Inactive)
REMARK    1  A    between atoms: C_2  and  O_3 
REMARK    2  A    between atoms: O_3  and  C_4 
REMARK    3  A    between atoms: C_4  and  C_5 
REMARK    4  A    between atoms: C_6  and  C_8 
REMARK    5  A    between atoms: C_6  and  O_7 
REMARK    6  A    between atoms: C_16  and  C_17 
REMARK    7  A    between atoms: C_18  and  C_19 
REMARK    8  A    between atoms: N_26  and  C_27 
ROOT
HETATM    1  C   UNL     1      27.889  41.217  49.612  1.00  0.00     0.177 C 
HETATM    2  C   UNL     1      28.413  39.805  49.912  1.00  0.00     0.250 C 
HETATM    3  N   UNL     1      28.923  39.757  51.272  1.00  0.00    -0.303 N 
HETATM    4  C   UNL     1      28.282  40.324  52.317  1.00  0.00     0.319 C 
HETATM    5  O   UNL     1      28.528  39.999  53.470  1.00  0.00    -0.247 OA
HETATM    6  N   UNL     1      27.401  41.304  52.024  1.00  0.00    -0.333 N 
HETATM    7  C   UNL     1      26.887  41.611  50.702  1.00  0.00     0.142 C 
HETATM    8  H   UNL     1      29.464  38.940  51.538  1.00  0.00     0.167 HD
HETATM    9  H   UNL     1      26.922  41.680  52.835  1.00  0.00     0.165 HD
ENDROOT
BRANCH   7  10
HETATM   10  C   UNL     1      26.536  43.073  50.722  1.00  0.00     0.015 A 
HETATM   11  C   UNL     1      27.038  44.093  51.588  1.00  0.00     0.097 A 
HETATM   12  N   UNL     1      26.458  45.272  51.329  1.00  0.00    -0.167 NA
HETATM   13  N   UNL     1      25.611  45.055  50.300  1.00  0.00    -0.244 N 
HETATM   14  C   UNL     1      25.646  43.740  49.899  1.00  0.00     0.130 A 
BRANCH  11  15
HETATM   15  C   UNL     1      28.036  43.993  52.654  1.00  0.00    -0.005 A 
HETATM   16  C   UNL     1      27.746  44.396  53.965  1.00  0.00     0.014 A 
HETATM   17  C   UNL     1      28.715  44.296  54.967  1.00  0.00     0.001 A 
HETATM   18  C   UNL     1      29.975  43.780  54.672  1.00  0.00     0.000 A 
HETATM   19  C   UNL     1      30.268  43.356  53.377  1.00  0.00     0.001 A 
HETATM   20  C   UNL     1      29.303  43.460  52.374  1.00  0.00     0.014 A 
ENDBRANCH  11  15
BRANCH  13  21
HETATM   21  C   UNL     1      24.818  46.115  49.776  1.00  0.00     0.058 A 
HETATM   22  C   UNL     1      25.296  47.433  49.851  1.00  0.00     0.031 A 
HETATM   23  C   UNL     1      24.532  48.490  49.353  1.00  0.00     0.002 A 
HETATM   24  C   UNL     1      23.289  48.242  48.776  1.00  0.00     0.000 A 
HETATM   25  C   UNL     1      22.807  46.936  48.697  1.00  0.00     0.002 A 
HETATM   26  C   UNL     1      23.567  45.872  49.192  1.00  0.00     0.031 A 
ENDBRANCH  13  21
ENDBRANCH   7  10
BRANCH   1  27
HETATM   27  C   UNL     1      27.233  41.290  48.253  1.00  0.00     0.270 C 
HETATM   28  O   UNL     1      26.026  41.296  48.067  1.00  0.00    -0.265 OA
BRANCH  27  29
HETATM   29  O   UNL     1      28.173  41.364  47.275  1.00  0.00    -0.321 OA
BRANCH  29  30
HETATM   30  C   UNL     1      27.735  41.048  45.943  1.00  0.00     0.174 C 
HETATM   31  C   UNL     1      28.155  39.649  45.529  1.00  0.00     0.034 C 
ENDBRANCH  29  30
ENDBRANCH  27  29
ENDBRANCH   1  27
BRANCH   2  32
HETATM   32  C   UNL     1      27.353  38.672  49.643  1.00  0.00     0.439 C 
HETATM   33  F   UNL     1      26.141  38.970  50.157  1.00  0.00    -0.166 F 
HETATM   34  F   UNL     1      27.186  38.484  48.309  1.00  0.00    -0.166 F 
HETATM   35  F   UNL     1      27.736  37.485  50.160  1.00  0.00    -0.166 F 
ENDBRANCH   2  32
BRANCH   2  36
HETATM   36  O   UNL     1      29.604  39.576  49.149  1.00  0.00    -0.363 OA
HETATM   37  H   UNL     1      29.705  38.610  49.104  1.00  0.00     0.213 HD
ENDBRANCH   2  36
TORSDOF 8
ENDMDL
MODEL 10
REMARK VINA RESULT:      -7.4      2.283      5.584
REMARK  8 active torsions:
REMARK  status: ('A' for Active; 'I' for Inactive)
REMARK    1  A    between atoms: C_2  and  O_3 
REMARK    2  A    between atoms: O_3  and  C_4 
REMARK    3  A    between atoms: C_4  and  C_5 
REMARK    4  A    between atoms: C_6  and  C_8 
REMARK    5  A    between atoms: C_6  and  O_7 
REMARK    6  A    between atoms: C_16  and  C_17 
REMARK    7  A    between atoms: C_18  and  C_19 
REMARK    8  A    between atoms: N_26  and  C_27 
ROOT
HETATM    1  C   UNL     1      22.326  45.388  47.029  1.00  0.00     0.177 C 
HETATM    2  C   UNL     1      22.658  43.889  47.017  1.00  0.00     0.250 C 
HETATM    3  N   UNL     1      23.121  43.485  48.334  1.00  0.00    -0.303 N 
HETATM    4  C   UNL     1      22.530  43.896  49.478  1.00  0.00     0.319 C 
HETATM    5  O   UNL     1      22.702  43.303  50.533  1.00  0.00    -0.247 OA
HETATM    6  N   UNL     1      21.789  45.022  49.404  1.00  0.00    -0.333 N 
HETATM    7  C   UNL     1      21.354  45.667  48.180  1.00  0.00     0.142 C 
HETATM    8  H   UNL     1      23.546  42.567  48.418  1.00  0.00     0.167 HD
HETATM    9  H   UNL     1      21.341  45.275  50.278  1.00  0.00     0.165 HD
ENDROOT
BRANCH   7  10
HETATM   10  C   UNL     1      21.192  47.124  48.514  1.00  0.00     0.015 A 
HETATM   11  C   UNL     1      22.179  48.038  48.998  1.00  0.00     0.097 A 
HETATM   12  N   UNL     1      21.647  49.247  49.219  1.00  0.00    -0.167 NA
HETATM   13  N   UNL     1      20.347  49.155  48.867  1.00  0.00    -0.244 N 
HETATM   14  C   UNL     1      20.042  47.890  48.422  1.00  0.00     0.130 A 
BRANCH  11  15
HETATM   15  C   UNL     1      23.600  47.808  49.266  1.00  0.00    -0.005 A 
HETATM   16  C   UNL     1      24.039  46.656  49.931  1.00  0.00     0.014 A 
HETATM   17  C   UNL     1      25.399  46.457  50.181  1.00  0.00     0.001 A 
HETATM   18  C   UNL     1      26.333  47.400  49.755  1.00  0.00     0.000 A 
HETATM   19  C   UNL     1      25.910  48.539  49.073  1.00  0.00     0.001 A 
HETATM   20  C   UNL     1      24.550  48.741  48.828  1.00  0.00     0.014 A 
ENDBRANCH  11  15
BRANCH  13  21
HETATM   21  C   UNL     1      19.480  50.278  48.990  1.00  0.00     0.058 A 
HETATM   22  C   UNL     1      19.788  51.463  48.303  1.00  0.00     0.031 A 
HETATM   23  C   UNL     1      18.958  52.580  48.415  1.00  0.00     0.002 A 
HETATM   24  C   UNL     1      17.817  52.525  49.211  1.00  0.00     0.000 A 
HETATM   25  C   UNL     1      17.504  51.352  49.898  1.00  0.00     0.002 A 
HETATM   26  C   UNL     1      18.329  50.229  49.789  1.00  0.00     0.031 A 
ENDBRANCH  13  21
ENDBRANCH   7  10
BRANCH   1  27
HETATM   27  C   UNL     1      21.720  45.834  45.718  1.00  0.00     0.270 C 
HETATM   28  O   UNL     1      20.587  46.273  45.594  1.00  0.00    -0.265 OA
BRANCH  27  29
HETATM   29  O   UNL     1      22.618  45.692  44.708  1.00  0.00    -0.321 OA
BRANCH  29  30
HETATM   30  C   UNL     1      22.073  45.542  43.387  1.00  0.00     0.174 C 
HETATM   31  C   UNL     1      22.792  44.462  42.600  1.00  0.00     0.034 C 
ENDBRANCH  29  30
ENDBRANCH  27  29
ENDBRANCH   1  27
BRANCH   2  32
HETATM   32  C   UNL     1      21.469  42.987  46.513  1.00  0.00     0.439 C 
HETATM   33  F   UNL     1      21.468  42.842  45.171  1.00  0.00    -0.166 F 
HETATM   34  F   UNL     1      21.554  41.743  47.050  1.00  0.00    -0.166 F 
HETATM   35  F   UNL     1      20.266  43.486  46.871  1.00  0.00    -0.166 F 
ENDBRANCH   2  32
BRANCH   2  36
HETATM   36  O   UNL     1      23.829  43.674  46.221  1.00  0.00    -0.363 OA
HETATM   37  H   UNL     1      23.509  43.554  45.311  1.00  0.00     0.213 HD
ENDBRANCH   2  36
TORSDOF 8
ENDMDL
