MODEL 1
REMARK VINA RESULT:      -9.5      0.000      0.000
REMARK  7 active torsions:
REMARK  status: ('A' for Active; 'I' for Inactive)
REMARK    1  A    between atoms: C_3  and  C_4 
REMARK       I    between atoms: C_4  and  N_5 
REMARK    2  A    between atoms: N_5  and  C_6 
REMARK    3  A    between atoms: C_17  and  S_18 
REMARK    4  A    between atoms: S_18  and  C_19 
REMARK    5  A    between atoms: C_19  and  C_20 
REMARK       I    between atoms: C_20  and  N_21 
REMARK    6  A    between atoms: N_21  and  C_22 
REMARK    7  A    between atoms: C_22  and  C_23 
ROOT
HETATM    1  C   UNL     1      26.979  49.981  48.445  1.00  0.00     0.001 A 
HETATM    2  C   UNL     1      25.598  49.978  48.257  1.00  0.00     0.018 A 
HETATM    3  C   UNL     1      24.809  48.972  48.841  1.00  0.00     0.049 A 
HETATM    4  C   UNL     1      25.403  47.957  49.616  1.00  0.00     0.016 A 
HETATM    5  C   UNL     1      26.797  47.972  49.779  1.00  0.00     0.019 A 
HETATM    6  C   UNL     1      27.577  48.979  49.204  1.00  0.00     0.001 A 
ENDROOT
BRANCH   3   7
HETATM    7  C   UNL     1      23.345  49.006  48.596  1.00  0.00     0.257 C 
HETATM    8  N   UNL     1      22.645  49.816  49.474  1.00  0.00    -0.323 N 
HETATM    9  H   UNL     1      23.181  50.292  50.189  1.00  0.00     0.169 HD
HETATM   10  O   UNL     1      22.878  48.308  47.706  1.00  0.00    -0.267 OA
BRANCH   8  11
HETATM   11  C   UNL     1      21.243  49.971  49.546  1.00  0.00     0.037 A 
HETATM   12  C   UNL     1      20.612  51.212  49.691  1.00  0.00     0.061 A 
HETATM   13  C   UNL     1      19.237  51.219  49.712  1.00  0.00     0.065 A 
HETATM   14  C   UNL     1      18.480  50.056  49.606  1.00  0.00     0.063 A 
HETATM   15  N   UNL     1      18.361  52.293  49.826  1.00  0.00    -0.306 N 
HETATM   16  N   UNL     1      17.137  50.413  49.654  1.00  0.00    -0.307 N 
HETATM   17  C   UNL     1      19.062  48.821  49.476  1.00  0.00     0.034 A 
HETATM   18  C   UNL     1      17.046  51.807  49.788  1.00  0.00     0.325 A 
HETATM   19  H   UNL     1      16.338  49.804  49.598  1.00  0.00     0.170 HD
HETATM   20  O   UNL     1      16.023  52.465  49.855  1.00  0.00    -0.247 OA
HETATM   21  C   UNL     1      20.463  48.788  49.447  1.00  0.00     0.032 A 
HETATM   22  H   UNL     1      18.608  53.265  49.915  1.00  0.00     0.170 HD
ENDBRANCH   8  11
ENDBRANCH   3   7
BRANCH   4  23
HETATM   23  S   UNL     1      24.522  46.612  50.408  1.00  0.00    -0.120 SA
BRANCH  23  24
HETATM   24  C   UNL     1      25.295  46.633  52.059  1.00  0.00     0.182 C 
BRANCH  24  25
HETATM   25  C   UNL     1      25.564  45.229  52.573  1.00  0.00     0.227 C 
HETATM   26  N   UNL     1      26.885  44.888  52.732  1.00  0.00    -0.354 N 
HETATM   27  H   UNL     1      27.604  45.613  52.690  1.00  0.00     0.162 HD
HETATM   28  O   UNL     1      24.649  44.423  52.740  1.00  0.00    -0.273 OA
BRANCH  26  29
HETATM   29  C   UNL     1      27.253  43.591  53.244  1.00  0.00     0.187 C 
BRANCH  29  30
HETATM   30  C   UNL     1      28.492  43.672  54.058  1.00  0.00     0.070 A 
HETATM   31  O   UNL     1      28.669  44.787  54.828  1.00  0.00    -0.325 OA
HETATM   32  C   UNL     1      29.840  44.631  55.496  1.00  0.00     0.142 A 
HETATM   33  C   UNL     1      30.418  43.425  55.179  1.00  0.00     0.027 A 
HETATM   34  C   UNL     1      29.549  42.803  54.249  1.00  0.00     0.036 A 
ENDBRANCH  29  30
ENDBRANCH  26  29
ENDBRANCH  24  25
ENDBRANCH  23  24
ENDBRANCH   4  23
TORSDOF 7
ENDMDL
MODEL 2
REMARK VINA RESULT:      -9.3      2.820     10.293
REMARK  7 active torsions:
REMARK  status: ('A' for Active; 'I' for Inactive)
REMARK    1  A    between atoms: C_3  and  C_4 
REMARK       I    between atoms: C_4  and  N_5 
REMARK    2  A    between atoms: N_5  and  C_6 
REMARK    3  A    between atoms: C_17  and  S_18 
REMARK    4  A    between atoms: S_18  and  C_19 
REMARK    5  A    between atoms: C_19  and  C_20 
REMARK       I    between atoms: C_20  and  N_21 
REMARK    6  A    between atoms: N_21  and  C_22 
REMARK    7  A    between atoms: C_22  and  C_23 
ROOT
HETATM    1  C   UNL     1      23.391  43.975  48.421  1.00  0.00     0.001 A 
HETATM    2  C   UNL     1      24.631  43.839  49.040  1.00  0.00     0.018 A 
HETATM    3  C   UNL     1      25.216  44.934  49.698  1.00  0.00     0.049 A 
HETATM    4  C   UNL     1      24.559  46.179  49.736  1.00  0.00     0.016 A 
HETATM    5  C   UNL     1      23.317  46.298  49.093  1.00  0.00     0.019 A 
HETATM    6  C   UNL     1      22.735  45.204  48.448  1.00  0.00     0.001 A 
ENDROOT
BRANCH   3   7
HETATM    7  C   UNL     1      26.547  44.738  50.327  1.00  0.00     0.257 C 
HETATM    8  N   UNL     1      26.494  44.219  51.609  1.00  0.00    -0.323 N 
HETATM    9  H   UNL     1      25.576  44.032  51.994  1.00  0.00     0.169 HD
HETATM   10  O   UNL     1      27.548  45.082  49.712  1.00  0.00    -0.267 OA
BRANCH   8  11
HETATM   11  C   UNL     1      27.584  44.016  52.485  1.00  0.00     0.037 A 
HETATM   12  C   UNL     1      27.802  44.785  53.635  1.00  0.00     0.061 A 
HETATM   13  C   UNL     1      28.884  44.453  54.415  1.00  0.00     0.065 A 
HETATM   14  C   UNL     1      29.748  43.410  54.096  1.00  0.00     0.063 A 
HETATM   15  N   UNL     1      29.325  45.026  55.603  1.00  0.00    -0.306 N 
HETATM   16  N   UNL     1      30.721  43.339  55.087  1.00  0.00    -0.307 N 
HETATM   17  C   UNL     1      29.575  42.644  52.971  1.00  0.00     0.034 A 
HETATM   18  C   UNL     1      30.468  44.341  56.037  1.00  0.00     0.325 A 
HETATM   19  H   UNL     1      31.487  42.690  55.149  1.00  0.00     0.170 HD
HETATM   20  O   UNL     1      31.115  44.565  57.044  1.00  0.00    -0.247 OA
HETATM   21  C   UNL     1      28.475  42.959  52.161  1.00  0.00     0.032 A 
HETATM   22  H   UNL     1      28.903  45.801  56.091  1.00  0.00     0.170 HD
ENDBRANCH   8  11
ENDBRANCH   3   7
BRANCH   4  23
HETATM   23  S   UNL     1      25.192  47.658  50.529  1.00  0.00    -0.120 SA
BRANCH  23  24
HETATM   24  C   UNL     1      26.237  48.329  49.195  1.00  0.00     0.182 C 
BRANCH  24  25
HETATM   25  C   UNL     1      25.536  49.444  48.437  1.00  0.00     0.227 C 
HETATM   26  N   UNL     1      24.214  49.647  48.752  1.00  0.00    -0.354 N 
HETATM   27  H   UNL     1      23.815  49.200  49.579  1.00  0.00     0.162 HD
HETATM   28  O   UNL     1      26.102  50.055  47.531  1.00  0.00    -0.273 OA
BRANCH  26  29
HETATM   29  C   UNL     1      23.461  50.700  48.116  1.00  0.00     0.187 C 
BRANCH  29  30
HETATM   30  C   UNL     1      22.142  50.884  48.774  1.00  0.00     0.070 A 
HETATM   31  O   UNL     1      22.107  50.838  50.138  1.00  0.00    -0.325 OA
HETATM   32  C   UNL     1      20.821  51.055  50.513  1.00  0.00     0.142 A 
HETATM   33  C   UNL     1      20.025  51.251  49.410  1.00  0.00     0.027 A 
HETATM   34  C   UNL     1      20.877  51.141  48.284  1.00  0.00     0.036 A 
ENDBRANCH  29  30
ENDBRANCH  26  29
ENDBRANCH  24  25
ENDBRANCH  23  24
ENDBRANCH   4  23
TORSDOF 7
ENDMDL
MODEL 3
REMARK VINA RESULT:      -9.2      2.813     10.673
REMARK  7 active torsions:
REMARK  status: ('A' for Active; 'I' for Inactive)
REMARK    1  A    between atoms: C_3  and  C_4 
REMARK       I    between atoms: C_4  and  N_5 
REMARK    2  A    between atoms: N_5  and  C_6 
REMARK    3  A    between atoms: C_17  and  S_18 
REMARK    4  A    between atoms: S_18  and  C_19 
REMARK    5  A    between atoms: C_19  and  C_20 
REMARK       I    between atoms: C_20  and  N_21 
REMARK    6  A    between atoms: N_21  and  C_22 
REMARK    7  A    between atoms: C_22  and  C_23 
ROOT
HETATM    1  C   UNL     1      24.890  42.194  49.528  1.00  0.00     0.001 A 
HETATM    2  C   UNL     1      25.390  42.489  50.794  1.00  0.00     0.018 A 
HETATM    3  C   UNL     1      25.437  43.821  51.241  1.00  0.00     0.049 A 
HETATM    4  C   UNL     1      24.984  44.868  50.416  1.00  0.00     0.016 A 
HETATM    5  C   UNL     1      24.499  44.549  49.138  1.00  0.00     0.019 A 
HETATM    6  C   UNL     1      24.446  43.223  48.701  1.00  0.00     0.001 A 
ENDROOT
BRANCH   3   7
HETATM    7  C   UNL     1      25.993  44.081  52.593  1.00  0.00     0.257 C 
HETATM    8  N   UNL     1      27.357  44.319  52.605  1.00  0.00    -0.323 N 
HETATM    9  H   UNL     1      27.839  44.288  51.715  1.00  0.00     0.169 HD
HETATM   10  O   UNL     1      25.248  44.019  53.561  1.00  0.00    -0.267 OA
BRANCH   8  11
HETATM   11  C   UNL     1      28.173  44.502  53.744  1.00  0.00     0.037 A 
HETATM   12  C   UNL     1      29.121  43.563  54.171  1.00  0.00     0.061 A 
HETATM   13  C   UNL     1      29.871  43.888  55.276  1.00  0.00     0.065 A 
HETATM   14  C   UNL     1      29.711  45.085  55.967  1.00  0.00     0.063 A 
HETATM   15  N   UNL     1      30.880  43.163  55.902  1.00  0.00    -0.306 N 
HETATM   16  N   UNL     1      30.620  45.099  57.018  1.00  0.00    -0.307 N 
HETATM   17  C   UNL     1      28.784  46.022  55.587  1.00  0.00     0.034 A 
HETATM   18  C   UNL     1      31.361  43.907  56.989  1.00  0.00     0.325 A 
HETATM   19  H   UNL     1      30.759  45.826  57.700  1.00  0.00     0.170 HD
HETATM   20  O   UNL     1      32.249  43.585  57.757  1.00  0.00    -0.247 OA
HETATM   21  C   UNL     1      28.009  45.718  54.459  1.00  0.00     0.032 A 
HETATM   22  H   UNL     1      31.227  42.257  55.632  1.00  0.00     0.170 HD
ENDBRANCH   8  11
ENDBRANCH   3   7
BRANCH   4  23
HETATM   23  S   UNL     1      24.995  46.607  50.853  1.00  0.00    -0.120 SA
BRANCH  23  24
HETATM   24  C   UNL     1      26.349  47.209  49.791  1.00  0.00     0.182 C 
BRANCH  24  25
HETATM   25  C   UNL     1      25.994  48.523  49.118  1.00  0.00     0.227 C 
HETATM   26  N   UNL     1      24.657  48.834  49.071  1.00  0.00    -0.354 N 
HETATM   27  H   UNL     1      23.992  48.299  49.633  1.00  0.00     0.162 HD
HETATM   28  O   UNL     1      26.852  49.212  48.565  1.00  0.00    -0.273 OA
BRANCH  26  29
HETATM   29  C   UNL     1      24.210  50.073  48.482  1.00  0.00     0.187 C 
BRANCH  29  30
HETATM   30  C   UNL     1      22.749  50.256  48.671  1.00  0.00     0.070 A 
HETATM   31  O   UNL     1      22.067  49.263  49.315  1.00  0.00    -0.325 OA
HETATM   32  C   UNL     1      20.770  49.655  49.396  1.00  0.00     0.142 A 
HETATM   33  C   UNL     1      20.605  50.893  48.823  1.00  0.00     0.027 A 
HETATM   34  C   UNL     1      21.882  51.285  48.354  1.00  0.00     0.036 A 
ENDBRANCH  29  30
ENDBRANCH  26  29
ENDBRANCH  24  25
ENDBRANCH  23  24
ENDBRANCH   4  23
TORSDOF 7
ENDMDL
MODEL 4
REMARK VINA RESULT:      -8.8      4.811      9.399
REMARK  7 active torsions:
REMARK  status: ('A' for Active; 'I' for Inactive)
REMARK    1  A    between atoms: C_3  and  C_4 
REMARK       I    between atoms: C_4  and  N_5 
REMARK    2  A    between atoms: N_5  and  C_6 
REMARK    3  A    between atoms: C_17  and  S_18 
REMARK    4  A    between atoms: S_18  and  C_19 
REMARK    5  A    between atoms: C_19  and  C_20 
REMARK       I    between atoms: C_20  and  N_21 
REMARK    6  A    between atoms: N_21  and  C_22 
REMARK    7  A    between atoms: C_22  and  C_23 
ROOT
HETATM    1  C   UNL     1      30.875  43.033  54.153  1.00  0.00     0.001 A 
HETATM    2  C   UNL     1      30.122  42.854  52.995  1.00  0.00     0.018 A 
HETATM    3  C   UNL     1      28.777  43.263  52.957  1.00  0.00     0.049 A 
HETATM    4  C   UNL     1      28.177  43.853  54.086  1.00  0.00     0.016 A 
HETATM    5  C   UNL     1      28.950  44.009  55.247  1.00  0.00     0.019 A 
HETATM    6  C   UNL     1      30.289  43.610  55.278  1.00  0.00     0.001 A 
ENDROOT
BRANCH   3   7
HETATM    7  C   UNL     1      28.016  43.034  51.703  1.00  0.00     0.257 C 
HETATM    8  N   UNL     1      27.821  41.697  51.397  1.00  0.00    -0.323 N 
HETATM    9  H   UNL     1      28.211  41.016  52.036  1.00  0.00     0.169 HD
HETATM   10  O   UNL     1      27.676  44.000  51.033  1.00  0.00    -0.267 OA
BRANCH   8  11
HETATM   11  C   UNL     1      27.221  41.176  50.229  1.00  0.00     0.037 A 
HETATM   12  C   UNL     1      25.840  41.194  49.998  1.00  0.00     0.061 A 
HETATM   13  C   UNL     1      25.397  40.683  48.801  1.00  0.00     0.065 A 
HETATM   14  C   UNL     1      26.260  40.156  47.845  1.00  0.00     0.063 A 
HETATM   15  N   UNL     1      24.101  40.589  48.307  1.00  0.00    -0.306 N 
HETATM   16  N   UNL     1      25.496  39.738  46.762  1.00  0.00    -0.307 N 
HETATM   17  C   UNL     1      27.617  40.109  48.041  1.00  0.00     0.034 A 
HETATM   18  C   UNL     1      24.145  40.004  47.034  1.00  0.00     0.325 A 
HETATM   19  H   UNL     1      25.821  39.317  45.908  1.00  0.00     0.170 HD
HETATM   20  O   UNL     1      23.199  39.775  46.303  1.00  0.00    -0.247 OA
HETATM   21  C   UNL     1      28.095  40.628  49.252  1.00  0.00     0.032 A 
HETATM   22  H   UNL     1      23.257  40.891  48.768  1.00  0.00     0.170 HD
ENDBRANCH   8  11
ENDBRANCH   3   7
BRANCH   4  23
HETATM   23  S   UNL     1      26.476  44.409  54.179  1.00  0.00    -0.120 SA
BRANCH  23  24
HETATM   24  C   UNL     1      26.713  46.216  54.121  1.00  0.00     0.182 C 
BRANCH  24  25
HETATM   25  C   UNL     1      25.805  46.870  53.094  1.00  0.00     0.227 C 
HETATM   26  N   UNL     1      25.763  46.270  51.859  1.00  0.00    -0.354 N 
HETATM   27  H   UNL     1      26.167  45.341  51.732  1.00  0.00     0.162 HD
HETATM   28  O   UNL     1      25.224  47.928  53.335  1.00  0.00    -0.273 OA
BRANCH  26  29
HETATM   29  C   UNL     1      24.910  46.790  50.818  1.00  0.00     0.187 C 
BRANCH  29  30
HETATM   30  C   UNL     1      25.639  47.765  49.968  1.00  0.00     0.070 A 
HETATM   31  O   UNL     1      24.925  48.806  49.448  1.00  0.00    -0.325 OA
HETATM   32  C   UNL     1      25.791  49.572  48.738  1.00  0.00     0.142 A 
HETATM   33  C   UNL     1      27.060  49.047  48.800  1.00  0.00     0.027 A 
HETATM   34  C   UNL     1      26.965  47.878  49.595  1.00  0.00     0.036 A 
ENDBRANCH  29  30
ENDBRANCH  26  29
ENDBRANCH  24  25
ENDBRANCH  23  24
ENDBRANCH   4  23
TORSDOF 7
ENDMDL
MODEL 5
REMARK VINA RESULT:      -8.7     11.776     14.648
REMARK  7 active torsions:
REMARK  status: ('A' for Active; 'I' for Inactive)
REMARK    1  A    between atoms: C_3  and  C_4 
REMARK       I    between atoms: C_4  and  N_5 
REMARK    2  A    between atoms: N_5  and  C_6 
REMARK    3  A    between atoms: C_17  and  S_18 
REMARK    4  A    between atoms: S_18  and  C_19 
REMARK    5  A    between atoms: C_19  and  C_20 
REMARK       I    between atoms: C_20  and  N_21 
REMARK    6  A    between atoms: N_21  and  C_22 
REMARK    7  A    between atoms: C_22  and  C_23 
ROOT
HETATM    1  C   UNL     1      26.635  44.876  40.392  1.00  0.00     0.001 A 
HETATM    2  C   UNL     1      27.895  45.465  40.478  1.00  0.00     0.018 A 
HETATM    3  C   UNL     1      28.141  46.699  39.853  1.00  0.00     0.049 A 
HETATM    4  C   UNL     1      27.122  47.352  39.132  1.00  0.00     0.016 A 
HETATM    5  C   UNL     1      25.865  46.733  39.046  1.00  0.00     0.019 A 
HETATM    6  C   UNL     1      25.622  45.510  39.677  1.00  0.00     0.001 A 
ENDROOT
BRANCH   3   7
HETATM    7  C   UNL     1      29.505  47.274  39.962  1.00  0.00     0.257 C 
HETATM    8  N   UNL     1      29.754  47.912  41.165  1.00  0.00    -0.323 N 
HETATM    9  H   UNL     1      29.000  47.934  41.841  1.00  0.00     0.169 HD
HETATM   10  O   UNL     1      30.261  47.190  39.003  1.00  0.00    -0.267 OA
BRANCH   8  11
HETATM   11  C   UNL     1      30.919  48.630  41.517  1.00  0.00     0.037 A 
HETATM   12  C   UNL     1      32.160  48.436  40.897  1.00  0.00     0.061 A 
HETATM   13  C   UNL     1      33.202  49.229  41.317  1.00  0.00     0.065 A 
HETATM   14  C   UNL     1      33.061  50.185  42.318  1.00  0.00     0.063 A 
HETATM   15  N   UNL     1      34.519  49.264  40.873  1.00  0.00    -0.306 N 
HETATM   16  N   UNL     1      34.291  50.809  42.491  1.00  0.00    -0.307 N 
HETATM   17  C   UNL     1      31.865  50.395  42.957  1.00  0.00     0.034 A 
HETATM   18  C   UNL     1      35.211  50.247  41.593  1.00  0.00     0.325 A 
HETATM   19  H   UNL     1      34.519  51.548  43.135  1.00  0.00     0.170 HD
HETATM   20  O   UNL     1      36.382  50.557  41.465  1.00  0.00    -0.247 OA
HETATM   21  C   UNL     1      30.785  49.601  42.544  1.00  0.00     0.032 A 
HETATM   22  H   UNL     1      34.927  48.691  40.151  1.00  0.00     0.170 HD
ENDBRANCH   8  11
ENDBRANCH   3   7
BRANCH   4  23
HETATM   23  S   UNL     1      27.299  48.919  38.281  1.00  0.00    -0.120 SA
BRANCH  23  24
HETATM   24  C   UNL     1      26.340  50.008  39.385  1.00  0.00     0.182 C 
BRANCH  24  25
HETATM   25  C   UNL     1      27.219  50.659  40.438  1.00  0.00     0.227 C 
HETATM   26  N   UNL     1      27.711  51.903  40.126  1.00  0.00    -0.354 N 
HETATM   27  H   UNL     1      27.333  52.412  39.325  1.00  0.00     0.162 HD
HETATM   28  O   UNL     1      27.544  50.057  41.462  1.00  0.00    -0.273 OA
BRANCH  26  29
HETATM   29  C   UNL     1      28.531  52.626  41.067  1.00  0.00     0.187 C 
BRANCH  29  30
HETATM   30  C   UNL     1      29.948  52.658  40.624  1.00  0.00     0.070 A 
HETATM   31  O   UNL     1      30.343  51.725  39.709  1.00  0.00    -0.325 OA
HETATM   32  C   UNL     1      31.652  51.960  39.435  1.00  0.00     0.142 A 
HETATM   33  C   UNL     1      32.106  53.041  40.153  1.00  0.00     0.027 A 
HETATM   34  C   UNL     1      31.007  53.494  40.922  1.00  0.00     0.036 A 
ENDBRANCH  29  30
ENDBRANCH  26  29
ENDBRANCH  24  25
ENDBRANCH  23  24
ENDBRANCH   4  23
TORSDOF 7
ENDMDL
MODEL 6
REMARK VINA RESULT:      -8.4      3.590      6.339
REMARK  7 active torsions:
REMARK  status: ('A' for Active; 'I' for Inactive)
REMARK    1  A    between atoms: C_3  and  C_4 
REMARK       I    between atoms: C_4  and  N_5 
REMARK    2  A    between atoms: N_5  and  C_6 
REMARK    3  A    between atoms: C_17  and  S_18 
REMARK    4  A    between atoms: S_18  and  C_19 
REMARK    5  A    between atoms: C_19  and  C_20 
REMARK       I    between atoms: C_20  and  N_21 
REMARK    6  A    between atoms: N_21  and  C_22 
REMARK    7  A    between atoms: C_22  and  C_23 
ROOT
HETATM    1  C   UNL     1      28.874  44.231  54.526  1.00  0.00     0.001 A 
HETATM    2  C   UNL     1      28.047  45.215  53.990  1.00  0.00     0.018 A 
HETATM    3  C   UNL     1      27.085  44.879  53.023  1.00  0.00     0.049 A 
HETATM    4  C   UNL     1      26.948  43.548  52.584  1.00  0.00     0.016 A 
HETATM    5  C   UNL     1      27.802  42.575  53.126  1.00  0.00     0.019 A 
HETATM    6  C   UNL     1      28.752  42.912  54.094  1.00  0.00     0.001 A 
ENDROOT
BRANCH   3   7
HETATM    7  C   UNL     1      26.240  45.969  52.473  1.00  0.00     0.257 C 
HETATM    8  N   UNL     1      26.439  46.212  51.125  1.00  0.00    -0.323 N 
HETATM    9  H   UNL     1      27.129  45.643  50.651  1.00  0.00     0.169 HD
HETATM   10  O   UNL     1      25.499  46.582  53.231  1.00  0.00    -0.267 OA
BRANCH   8  11
HETATM   11  C   UNL     1      25.854  47.243  50.356  1.00  0.00     0.037 A 
HETATM   12  C   UNL     1      24.476  47.492  50.324  1.00  0.00     0.061 A 
HETATM   13  C   UNL     1      24.048  48.551  49.558  1.00  0.00     0.065 A 
HETATM   14  C   UNL     1      24.922  49.351  48.829  1.00  0.00     0.063 A 
HETATM   15  N   UNL     1      22.759  49.032  49.359  1.00  0.00    -0.306 N 
HETATM   16  N   UNL     1      24.172  50.325  48.180  1.00  0.00    -0.307 N 
HETATM   17  C   UNL     1      26.276  49.130  48.825  1.00  0.00     0.034 A 
HETATM   18  C   UNL     1      22.818  50.140  48.503  1.00  0.00     0.325 A 
HETATM   19  H   UNL     1      24.507  51.058  47.578  1.00  0.00     0.170 HD
HETATM   20  O   UNL     1      21.882  50.815  48.117  1.00  0.00    -0.247 OA
HETATM   21  C   UNL     1      26.739  48.058  49.602  1.00  0.00     0.032 A 
HETATM   22  H   UNL     1      21.910  48.663  49.757  1.00  0.00     0.170 HD
ENDBRANCH   8  11
ENDBRANCH   3   7
BRANCH   4  23
HETATM   23  S   UNL     1      25.773  42.982  51.353  1.00  0.00    -0.120 SA
BRANCH  23  24
HETATM   24  C   UNL     1      26.745  43.221  49.830  1.00  0.00     0.182 C 
BRANCH  24  25
HETATM   25  C   UNL     1      27.030  41.902  49.131  1.00  0.00     0.227 C 
HETATM   26  N   UNL     1      26.661  40.768  49.812  1.00  0.00    -0.354 N 
HETATM   27  H   UNL     1      26.060  40.843  50.635  1.00  0.00     0.162 HD
HETATM   28  O   UNL     1      27.643  41.863  48.064  1.00  0.00    -0.273 OA
BRANCH  26  29
HETATM   29  C   UNL     1      26.856  39.464  49.228  1.00  0.00     0.187 C 
BRANCH  29  30
HETATM   30  C   UNL     1      28.155  38.880  49.650  1.00  0.00     0.070 A 
HETATM   31  O   UNL     1      28.682  39.307  50.835  1.00  0.00    -0.325 OA
HETATM   32  C   UNL     1      29.841  38.627  51.026  1.00  0.00     0.142 A 
HETATM   33  C   UNL     1      30.065  37.757  49.986  1.00  0.00     0.027 A 
HETATM   34  C   UNL     1      28.977  37.918  49.094  1.00  0.00     0.036 A 
ENDBRANCH  29  30
ENDBRANCH  26  29
ENDBRANCH  24  25
ENDBRANCH  23  24
ENDBRANCH   4  23
TORSDOF 7
ENDMDL
MODEL 7
REMARK VINA RESULT:      -8.3      5.411      9.682
REMARK  7 active torsions:
REMARK  status: ('A' for Active; 'I' for Inactive)
REMARK    1  A    between atoms: C_3  and  C_4 
REMARK       I    between atoms: C_4  and  N_5 
REMARK    2  A    between atoms: N_5  and  C_6 
REMARK    3  A    between atoms: C_17  and  S_18 
REMARK    4  A    between atoms: S_18  and  C_19 
REMARK    5  A    between atoms: C_19  and  C_20 
REMARK       I    between atoms: C_20  and  N_21 
REMARK    6  A    between atoms: N_21  and  C_22 
REMARK    7  A    between atoms: C_22  and  C_23 
ROOT
HETATM    1  C   UNL     1      30.586  43.306  54.345  1.00  0.00     0.001 A 
HETATM    2  C   UNL     1      29.978  42.968  53.138  1.00  0.00     0.018 A 
HETATM    3  C   UNL     1      28.641  43.326  52.896  1.00  0.00     0.049 A 
HETATM    4  C   UNL     1      27.901  44.025  53.869  1.00  0.00     0.016 A 
HETATM    5  C   UNL     1      28.528  44.342  55.084  1.00  0.00     0.019 A 
HETATM    6  C   UNL     1      29.861  43.992  55.317  1.00  0.00     0.001 A 
ENDROOT
BRANCH   3   7
HETATM    7  C   UNL     1      28.038  42.926  51.600  1.00  0.00     0.257 C 
HETATM    8  N   UNL     1      27.826  41.564  51.471  1.00  0.00    -0.323 N 
HETATM    9  H   UNL     1      28.101  40.979  52.251  1.00  0.00     0.169 HD
HETATM   10  O   UNL     1      27.829  43.786  50.755  1.00  0.00    -0.267 OA
BRANCH   8  11
HETATM   11  C   UNL     1      27.359  40.885  50.324  1.00  0.00     0.037 A 
HETATM   12  C   UNL     1      26.033  40.947  49.879  1.00  0.00     0.061 A 
HETATM   13  C   UNL     1      25.726  40.263  48.726  1.00  0.00     0.065 A 
HETATM   14  C   UNL     1      26.669  39.526  48.017  1.00  0.00     0.063 A 
HETATM   15  N   UNL     1      24.512  40.165  48.055  1.00  0.00    -0.306 N 
HETATM   16  N   UNL     1      26.037  38.973  46.909  1.00  0.00    -0.307 N 
HETATM   17  C   UNL     1      27.974  39.431  48.429  1.00  0.00     0.034 A 
HETATM   18  C   UNL     1      24.689  39.365  46.918  1.00  0.00     0.325 A 
HETATM   19  H   UNL     1      26.444  38.391  46.197  1.00  0.00     0.170 HD
HETATM   20  O   UNL     1      23.842  39.070  46.094  1.00  0.00    -0.247 OA
HETATM   21  C   UNL     1      28.314  40.123  49.600  1.00  0.00     0.032 A 
HETATM   22  H   UNL     1      23.639  40.593  48.322  1.00  0.00     0.170 HD
ENDBRANCH   8  11
ENDBRANCH   3   7
BRANCH   4  23
HETATM   23  S   UNL     1      26.190  44.534  53.698  1.00  0.00    -0.120 SA
BRANCH  23  24
HETATM   24  C   UNL     1      26.409  46.278  53.216  1.00  0.00     0.182 C 
BRANCH  24  25
HETATM   25  C   UNL     1      25.663  46.607  51.934  1.00  0.00     0.227 C 
HETATM   26  N   UNL     1      25.774  45.686  50.921  1.00  0.00    -0.354 N 
HETATM   27  H   UNL     1      26.169  44.764  51.114  1.00  0.00     0.162 HD
HETATM   28  O   UNL     1      25.080  47.681  51.790  1.00  0.00    -0.273 OA
BRANCH  26  29
HETATM   29  C   UNL     1      25.081  45.881  49.671  1.00  0.00     0.187 C 
BRANCH  29  30
HETATM   30  C   UNL     1      24.154  44.754  49.393  1.00  0.00     0.070 A 
HETATM   31  O   UNL     1      23.788  43.965  50.446  1.00  0.00    -0.325 OA
HETATM   32  C   UNL     1      22.928  43.031  49.967  1.00  0.00     0.142 A 
HETATM   33  C   UNL     1      22.724  43.211  48.620  1.00  0.00     0.027 A 
HETATM   34  C   UNL     1      23.516  44.325  48.246  1.00  0.00     0.036 A 
ENDBRANCH  29  30
ENDBRANCH  26  29
ENDBRANCH  24  25
ENDBRANCH  23  24
ENDBRANCH   4  23
TORSDOF 7
ENDMDL
MODEL 8
REMARK VINA RESULT:      -8.3      2.866     10.008
REMARK  7 active torsions:
REMARK  status: ('A' for Active; 'I' for Inactive)
REMARK    1  A    between atoms: C_3  and  C_4 
REMARK       I    between atoms: C_4  and  N_5 
REMARK    2  A    between atoms: N_5  and  C_6 
REMARK    3  A    between atoms: C_17  and  S_18 
REMARK    4  A    between atoms: S_18  and  C_19 
REMARK    5  A    between atoms: C_19  and  C_20 
REMARK       I    between atoms: C_20  and  N_21 
REMARK    6  A    between atoms: N_21  and  C_22 
REMARK    7  A    between atoms: C_22  and  C_23 
ROOT
HETATM    1  C   UNL     1      23.228  42.790  47.701  1.00  0.00     0.001 A 
HETATM    2  C   UNL     1      24.216  43.288  48.547  1.00  0.00     0.018 A 
HETATM    3  C   UNL     1      24.187  44.634  48.951  1.00  0.00     0.049 A 
HETATM    4  C   UNL     1      23.164  45.492  48.502  1.00  0.00     0.016 A 
HETATM    5  C   UNL     1      22.188  44.973  47.638  1.00  0.00     0.019 A 
HETATM    6  C   UNL     1      22.216  43.632  47.246  1.00  0.00     0.001 A 
ENDROOT
BRANCH   3   7
HETATM    7  C   UNL     1      25.272  45.116  49.841  1.00  0.00     0.257 C 
HETATM    8  N   UNL     1      24.978  45.025  51.191  1.00  0.00    -0.323 N 
HETATM    9  H   UNL     1      24.070  44.654  51.441  1.00  0.00     0.169 HD
HETATM   10  O   UNL     1      26.284  45.586  49.338  1.00  0.00    -0.267 OA
BRANCH   8  11
HETATM   11  C   UNL     1      25.771  45.492  52.262  1.00  0.00     0.037 A 
HETATM   12  C   UNL     1      26.825  44.756  52.818  1.00  0.00     0.061 A 
HETATM   13  C   UNL     1      27.536  45.348  53.835  1.00  0.00     0.065 A 
HETATM   14  C   UNL     1      27.238  46.618  54.318  1.00  0.00     0.063 A 
HETATM   15  N   UNL     1      28.626  44.862  54.549  1.00  0.00    -0.306 N 
HETATM   16  N   UNL     1      28.144  46.916  55.330  1.00  0.00    -0.307 N 
HETATM   17  C   UNL     1      26.205  47.364  53.808  1.00  0.00     0.034 A 
HETATM   18  C   UNL     1      29.019  45.830  55.484  1.00  0.00     0.325 A 
HETATM   19  H   UNL     1      28.198  47.759  55.876  1.00  0.00     0.170 HD
HETATM   20  O   UNL     1      29.942  45.749  56.274  1.00  0.00    -0.247 OA
HETATM   21  C   UNL     1      25.468  46.784  52.767  1.00  0.00     0.032 A 
HETATM   22  H   UNL     1      29.077  43.969  54.427  1.00  0.00     0.170 HD
ENDBRANCH   8  11
ENDBRANCH   3   7
BRANCH   4  23
HETATM   23  S   UNL     1      23.011  47.227  48.928  1.00  0.00    -0.120 SA
BRANCH  23  24
HETATM   24  C   UNL     1      21.318  47.565  48.342  1.00  0.00     0.182 C 
BRANCH  24  25
HETATM   25  C   UNL     1      20.579  48.512  49.272  1.00  0.00     0.227 C 
HETATM   26  N   UNL     1      21.244  49.666  49.610  1.00  0.00    -0.354 N 
HETATM   27  H   UNL     1      22.088  49.933  49.099  1.00  0.00     0.162 HD
HETATM   28  O   UNL     1      19.492  48.208  49.764  1.00  0.00    -0.273 OA
BRANCH  26  29
HETATM   29  C   UNL     1      20.623  50.650  50.461  1.00  0.00     0.187 C 
BRANCH  29  30
HETATM   30  C   UNL     1      19.594  51.423  49.720  1.00  0.00     0.070 A 
HETATM   31  O   UNL     1      18.356  51.531  50.287  1.00  0.00    -0.325 OA
HETATM   32  C   UNL     1      17.600  52.293  49.457  1.00  0.00     0.142 A 
HETATM   33  C   UNL     1      18.334  52.688  48.365  1.00  0.00     0.027 A 
HETATM   34  C   UNL     1      19.624  52.128  48.532  1.00  0.00     0.036 A 
ENDBRANCH  29  30
ENDBRANCH  26  29
ENDBRANCH  24  25
ENDBRANCH  23  24
ENDBRANCH   4  23
TORSDOF 7
ENDMDL
MODEL 9
REMARK VINA RESULT:      -8.1     11.664     14.469
REMARK  7 active torsions:
REMARK  status: ('A' for Active; 'I' for Inactive)
REMARK    1  A    between atoms: C_3  and  C_4 
REMARK       I    between atoms: C_4  and  N_5 
REMARK    2  A    between atoms: N_5  and  C_6 
REMARK    3  A    between atoms: C_17  and  S_18 
REMARK    4  A    between atoms: S_18  and  C_19 
REMARK    5  A    between atoms: C_19  and  C_20 
REMARK       I    between atoms: C_20  and  N_21 
REMARK    6  A    between atoms: N_21  and  C_22 
REMARK    7  A    between atoms: C_22  and  C_23 
ROOT
HETATM    1  C   UNL     1      26.321  43.513  40.908  1.00  0.00     0.001 A 
HETATM    2  C   UNL     1      27.483  44.280  40.865  1.00  0.00     0.018 A 
HETATM    3  C   UNL     1      27.591  45.348  39.957  1.00  0.00     0.049 A 
HETATM    4  C   UNL     1      26.530  45.651  39.082  1.00  0.00     0.016 A 
HETATM    5  C   UNL     1      25.375  44.856  39.132  1.00  0.00     0.019 A 
HETATM    6  C   UNL     1      25.269  43.801  40.042  1.00  0.00     0.001 A 
ENDROOT
BRANCH   3   7
HETATM    7  C   UNL     1      28.857  46.123  39.942  1.00  0.00     0.257 C 
HETATM    8  N   UNL     1      28.745  47.398  40.469  1.00  0.00    -0.323 N 
HETATM    9  H   UNL     1      27.832  47.681  40.802  1.00  0.00     0.169 HD
HETATM   10  O   UNL     1      29.853  45.618  39.441  1.00  0.00    -0.267 OA
BRANCH   8  11
HETATM   11  C   UNL     1      29.749  48.392  40.500  1.00  0.00     0.037 A 
HETATM   12  C   UNL     1      30.379  48.887  39.352  1.00  0.00     0.061 A 
HETATM   13  C   UNL     1      31.315  49.879  39.528  1.00  0.00     0.065 A 
HETATM   14  C   UNL     1      31.648  50.382  40.782  1.00  0.00     0.063 A 
HETATM   15  N   UNL     1      32.072  50.556  38.579  1.00  0.00    -0.306 N 
HETATM   16  N   UNL     1      32.611  51.369  40.606  1.00  0.00    -0.307 N 
HETATM   17  C   UNL     1      31.063  49.913  41.930  1.00  0.00     0.034 A 
HETATM   18  C   UNL     1      32.885  51.491  39.235  1.00  0.00     0.325 A 
HETATM   19  H   UNL     1      33.055  51.927  41.316  1.00  0.00     0.170 HD
HETATM   20  O   UNL     1      33.672  52.264  38.718  1.00  0.00    -0.247 OA
HETATM   21  C   UNL     1      30.101  48.904  41.778  1.00  0.00     0.032 A 
HETATM   22  H   UNL     1      32.052  50.417  37.581  1.00  0.00     0.170 HD
ENDBRANCH   8  11
ENDBRANCH   3   7
BRANCH   4  23
HETATM   23  S   UNL     1      26.536  46.974  37.872  1.00  0.00    -0.120 SA
BRANCH  23  24
HETATM   24  C   UNL     1      25.334  48.119  38.625  1.00  0.00     0.182 C 
BRANCH  24  25
HETATM   25  C   UNL     1      25.912  48.822  39.841  1.00  0.00     0.227 C 
HETATM   26  N   UNL     1      26.459  50.063  39.616  1.00  0.00    -0.354 N 
HETATM   27  H   UNL     1      26.295  50.536  38.726  1.00  0.00     0.162 HD
HETATM   28  O   UNL     1      25.968  48.264  40.936  1.00  0.00    -0.273 OA
BRANCH  26  29
HETATM   29  C   UNL     1      27.007  50.832  40.706  1.00  0.00     0.187 C 
BRANCH  29  30
HETATM   30  C   UNL     1      28.017  51.805  40.216  1.00  0.00     0.070 A 
HETATM   31  O   UNL     1      28.240  51.858  38.870  1.00  0.00    -0.325 OA
HETATM   32  C   UNL     1      29.169  52.823  38.654  1.00  0.00     0.142 A 
HETATM   33  C   UNL     1      29.543  53.404  39.843  1.00  0.00     0.027 A 
HETATM   34  C   UNL     1      28.799  52.748  40.854  1.00  0.00     0.036 A 
ENDBRANCH  29  30
ENDBRANCH  26  29
ENDBRANCH  24  25
ENDBRANCH  23  24
ENDBRANCH   4  23
TORSDOF 7
ENDMDL
MODEL 10
REMARK VINA RESULT:      -8.1      4.675      8.635
REMARK  7 active torsions:
REMARK  status: ('A' for Active; 'I' for Inactive)
REMARK    1  A    between atoms: C_3  and  C_4 
REMARK       I    between atoms: C_4  and  N_5 
REMARK    2  A    between atoms: N_5  and  C_6 
REMARK    3  A    between atoms: C_17  and  S_18 
REMARK    4  A    between atoms: S_18  and  C_19 
REMARK    5  A    between atoms: C_19  and  C_20 
REMARK       I    between atoms: C_20  and  N_21 
REMARK    6  A    between atoms: N_21  and  C_22 
REMARK    7  A    between atoms: C_22  and  C_23 
ROOT
HETATM    1  C   UNL     1      17.376  52.018  46.895  1.00  0.00     0.001 A 
HETATM    2  C   UNL     1      18.641  51.821  47.444  1.00  0.00     0.018 A 
HETATM    3  C   UNL     1      18.888  50.707  48.265  1.00  0.00     0.049 A 
HETATM    4  C   UNL     1      17.862  49.784  48.545  1.00  0.00     0.016 A 
HETATM    5  C   UNL     1      16.591  50.011  47.994  1.00  0.00     0.019 A 
HETATM    6  C   UNL     1      16.353  51.115  47.170  1.00  0.00     0.001 A 
ENDROOT
BRANCH   3   7
HETATM    7  C   UNL     1      20.249  50.553  48.837  1.00  0.00     0.257 C 
HETATM    8  N   UNL     1      21.107  49.798  48.056  1.00  0.00    -0.323 N 
HETATM    9  H   UNL     1      20.736  49.424  47.192  1.00  0.00     0.169 HD
HETATM   10  O   UNL     1      20.488  51.041  49.933  1.00  0.00    -0.267 OA
BRANCH   8  11
HETATM   11  C   UNL     1      22.424  49.404  48.384  1.00  0.00     0.037 A 
HETATM   12  C   UNL     1      23.561  50.125  47.999  1.00  0.00     0.061 A 
HETATM   13  C   UNL     1      24.780  49.644  48.418  1.00  0.00     0.065 A 
HETATM   14  C   UNL     1      24.908  48.489  49.184  1.00  0.00     0.063 A 
HETATM   15  N   UNL     1      26.053  50.158  48.201  1.00  0.00    -0.306 N 
HETATM   16  N   UNL     1      26.260  48.291  49.439  1.00  0.00    -0.307 N 
HETATM   17  C   UNL     1      23.818  47.751  49.569  1.00  0.00     0.034 A 
HETATM   18  C   UNL     1      26.988  49.327  48.833  1.00  0.00     0.325 A 
HETATM   19  H   UNL     1      26.682  47.547  49.969  1.00  0.00     0.170 HD
HETATM   20  O   UNL     1      28.197  49.475  48.859  1.00  0.00    -0.247 OA
HETATM   21  C   UNL     1      22.563  48.222  49.158  1.00  0.00     0.032 A 
HETATM   22  H   UNL     1      26.287  50.990  47.683  1.00  0.00     0.170 HD
ENDBRANCH   8  11
ENDBRANCH   3   7
BRANCH   4  23
HETATM   23  S   UNL     1      18.034  48.331  49.580  1.00  0.00    -0.120 SA
BRANCH  23  24
HETATM   24  C   UNL     1      16.932  47.169  48.708  1.00  0.00     0.182 C 
BRANCH  24  25
HETATM   25  C   UNL     1      17.644  46.470  47.563  1.00  0.00     0.227 C 
HETATM   26  N   UNL     1      18.013  45.166  47.790  1.00  0.00    -0.354 N 
HETATM   27  H   UNL     1      17.644  44.668  48.603  1.00  0.00     0.162 HD
HETATM   28  O   UNL     1      17.953  47.075  46.537  1.00  0.00    -0.273 OA
BRANCH  26  29
HETATM   29  C   UNL     1      18.667  44.397  46.759  1.00  0.00     0.187 C 
BRANCH  29  30
HETATM   30  C   UNL     1      20.130  44.316  47.002  1.00  0.00     0.070 A 
HETATM   31  O   UNL     1      20.752  43.135  46.715  1.00  0.00    -0.325 OA
HETATM   32  C   UNL     1      22.071  43.300  46.985  1.00  0.00     0.142 A 
HETATM   33  C   UNL     1      22.314  44.577  47.432  1.00  0.00     0.027 A 
HETATM   34  C   UNL     1      21.060  45.236  47.444  1.00  0.00     0.036 A 
ENDBRANCH  29  30
ENDBRANCH  26  29
ENDBRANCH  24  25
ENDBRANCH  23  24
ENDBRANCH   4  23
TORSDOF 7
ENDMDL
