MODEL 1
REMARK VINA RESULT:      -7.0      0.000      0.000
REMARK  10 active torsions:
REMARK  status: ('A' for Active; 'I' for Inactive)
REMARK    1  A    between atoms: C_6  and  C_7 
REMARK    2  A    between atoms: C_7  and  C_8 
REMARK       I    between atoms: C_8  and  N_9 
REMARK    3  A    between atoms: N_9  and  C_10 
REMARK    4  A    between atoms: C_10  and  C_11 
REMARK    5  A    between atoms: C_11  and  N_12 
REMARK    6  A    between atoms: C_19  and  C_20 
REMARK    7  A    between atoms: C_29  and  C_30 
REMARK    8  A    between atoms: C_30  and  O_31 
REMARK    9  A    between atoms: O_31  and  C_32 
REMARK   10  A    between atoms: C_32  and  C_33 
ROOT
HETATM    1  C   UNL     1      29.862  48.252  42.724  1.00  0.00     0.071 C 
HETATM    2  C   UNL     1      29.236  48.982  41.563  1.00  0.00     0.048 C 
HETATM    3  N   UNL     1      28.533  50.125  41.923  1.00  0.00    -0.229 NA
HETATM    4  C   UNL     1      28.312  50.991  40.993  1.00  0.00     0.170 C 
HETATM    5  N   UNL     1      28.764  50.779  39.527  1.00  0.00    -0.319 N 
HETATM    6  C   UNL     1      29.212  51.890  39.049  1.00  0.00     0.011 C 
HETATM    7  C   UNL     1      28.722  49.351  39.149  1.00  0.00     0.166 C 
HETATM    8  S   UNL     1      27.805  52.618  41.260  1.00  0.00    -0.086 SA
HETATM    9  C   UNL     1      28.718  53.139  39.765  1.00  0.00     0.135 C 
HETATM   10  C   UNL     1      29.366  48.600  40.274  1.00  0.00     0.069 C 
ENDROOT
BRANCH   6  11
HETATM   11  C   UNL     1      30.196  51.907  37.914  1.00  0.00     0.156 C 
BRANCH  11  12
HETATM   12  C   UNL     1      31.576  51.484  38.387  1.00  0.00     0.223 C 
HETATM   13  N   UNL     1      31.921  51.843  39.677  1.00  0.00    -0.359 N 
HETATM   14  H   UNL     1      31.165  51.922  40.352  1.00  0.00     0.162 HD
HETATM   15  O   UNL     1      32.374  50.994  37.599  1.00  0.00    -0.273 OA
BRANCH  13  16
HETATM   16  C   UNL     1      33.236  51.451  40.205  1.00  0.00     0.150 C 
BRANCH  16  17
HETATM   17  C   UNL     1      33.242  50.074  40.904  1.00  0.00     0.254 C 
BRANCH  17  18
HETATM   18  N   UNL     1      33.504  50.189  42.389  1.00  0.00    -0.070 N 
HETATM   19  H   UNL     1      33.952  49.318  42.714  1.00  0.00     0.279 HD
HETATM   20  C   UNL     1      32.264  50.401  43.250  1.00  0.00     0.235 C 
HETATM   21  C   UNL     1      32.407  51.811  43.786  1.00  0.00     0.029 C 
HETATM   22  C   UNL     1      33.899  51.945  43.993  1.00  0.00     0.029 C 
HETATM   23  C   UNL     1      34.475  51.319  42.738  1.00  0.00     0.235 C 
ENDBRANCH  17  18
ENDBRANCH  16  17
ENDBRANCH  13  16
ENDBRANCH  11  12
ENDBRANCH   6  11
BRANCH   7  24
HETATM   24  C   UNL     1      27.262  48.943  38.871  1.00  0.00    -0.030 A 
HETATM   25  C   UNL     1      26.566  48.108  39.769  1.00  0.00     0.011 A 
HETATM   26  C   UNL     1      25.275  47.647  39.478  1.00  0.00     0.024 A 
HETATM   27  C   UNL     1      24.644  48.032  38.299  1.00  0.00     0.034 A 
HETATM   28 CL   UNL     1      23.076  47.437  37.928  1.00  0.00    -0.084 Cl
HETATM   29  C   UNL     1      25.284  48.892  37.419  1.00  0.00     0.024 A 
HETATM   30  C   UNL     1      26.577  49.349  37.704  1.00  0.00     0.011 A 
ENDBRANCH   7  24
BRANCH  10  31
HETATM   31  C   UNL     1      30.190  47.458  39.859  1.00  0.00     0.294 C 
HETATM   32  O   UNL     1      31.359  47.538  39.547  1.00  0.00    -0.259 OA
BRANCH  31  33
HETATM   33  O   UNL     1      29.426  46.349  39.984  1.00  0.00    -0.314 OA
BRANCH  33  34
HETATM   34  C   UNL     1      29.595  45.424  38.898  1.00  0.00     0.206 C 
BRANCH  34  35
HETATM   35  C   UNL     1      28.864  45.925  37.685  1.00  0.00    -0.011 C 
HETATM   36  C   UNL     1      27.644  45.565  37.261  1.00  0.00     0.009 C 
ENDBRANCH  34  35
ENDBRANCH  33  34
ENDBRANCH  31  33
ENDBRANCH  10  31
TORSDOF 10
ENDMDL
MODEL 2
REMARK VINA RESULT:      -6.5     11.103     12.405
REMARK  10 active torsions:
REMARK  status: ('A' for Active; 'I' for Inactive)
REMARK    1  A    between atoms: C_6  and  C_7 
REMARK    2  A    between atoms: C_7  and  C_8 
REMARK       I    between atoms: C_8  and  N_9 
REMARK    3  A    between atoms: N_9  and  C_10 
REMARK    4  A    between atoms: C_10  and  C_11 
REMARK    5  A    between atoms: C_11  and  N_12 
REMARK    6  A    between atoms: C_19  and  C_20 
REMARK    7  A    between atoms: C_29  and  C_30 
REMARK    8  A    between atoms: C_30  and  O_31 
REMARK    9  A    between atoms: O_31  and  C_32 
REMARK   10  A    between atoms: C_32  and  C_33 
ROOT
HETATM    1  C   UNL     1      19.823  45.231  48.605  1.00  0.00     0.071 C 
HETATM    2  C   UNL     1      19.701  46.714  48.361  1.00  0.00     0.048 C 
HETATM    3  N   UNL     1      19.028  47.401  49.363  1.00  0.00    -0.229 NA
HETATM    4  C   UNL     1      19.219  48.675  49.426  1.00  0.00     0.170 C 
HETATM    5  N   UNL     1      20.121  49.436  48.424  1.00  0.00    -0.319 N 
HETATM    6  C   UNL     1      20.806  50.329  49.053  1.00  0.00     0.011 C 
HETATM    7  C   UNL     1      20.077  48.822  47.081  1.00  0.00     0.166 C 
HETATM    8  S   UNL     1      18.806  49.669  50.774  1.00  0.00    -0.086 SA
HETATM    9  C   UNL     1      20.218  50.764  50.388  1.00  0.00     0.135 C 
HETATM   10  C   UNL     1      20.226  47.347  47.289  1.00  0.00     0.069 C 
ENDROOT
BRANCH   6  11
HETATM   11  C   UNL     1      22.115  50.830  48.511  1.00  0.00     0.156 C 
BRANCH  11  12
HETATM   12  C   UNL     1      23.112  49.693  48.369  1.00  0.00     0.223 C 
HETATM   13  N   UNL     1      23.214  48.825  49.442  1.00  0.00    -0.359 N 
HETATM   14  H   UNL     1      22.378  48.689  50.005  1.00  0.00     0.162 HD
HETATM   15  O   UNL     1      23.882  49.663  47.417  1.00  0.00    -0.273 OA
BRANCH  13  16
HETATM   16  C   UNL     1      24.148  47.693  49.365  1.00  0.00     0.150 C 
BRANCH  16  17
HETATM   17  C   UNL     1      24.615  47.175  50.742  1.00  0.00     0.254 C 
BRANCH  17  18
HETATM   18  N   UNL     1      25.223  45.793  50.656  1.00  0.00    -0.070 N 
HETATM   19  H   UNL     1      26.247  45.876  50.749  1.00  0.00     0.279 HD
HETATM   20  C   UNL     1      24.951  45.047  49.354  1.00  0.00     0.235 C 
HETATM   21  C   UNL     1      24.042  43.902  49.752  1.00  0.00     0.029 C 
HETATM   22  C   UNL     1      24.552  43.525  51.125  1.00  0.00     0.029 C 
HETATM   23  C   UNL     1      24.770  44.870  51.789  1.00  0.00     0.235 C 
ENDBRANCH  17  18
ENDBRANCH  16  17
ENDBRANCH  13  16
ENDBRANCH  11  12
ENDBRANCH   6  11
BRANCH   7  24
HETATM   24  C   UNL     1      18.767  49.231  46.378  1.00  0.00    -0.030 A 
HETATM   25  C   UNL     1      18.560  50.564  45.967  1.00  0.00     0.011 A 
HETATM   26  C   UNL     1      17.335  50.971  45.421  1.00  0.00     0.024 A 
HETATM   27  C   UNL     1      16.305  50.052  45.249  1.00  0.00     0.034 A 
HETATM   28 CL   UNL     1      14.793  50.561  44.613  1.00  0.00    -0.084 Cl
HETATM   29  C   UNL     1      16.496  48.723  45.599  1.00  0.00     0.024 A 
HETATM   30  C   UNL     1      17.717  48.315  46.152  1.00  0.00     0.011 A 
ENDBRANCH   7  24
BRANCH  10  31
HETATM   31  C   UNL     1      21.031  46.659  46.272  1.00  0.00     0.294 C 
HETATM   32  O   UNL     1      22.185  46.322  46.429  1.00  0.00    -0.259 OA
BRANCH  31  33
HETATM   33  O   UNL     1      20.221  46.419  45.216  1.00  0.00    -0.314 OA
BRANCH  33  34
HETATM   34  C   UNL     1      19.923  45.025  45.042  1.00  0.00     0.206 C 
BRANCH  34  35
HETATM   35  C   UNL     1      18.443  44.839  44.859  1.00  0.00    -0.011 C 
HETATM   36  C   UNL     1      17.532  44.572  45.805  1.00  0.00     0.009 C 
ENDBRANCH  34  35
ENDBRANCH  33  34
ENDBRANCH  31  33
ENDBRANCH  10  31
TORSDOF 10
ENDMDL
MODEL 3
REMARK VINA RESULT:      -6.4     11.579     13.733
REMARK  10 active torsions:
REMARK  status: ('A' for Active; 'I' for Inactive)
REMARK    1  A    between atoms: C_6  and  C_7 
REMARK    2  A    between atoms: C_7  and  C_8 
REMARK       I    between atoms: C_8  and  N_9 
REMARK    3  A    between atoms: N_9  and  C_10 
REMARK    4  A    between atoms: C_10  and  C_11 
REMARK    5  A    between atoms: C_11  and  N_12 
REMARK    6  A    between atoms: C_19  and  C_20 
REMARK    7  A    between atoms: C_29  and  C_30 
REMARK    8  A    between atoms: C_30  and  O_31 
REMARK    9  A    between atoms: O_31  and  C_32 
REMARK   10  A    between atoms: C_32  and  C_33 
ROOT
HETATM    1  C   UNL     1      16.723  48.280  44.808  1.00  0.00     0.071 C 
HETATM    2  C   UNL     1      17.369  49.009  45.960  1.00  0.00     0.048 C 
HETATM    3  N   UNL     1      17.435  48.271  47.135  1.00  0.00    -0.229 NA
HETATM    4  C   UNL     1      18.293  48.655  48.017  1.00  0.00     0.170 C 
HETATM    5  N   UNL     1      19.195  49.898  47.822  1.00  0.00    -0.319 N 
HETATM    6  C   UNL     1      20.380  49.645  48.262  1.00  0.00     0.011 C 
HETATM    7  C   UNL     1      18.508  50.948  47.041  1.00  0.00     0.166 C 
HETATM    8  S   UNL     1      18.817  47.709  49.361  1.00  0.00    -0.086 SA
HETATM    9  C   UNL     1      20.457  48.511  49.276  1.00  0.00     0.135 C 
HETATM   10  C   UNL     1      17.880  50.256  45.871  1.00  0.00     0.069 C 
ENDROOT
BRANCH   6  11
HETATM   11  C   UNL     1      21.578  50.387  47.742  1.00  0.00     0.156 C 
BRANCH  11  12
HETATM   12  C   UNL     1      22.799  50.118  48.606  1.00  0.00     0.223 C 
HETATM   13  N   UNL     1      23.532  48.986  48.302  1.00  0.00    -0.359 N 
HETATM   14  H   UNL     1      23.532  48.684  47.331  1.00  0.00     0.162 HD
HETATM   15  O   UNL     1      23.006  50.793  49.607  1.00  0.00    -0.273 OA
BRANCH  13  16
HETATM   16  C   UNL     1      24.734  48.675  49.088  1.00  0.00     0.150 C 
BRANCH  16  17
HETATM   17  C   UNL     1      24.541  47.519  50.092  1.00  0.00     0.254 C 
BRANCH  17  18
HETATM   18  N   UNL     1      25.828  47.156  50.800  1.00  0.00    -0.070 N 
HETATM   19  H   UNL     1      26.467  47.965  50.758  1.00  0.00     0.279 HD
HETATM   20  C   UNL     1      26.574  45.964  50.212  1.00  0.00     0.235 C 
HETATM   21  C   UNL     1      26.463  44.884  51.268  1.00  0.00     0.029 C 
HETATM   22  C   UNL     1      26.527  45.666  52.562  1.00  0.00     0.029 C 
HETATM   23  C   UNL     1      25.626  46.854  52.287  1.00  0.00     0.235 C 
ENDBRANCH  17  18
ENDBRANCH  16  17
ENDBRANCH  13  16
ENDBRANCH  11  12
ENDBRANCH   6  11
BRANCH   7  24
HETATM   24  C   UNL     1      17.506  51.685  47.952  1.00  0.00    -0.030 A 
HETATM   25  C   UNL     1      17.959  52.444  49.050  1.00  0.00     0.011 A 
HETATM   26  C   UNL     1      17.055  53.033  49.945  1.00  0.00     0.024 A 
HETATM   27  C   UNL     1      15.685  52.900  49.745  1.00  0.00     0.034 A 
HETATM   28 CL   UNL     1      14.580  53.593  50.862  1.00  0.00    -0.084 Cl
HETATM   29  C   UNL     1      15.209  52.200  48.645  1.00  0.00     0.024 A 
HETATM   30  C   UNL     1      16.110  51.604  47.754  1.00  0.00     0.011 A 
ENDBRANCH   7  24
BRANCH  10  31
HETATM   31  C   UNL     1      17.917  51.016  44.615  1.00  0.00     0.294 C 
HETATM   32  O   UNL     1      18.838  50.986  43.826  1.00  0.00    -0.259 OA
BRANCH  31  33
HETATM   33  O   UNL     1      16.727  51.647  44.494  1.00  0.00    -0.314 OA
BRANCH  33  34
HETATM   34  C   UNL     1      16.859  53.063  44.292  1.00  0.00     0.206 C 
BRANCH  34  35
HETATM   35  C   UNL     1      15.624  53.764  44.783  1.00  0.00    -0.011 C 
HETATM   36  C   UNL     1      14.367  53.298  44.784  1.00  0.00     0.009 C 
ENDBRANCH  34  35
ENDBRANCH  33  34
ENDBRANCH  31  33
ENDBRANCH  10  31
TORSDOF 10
ENDMDL
MODEL 4
REMARK VINA RESULT:      -6.3     26.233     28.369
REMARK  10 active torsions:
REMARK  status: ('A' for Active; 'I' for Inactive)
REMARK    1  A    between atoms: C_6  and  C_7 
REMARK    2  A    between atoms: C_7  and  C_8 
REMARK       I    between atoms: C_8  and  N_9 
REMARK    3  A    between atoms: N_9  and  C_10 
REMARK    4  A    between atoms: C_10  and  C_11 
REMARK    5  A    between atoms: C_11  and  N_12 
REMARK    6  A    between atoms: C_19  and  C_20 
REMARK    7  A    between atoms: C_29  and  C_30 
REMARK    8  A    between atoms: C_30  and  O_31 
REMARK    9  A    between atoms: O_31  and  C_32 
REMARK   10  A    between atoms: C_32  and  C_33 
ROOT
HETATM    1  C   UNL     1      36.325  44.297  66.607  1.00  0.00     0.071 C 
HETATM    2  C   UNL     1      37.496  45.242  66.506  1.00  0.00     0.048 C 
HETATM    3  N   UNL     1      38.103  45.527  67.722  1.00  0.00    -0.229 NA
HETATM    4  C   UNL     1      39.305  45.991  67.679  1.00  0.00     0.170 C 
HETATM    5  N   UNL     1      40.051  46.262  66.350  1.00  0.00    -0.319 N 
HETATM    6  C   UNL     1      41.283  45.898  66.464  1.00  0.00     0.011 C 
HETATM    7  C   UNL     1      39.120  46.690  65.285  1.00  0.00     0.166 C 
HETATM    8  S   UNL     1      40.382  46.066  69.025  1.00  0.00    -0.086 SA
HETATM    9  C   UNL     1      41.798  45.826  67.895  1.00  0.00     0.135 C 
HETATM   10  C   UNL     1      37.957  45.749  65.341  1.00  0.00     0.069 C 
ENDROOT
BRANCH   6  11
HETATM   11  C   UNL     1      42.096  45.518  65.260  1.00  0.00     0.156 C 
BRANCH  11  12
HETATM   12  C   UNL     1      41.725  44.127  64.774  1.00  0.00     0.223 C 
HETATM   13  N   UNL     1      41.914  43.090  65.670  1.00  0.00    -0.359 N 
HETATM   14  H   UNL     1      41.825  43.314  66.658  1.00  0.00     0.162 HD
HETATM   15  O   UNL     1      41.430  43.943  63.599  1.00  0.00    -0.273 OA
BRANCH  13  16
HETATM   16  C   UNL     1      41.560  41.721  65.270  1.00  0.00     0.150 C 
BRANCH  16  17
HETATM   17  C   UNL     1      42.580  40.655  65.724  1.00  0.00     0.254 C 
BRANCH  17  18
HETATM   18  N   UNL     1      41.956  39.283  65.848  1.00  0.00    -0.070 N 
HETATM   19  H   UNL     1      42.365  38.807  66.667  1.00  0.00     0.279 HD
HETATM   20  C   UNL     1      42.165  38.367  64.648  1.00  0.00     0.235 C 
HETATM   21  C   UNL     1      40.787  38.213  64.039  1.00  0.00     0.029 C 
HETATM   22  C   UNL     1      39.879  38.215  65.249  1.00  0.00     0.029 C 
HETATM   23  C   UNL     1      40.448  39.334  66.100  1.00  0.00     0.235 C 
ENDBRANCH  17  18
ENDBRANCH  16  17
ENDBRANCH  13  16
ENDBRANCH  11  12
ENDBRANCH   6  11
BRANCH   7  24
HETATM   24  C   UNL     1      38.747  48.170  65.502  1.00  0.00    -0.030 A 
HETATM   25  C   UNL     1      39.727  49.179  65.407  1.00  0.00     0.011 A 
HETATM   26  C   UNL     1      39.422  50.514  65.702  1.00  0.00     0.024 A 
HETATM   27  C   UNL     1      38.129  50.873  66.070  1.00  0.00     0.034 A 
HETATM   28 CL   UNL     1      37.767  52.504  66.465  1.00  0.00    -0.084 Cl
HETATM   29  C   UNL     1      37.132  49.910  66.124  1.00  0.00     0.024 A 
HETATM   30  C   UNL     1      37.435  48.573  65.836  1.00  0.00     0.011 A 
ENDBRANCH   7  24
BRANCH  10  31
HETATM   31  C   UNL     1      37.399  45.380  64.034  1.00  0.00     0.294 C 
HETATM   32  O   UNL     1      36.474  45.955  63.500  1.00  0.00    -0.259 OA
BRANCH  31  33
HETATM   33  O   UNL     1      38.160  44.375  63.544  1.00  0.00    -0.314 OA
BRANCH  33  34
HETATM   34  C   UNL     1      37.396  43.210  63.196  1.00  0.00     0.206 C 
BRANCH  34  35
HETATM   35  C   UNL     1      38.170  41.970  63.546  1.00  0.00    -0.011 C 
HETATM   36  C   UNL     1      38.923  41.221  62.728  1.00  0.00     0.009 C 
ENDBRANCH  34  35
ENDBRANCH  33  34
ENDBRANCH  31  33
ENDBRANCH  10  31
TORSDOF 10
ENDMDL
MODEL 5
REMARK VINA RESULT:      -6.3     13.993     16.469
REMARK  10 active torsions:
REMARK  status: ('A' for Active; 'I' for Inactive)
REMARK    1  A    between atoms: C_6  and  C_7 
REMARK    2  A    between atoms: C_7  and  C_8 
REMARK       I    between atoms: C_8  and  N_9 
REMARK    3  A    between atoms: N_9  and  C_10 
REMARK    4  A    between atoms: C_10  and  C_11 
REMARK    5  A    between atoms: C_11  and  N_12 
REMARK    6  A    between atoms: C_19  and  C_20 
REMARK    7  A    between atoms: C_29  and  C_30 
REMARK    8  A    between atoms: C_30  and  O_31 
REMARK    9  A    between atoms: O_31  and  C_32 
REMARK   10  A    between atoms: C_32  and  C_33 
ROOT
HETATM    1  C   UNL     1      16.157  48.401  43.629  1.00  0.00     0.071 C 
HETATM    2  C   UNL     1      16.354  49.645  44.458  1.00  0.00     0.048 C 
HETATM    3  N   UNL     1      16.831  50.736  43.743  1.00  0.00    -0.229 NA
HETATM    4  C   UNL     1      16.657  51.900  44.270  1.00  0.00     0.170 C 
HETATM    5  N   UNL     1      15.984  52.102  45.650  1.00  0.00    -0.319 N 
HETATM    6  C   UNL     1      15.206  53.130  45.604  1.00  0.00     0.011 C 
HETATM    7  C   UNL     1      16.278  50.980  46.565  1.00  0.00     0.166 C 
HETATM    8  S   UNL     1      16.817  53.398  43.429  1.00  0.00    -0.086 SA
HETATM    9  C   UNL     1      15.530  54.128  44.502  1.00  0.00     0.135 C 
HETATM   10  C   UNL     1      16.062  49.726  45.775  1.00  0.00     0.069 C 
ENDROOT
BRANCH   6  11
HETATM   11  C   UNL     1      14.039  53.264  46.541  1.00  0.00     0.156 C 
BRANCH  11  12
HETATM   12  C   UNL     1      14.322  54.305  47.612  1.00  0.00     0.223 C 
HETATM   13  N   UNL     1      14.916  53.847  48.773  1.00  0.00    -0.359 N 
HETATM   14  H   UNL     1      15.525  53.037  48.692  1.00  0.00     0.162 HD
HETATM   15  O   UNL     1      13.893  55.446  47.491  1.00  0.00    -0.273 OA
BRANCH  13  16
HETATM   16  C   UNL     1      15.232  54.802  49.844  1.00  0.00     0.150 C 
BRANCH  16  17
HETATM   17  C   UNL     1      14.182  54.842  50.975  1.00  0.00     0.254 C 
BRANCH  17  18
HETATM   18  N   UNL     1      13.962  56.243  51.502  1.00  0.00    -0.070 N 
HETATM   19  H   UNL     1      13.267  56.205  52.263  1.00  0.00     0.279 HD
HETATM   20  C   UNL     1      13.447  57.245  50.475  1.00  0.00     0.235 C 
HETATM   21  C   UNL     1      14.596  58.212  50.274  1.00  0.00     0.029 C 
HETATM   22  C   UNL     1      15.211  58.300  51.653  1.00  0.00     0.029 C 
HETATM   23  C   UNL     1      15.224  56.856  52.113  1.00  0.00     0.235 C 
ENDBRANCH  17  18
ENDBRANCH  16  17
ENDBRANCH  13  16
ENDBRANCH  11  12
ENDBRANCH   6  11
BRANCH   7  24
HETATM   24  C   UNL     1      17.708  51.139  47.119  1.00  0.00    -0.030 A 
HETATM   25  C   UNL     1      18.753  50.313  46.656  1.00  0.00     0.011 A 
HETATM   26  C   UNL     1      20.033  50.378  47.224  1.00  0.00     0.024 A 
HETATM   27  C   UNL     1      20.301  51.286  48.244  1.00  0.00     0.034 A 
HETATM   28 CL   UNL     1      21.860  51.338  48.962  1.00  0.00    -0.084 Cl
HETATM   29  C   UNL     1      19.306  52.145  48.686  1.00  0.00     0.024 A 
HETATM   30  C   UNL     1      18.024  52.078  48.126  1.00  0.00     0.011 A 
ENDBRANCH   7  24
BRANCH  10  31
HETATM   31  C   UNL     1      15.458  48.620  46.529  1.00  0.00     0.294 C 
HETATM   32  O   UNL     1      14.267  48.396  46.574  1.00  0.00    -0.259 OA
BRANCH  31  33
HETATM   33  O   UNL     1      16.471  47.896  47.055  1.00  0.00    -0.314 OA
BRANCH  33  34
HETATM   34  C   UNL     1      16.375  47.745  48.480  1.00  0.00     0.206 C 
BRANCH  34  35
HETATM   35  C   UNL     1      17.750  47.650  49.076  1.00  0.00    -0.011 C 
HETATM   36  C   UNL     1      18.331  48.508  49.928  1.00  0.00     0.009 C 
ENDBRANCH  34  35
ENDBRANCH  33  34
ENDBRANCH  31  33
ENDBRANCH  10  31
TORSDOF 10
ENDMDL
MODEL 6
REMARK VINA RESULT:      -6.2     11.748     14.490
REMARK  10 active torsions:
REMARK  status: ('A' for Active; 'I' for Inactive)
REMARK    1  A    between atoms: C_6  and  C_7 
REMARK    2  A    between atoms: C_7  and  C_8 
REMARK       I    between atoms: C_8  and  N_9 
REMARK    3  A    between atoms: N_9  and  C_10 
REMARK    4  A    between atoms: C_10  and  C_11 
REMARK    5  A    between atoms: C_11  and  N_12 
REMARK    6  A    between atoms: C_19  and  C_20 
REMARK    7  A    between atoms: C_29  and  C_30 
REMARK    8  A    between atoms: C_30  and  O_31 
REMARK    9  A    between atoms: O_31  and  C_32 
REMARK   10  A    between atoms: C_32  and  C_33 
ROOT
HETATM    1  C   UNL     1      19.073  49.756  50.969  1.00  0.00     0.071 C 
HETATM    2  C   UNL     1      19.301  48.970  49.703  1.00  0.00     0.048 C 
HETATM    3  N   UNL     1      18.511  47.834  49.589  1.00  0.00    -0.229 NA
HETATM    4  C   UNL     1      18.362  47.343  48.406  1.00  0.00     0.170 C 
HETATM    5  N   UNL     1      19.049  47.947  47.157  1.00  0.00    -0.319 N 
HETATM    6  C   UNL     1      18.229  47.928  46.162  1.00  0.00     0.011 C 
HETATM    7  C   UNL     1      20.366  48.527  47.491  1.00  0.00     0.166 C 
HETATM    8  S   UNL     1      17.158  46.190  47.960  1.00  0.00    -0.086 SA
HETATM    9  C   UNL     1      17.102  46.912  46.281  1.00  0.00     0.135 C 
HETATM   10  C   UNL     1      20.165  49.340  48.732  1.00  0.00     0.069 C 
ENDROOT
BRANCH   6  11
HETATM   11  C   UNL     1      18.367  48.896  45.022  1.00  0.00     0.156 C 
BRANCH  11  12
HETATM   12  C   UNL     1      17.438  50.084  45.204  1.00  0.00     0.223 C 
HETATM   13  N   UNL     1      17.529  50.758  46.409  1.00  0.00    -0.359 N 
HETATM   14  H   UNL     1      18.435  50.758  46.869  1.00  0.00     0.162 HD
HETATM   15  O   UNL     1      16.559  50.312  44.382  1.00  0.00    -0.273 OA
BRANCH  13  16
HETATM   16  C   UNL     1      16.671  51.927  46.645  1.00  0.00     0.150 C 
BRANCH  16  17
HETATM   17  C   UNL     1      15.836  51.836  47.941  1.00  0.00     0.254 C 
BRANCH  17  18
HETATM   18  N   UNL     1      15.719  53.173  48.640  1.00  0.00    -0.070 N 
HETATM   19  H   UNL     1      16.481  53.785  48.312  1.00  0.00     0.279 HD
HETATM   20  C   UNL     1      15.814  53.116  50.161  1.00  0.00     0.235 C 
HETATM   21  C   UNL     1      14.427  53.487  50.644  1.00  0.00     0.029 C 
HETATM   22  C   UNL     1      13.976  54.514  49.629  1.00  0.00     0.029 C 
HETATM   23  C   UNL     1      14.417  53.906  48.312  1.00  0.00     0.235 C 
ENDBRANCH  17  18
ENDBRANCH  16  17
ENDBRANCH  13  16
ENDBRANCH  11  12
ENDBRANCH   6  11
BRANCH   7  24
HETATM   24  C   UNL     1      21.398  47.390  47.641  1.00  0.00    -0.030 A 
HETATM   25  C   UNL     1      21.485  46.369  46.673  1.00  0.00     0.011 A 
HETATM   26  C   UNL     1      22.347  45.277  46.849  1.00  0.00     0.024 A 
HETATM   27  C   UNL     1      23.155  45.198  47.978  1.00  0.00     0.034 A 
HETATM   28 CL   UNL     1      24.182  43.841  48.208  1.00  0.00    -0.084 Cl
HETATM   29  C   UNL     1      23.126  46.212  48.924  1.00  0.00     0.024 A 
HETATM   30  C   UNL     1      22.262  47.301  48.755  1.00  0.00     0.011 A 
ENDBRANCH   7  24
BRANCH  10  31
HETATM   31  C   UNL     1      20.933  50.590  48.781  1.00  0.00     0.294 C 
HETATM   32  O   UNL     1      20.512  51.664  48.406  1.00  0.00    -0.259 OA
BRANCH  31  33
HETATM   33  O   UNL     1      22.111  50.312  49.384  1.00  0.00    -0.314 OA
BRANCH  33  34
HETATM   34  C   UNL     1      23.188  51.142  48.924  1.00  0.00     0.206 C 
BRANCH  34  35
HETATM   35  C   UNL     1      24.090  50.352  48.020  1.00  0.00    -0.011 C 
HETATM   36  C   UNL     1      25.162  49.625  48.369  1.00  0.00     0.009 C 
ENDBRANCH  34  35
ENDBRANCH  33  34
ENDBRANCH  31  33
ENDBRANCH  10  31
TORSDOF 10
ENDMDL
MODEL 7
REMARK VINA RESULT:      -6.2     12.332     14.906
REMARK  10 active torsions:
REMARK  status: ('A' for Active; 'I' for Inactive)
REMARK    1  A    between atoms: C_6  and  C_7 
REMARK    2  A    between atoms: C_7  and  C_8 
REMARK       I    between atoms: C_8  and  N_9 
REMARK    3  A    between atoms: N_9  and  C_10 
REMARK    4  A    between atoms: C_10  and  C_11 
REMARK    5  A    between atoms: C_11  and  N_12 
REMARK    6  A    between atoms: C_19  and  C_20 
REMARK    7  A    between atoms: C_29  and  C_30 
REMARK    8  A    between atoms: C_30  and  O_31 
REMARK    9  A    between atoms: O_31  and  C_32 
REMARK   10  A    between atoms: C_32  and  C_33 
ROOT
HETATM    1  C   UNL     1      13.792  52.278  42.761  1.00  0.00     0.071 C 
HETATM    2  C   UNL     1      14.475  51.646  43.947  1.00  0.00     0.048 C 
HETATM    3  N   UNL     1      13.768  50.594  44.516  1.00  0.00    -0.229 NA
HETATM    4  C   UNL     1      14.436  49.774  45.254  1.00  0.00     0.170 C 
HETATM    5  N   UNL     1      15.947  49.948  45.542  1.00  0.00    -0.319 N 
HETATM    6  C   UNL     1      16.527  48.796  45.510  1.00  0.00     0.011 C 
HETATM    7  C   UNL     1      16.327  51.374  45.597  1.00  0.00     0.166 C 
HETATM    8  S   UNL     1      13.880  48.219  45.753  1.00  0.00    -0.086 SA
HETATM    9  C   UNL     1      15.603  47.608  45.738  1.00  0.00     0.135 C 
HETATM   10  C   UNL     1      15.686  52.025  44.411  1.00  0.00     0.069 C 
ENDROOT
BRANCH   6  11
HETATM   11  C   UNL     1      17.992  48.672  45.203  1.00  0.00     0.156 C 
BRANCH  11  12
HETATM   12  C   UNL     1      18.725  47.970  46.334  1.00  0.00     0.223 C 
HETATM   13  N   UNL     1      18.652  48.568  47.579  1.00  0.00    -0.359 N 
HETATM   14  H   UNL     1      17.813  49.104  47.785  1.00  0.00     0.162 HD
HETATM   15  O   UNL     1      19.460  47.020  46.096  1.00  0.00    -0.273 OA
BRANCH  13  16
HETATM   16  C   UNL     1      19.324  47.933  48.722  1.00  0.00     0.150 C 
BRANCH  16  17
HETATM   17  C   UNL     1      19.170  48.710  50.047  1.00  0.00     0.254 C 
BRANCH  17  18
HETATM   18  N   UNL     1      20.176  49.832  50.172  1.00  0.00    -0.070 N 
HETATM   19  H   UNL     1      20.572  49.816  51.125  1.00  0.00     0.279 HD
HETATM   20  C   UNL     1      19.615  51.231  49.943  1.00  0.00     0.235 C 
HETATM   21  C   UNL     1      20.253  51.692  48.649  1.00  0.00     0.029 C 
HETATM   22  C   UNL     1      21.635  51.081  48.714  1.00  0.00     0.029 C 
HETATM   23  C   UNL     1      21.364  49.678  49.219  1.00  0.00     0.235 C 
ENDBRANCH  17  18
ENDBRANCH  16  17
ENDBRANCH  13  16
ENDBRANCH  11  12
ENDBRANCH   6  11
BRANCH   7  24
HETATM   24  C   UNL     1      15.892  51.963  46.953  1.00  0.00    -0.030 A 
HETATM   25  C   UNL     1      16.303  51.364  48.161  1.00  0.00     0.011 A 
HETATM   26  C   UNL     1      15.832  51.828  49.397  1.00  0.00     0.024 A 
HETATM   27  C   UNL     1      14.964  52.914  49.453  1.00  0.00     0.034 A 
HETATM   28 CL   UNL     1      14.360  53.457  50.966  1.00  0.00    -0.084 Cl
HETATM   29  C   UNL     1      14.581  53.555  48.284  1.00  0.00     0.024 A 
HETATM   30  C   UNL     1      15.044  53.090  47.047  1.00  0.00     0.011 A 
ENDBRANCH   7  24
BRANCH  10  31
HETATM   31  C   UNL     1      16.499  53.063  43.764  1.00  0.00     0.294 C 
HETATM   32  O   UNL     1      16.196  54.236  43.718  1.00  0.00    -0.259 OA
BRANCH  31  33
HETATM   33  O   UNL     1      17.637  52.470  43.336  1.00  0.00    -0.314 OA
BRANCH  33  34
HETATM   34  C   UNL     1      17.509  51.883  42.031  1.00  0.00     0.206 C 
BRANCH  34  35
HETATM   35  C   UNL     1      18.670  52.297  41.172  1.00  0.00    -0.011 C 
HETATM   36  C   UNL     1      19.777  51.591  40.900  1.00  0.00     0.009 C 
ENDBRANCH  34  35
ENDBRANCH  33  34
ENDBRANCH  31  33
ENDBRANCH  10  31
TORSDOF 10
ENDMDL
MODEL 8
REMARK VINA RESULT:      -6.1     10.628     12.702
REMARK  10 active torsions:
REMARK  status: ('A' for Active; 'I' for Inactive)
REMARK    1  A    between atoms: C_6  and  C_7 
REMARK    2  A    between atoms: C_7  and  C_8 
REMARK       I    between atoms: C_8  and  N_9 
REMARK    3  A    between atoms: N_9  and  C_10 
REMARK    4  A    between atoms: C_10  and  C_11 
REMARK    5  A    between atoms: C_11  and  N_12 
REMARK    6  A    between atoms: C_19  and  C_20 
REMARK    7  A    between atoms: C_29  and  C_30 
REMARK    8  A    between atoms: C_30  and  O_31 
REMARK    9  A    between atoms: O_31  and  C_32 
REMARK   10  A    between atoms: C_32  and  C_33 
ROOT
HETATM    1  C   UNL     1      16.088  47.528  47.339  1.00  0.00     0.071 C 
HETATM    2  C   UNL     1      16.674  48.911  47.210  1.00  0.00     0.048 C 
HETATM    3  N   UNL     1      15.903  49.912  47.787  1.00  0.00    -0.229 NA
HETATM    4  C   UNL     1      16.498  51.023  48.060  1.00  0.00     0.170 C 
HETATM    5  N   UNL     1      17.992  51.273  47.737  1.00  0.00    -0.319 N 
HETATM    6  C   UNL     1      18.541  51.917  48.710  1.00  0.00     0.011 C 
HETATM    7  C   UNL     1      18.407  50.564  46.509  1.00  0.00     0.166 C 
HETATM    8  S   UNL     1      15.869  52.251  49.095  1.00  0.00    -0.086 SA
HETATM    9  C   UNL     1      17.572  52.693  49.591  1.00  0.00     0.135 C 
HETATM   10  C   UNL     1      17.862  49.174  46.623  1.00  0.00     0.069 C 
ENDROOT
BRANCH   6  11
HETATM   11  C   UNL     1      20.019  51.831  48.964  1.00  0.00     0.156 C 
BRANCH  11  12
HETATM   12  C   UNL     1      20.409  50.436  49.422  1.00  0.00     0.223 C 
HETATM   13  N   UNL     1      21.395  49.801  48.690  1.00  0.00    -0.359 N 
HETATM   14  H   UNL     1      22.091  50.392  48.243  1.00  0.00     0.162 HD
HETATM   15  O   UNL     1      19.761  49.870  50.293  1.00  0.00    -0.273 OA
BRANCH  13  16
HETATM   16  C   UNL     1      21.832  48.455  49.088  1.00  0.00     0.150 C 
BRANCH  16  17
HETATM   17  C   UNL     1      23.232  48.072  48.561  1.00  0.00     0.254 C 
BRANCH  17  18
HETATM   18  N   UNL     1      24.333  48.856  49.240  1.00  0.00    -0.070 N 
HETATM   19  H   UNL     1      23.983  49.199  50.148  1.00  0.00     0.279 HD
HETATM   20  C   UNL     1      24.834  50.070  48.466  1.00  0.00     0.235 C 
HETATM   21  C   UNL     1      26.247  49.708  48.059  1.00  0.00     0.029 C 
HETATM   22  C   UNL     1      26.744  48.900  49.238  1.00  0.00     0.029 C 
HETATM   23  C   UNL     1      25.564  48.004  49.557  1.00  0.00     0.235 C 
ENDBRANCH  17  18
ENDBRANCH  16  17
ENDBRANCH  13  16
ENDBRANCH  11  12
ENDBRANCH   6  11
BRANCH   7  24
HETATM   24  C   UNL     1      17.900  51.343  45.278  1.00  0.00    -0.030 A 
HETATM   25  C   UNL     1      18.164  50.875  43.975  1.00  0.00     0.011 A 
HETATM   26  C   UNL     1      17.798  51.625  42.849  1.00  0.00     0.024 A 
HETATM   27  C   UNL     1      17.138  52.841  43.001  1.00  0.00     0.034 A 
HETATM   28 CL   UNL     1      16.723  53.774  41.621  1.00  0.00    -0.084 Cl
HETATM   29  C   UNL     1      16.821  53.303  44.270  1.00  0.00     0.024 A 
HETATM   30  C   UNL     1      17.191  52.559  45.398  1.00  0.00     0.011 A 
ENDBRANCH   7  24
BRANCH  10  31
HETATM   31  C   UNL     1      18.744  48.123  46.099  1.00  0.00     0.294 C 
HETATM   32  O   UNL     1      19.678  47.649  46.712  1.00  0.00    -0.259 OA
BRANCH  31  33
HETATM   33  O   UNL     1      18.258  47.758  44.892  1.00  0.00    -0.314 OA
BRANCH  33  34
HETATM   34  C   UNL     1      18.514  46.381  44.575  1.00  0.00     0.206 C 
BRANCH  34  35
HETATM   35  C   UNL     1      19.606  46.290  43.546  1.00  0.00    -0.011 C 
HETATM   36  C   UNL     1      20.871  45.888  43.732  1.00  0.00     0.009 C 
ENDBRANCH  34  35
ENDBRANCH  33  34
ENDBRANCH  31  33
ENDBRANCH  10  31
TORSDOF 10
ENDMDL
MODEL 9
REMARK VINA RESULT:      -6.1     25.890     28.879
REMARK  10 active torsions:
REMARK  status: ('A' for Active; 'I' for Inactive)
REMARK    1  A    between atoms: C_6  and  C_7 
REMARK    2  A    between atoms: C_7  and  C_8 
REMARK       I    between atoms: C_8  and  N_9 
REMARK    3  A    between atoms: N_9  and  C_10 
REMARK    4  A    between atoms: C_10  and  C_11 
REMARK    5  A    between atoms: C_11  and  N_12 
REMARK    6  A    between atoms: C_19  and  C_20 
REMARK    7  A    between atoms: C_29  and  C_30 
REMARK    8  A    between atoms: C_30  and  O_31 
REMARK    9  A    between atoms: O_31  and  C_32 
REMARK   10  A    between atoms: C_32  and  C_33 
ROOT
HETATM    1  C   UNL     1      36.652  47.385  64.036  1.00  0.00     0.071 C 
HETATM    2  C   UNL     1      36.887  47.950  65.414  1.00  0.00     0.048 C 
HETATM    3  N   UNL     1      35.780  47.887  66.251  1.00  0.00    -0.229 NA
HETATM    4  C   UNL     1      36.001  47.979  67.518  1.00  0.00     0.170 C 
HETATM    5  N   UNL     1      37.417  48.186  68.108  1.00  0.00    -0.319 N 
HETATM    6  C   UNL     1      37.552  47.465  69.169  1.00  0.00     0.011 C 
HETATM    7  C   UNL     1      38.263  48.999  67.211  1.00  0.00     0.166 C 
HETATM    8  S   UNL     1      34.866  47.563  68.749  1.00  0.00    -0.086 SA
HETATM    9  C   UNL     1      36.246  47.063  69.840  1.00  0.00     0.135 C 
HETATM   10  C   UNL     1      38.073  48.442  65.835  1.00  0.00     0.069 C 
ENDROOT
BRANCH   6  11
HETATM   11  C   UNL     1      38.907  47.019  69.639  1.00  0.00     0.156 C 
BRANCH  11  12
HETATM   12  C   UNL     1      39.190  45.592  69.199  1.00  0.00     0.223 C 
HETATM   13  N   UNL     1      39.317  45.381  67.838  1.00  0.00    -0.359 N 
HETATM   14  H   UNL     1      39.674  46.154  67.283  1.00  0.00     0.162 HD
HETATM   15  O   UNL     1      39.144  44.676  70.011  1.00  0.00    -0.273 OA
BRANCH  13  16
HETATM   16  C   UNL     1      39.608  44.027  67.344  1.00  0.00     0.150 C 
BRANCH  16  17
HETATM   17  C   UNL     1      40.204  43.997  65.921  1.00  0.00     0.254 C 
BRANCH  17  18
HETATM   18  N   UNL     1      39.265  44.592  64.895  1.00  0.00    -0.070 N 
HETATM   19  H   UNL     1      39.143  45.595  65.102  1.00  0.00     0.279 HD
HETATM   20  C   UNL     1      37.873  43.970  64.856  1.00  0.00     0.235 C 
HETATM   21  C   UNL     1      37.812  43.252  63.524  1.00  0.00     0.029 C 
HETATM   22  C   UNL     1      38.616  44.153  62.614  1.00  0.00     0.029 C 
HETATM   23  C   UNL     1      39.814  44.518  63.469  1.00  0.00     0.235 C 
ENDBRANCH  17  18
ENDBRANCH  16  17
ENDBRANCH  13  16
ENDBRANCH  11  12
ENDBRANCH   6  11
BRANCH   7  24
HETATM   24  C   UNL     1      37.871  50.484  67.352  1.00  0.00    -0.030 A 
HETATM   25  C   UNL     1      37.960  51.357  66.249  1.00  0.00     0.011 A 
HETATM   26  C   UNL     1      37.704  52.728  66.389  1.00  0.00     0.024 A 
HETATM   27  C   UNL     1      37.329  53.248  67.623  1.00  0.00     0.034 A 
HETATM   28 CL   UNL     1      37.051  54.934  67.800  1.00  0.00    -0.084 Cl
HETATM   29  C   UNL     1      37.185  52.405  68.716  1.00  0.00     0.024 A 
HETATM   30  C   UNL     1      37.447  51.036  68.581  1.00  0.00     0.011 A 
ENDBRANCH   7  24
BRANCH  10  31
HETATM   31  C   UNL     1      39.284  48.423  65.005  1.00  0.00     0.294 C 
HETATM   32  O   UNL     1      39.561  49.270  64.182  1.00  0.00    -0.259 OA
BRANCH  31  33
HETATM   33  O   UNL     1      40.025  47.364  65.404  1.00  0.00    -0.314 OA
BRANCH  33  34
HETATM   34  C   UNL     1      41.438  47.595  65.301  1.00  0.00     0.206 C 
BRANCH  34  35
HETATM   35  C   UNL     1      42.036  47.713  66.674  1.00  0.00    -0.011 C 
HETATM   36  C   UNL     1      43.204  47.211  67.102  1.00  0.00     0.009 C 
ENDBRANCH  34  35
ENDBRANCH  33  34
ENDBRANCH  31  33
ENDBRANCH  10  31
TORSDOF 10
ENDMDL
MODEL 10
REMARK VINA RESULT:      -6.1     25.686     27.882
REMARK  10 active torsions:
REMARK  status: ('A' for Active; 'I' for Inactive)
REMARK    1  A    between atoms: C_6  and  C_7 
REMARK    2  A    between atoms: C_7  and  C_8 
REMARK       I    between atoms: C_8  and  N_9 
REMARK    3  A    between atoms: N_9  and  C_10 
REMARK    4  A    between atoms: C_10  and  C_11 
REMARK    5  A    between atoms: C_11  and  N_12 
REMARK    6  A    between atoms: C_19  and  C_20 
REMARK    7  A    between atoms: C_29  and  C_30 
REMARK    8  A    between atoms: C_30  and  O_31 
REMARK    9  A    between atoms: O_31  and  C_32 
REMARK   10  A    between atoms: C_32  and  C_33 
ROOT
HETATM    1  C   UNL     1      41.506  45.658  67.445  1.00  0.00     0.071 C 
HETATM    2  C   UNL     1      40.439  45.122  66.523  1.00  0.00     0.048 C 
HETATM    3  N   UNL     1      39.366  44.532  67.179  1.00  0.00    -0.229 NA
HETATM    4  C   UNL     1      38.270  44.410  66.510  1.00  0.00     0.170 C 
HETATM    5  N   UNL     1      38.136  44.857  65.034  1.00  0.00    -0.319 N 
HETATM    6  C   UNL     1      36.989  45.418  64.856  1.00  0.00     0.011 C 
HETATM    7  C   UNL     1      39.404  44.678  64.297  1.00  0.00     0.166 C 
HETATM    8  S   UNL     1      36.727  44.064  67.200  1.00  0.00    -0.086 SA
HETATM    9  C   UNL     1      35.927  45.042  65.879  1.00  0.00     0.135 C 
HETATM   10  C   UNL     1      40.482  45.229  65.177  1.00  0.00     0.069 C 
ENDROOT
BRANCH   6  11
HETATM   11  C   UNL     1      36.773  46.412  63.750  1.00  0.00     0.156 C 
BRANCH  11  12
HETATM   12  C   UNL     1      37.134  47.816  64.208  1.00  0.00     0.223 C 
HETATM   13  N   UNL     1      38.482  48.118  64.264  1.00  0.00    -0.359 N 
HETATM   14  H   UNL     1      39.090  47.635  63.608  1.00  0.00     0.162 HD
HETATM   15  O   UNL     1      36.268  48.563  64.647  1.00  0.00    -0.273 OA
BRANCH  13  16
HETATM   16  C   UNL     1      38.901  49.463  64.682  1.00  0.00     0.150 C 
BRANCH  16  17
HETATM   17  C   UNL     1      39.880  49.469  65.876  1.00  0.00     0.254 C 
BRANCH  17  18
HETATM   18  N   UNL     1      39.162  49.559  67.204  1.00  0.00    -0.070 N 
HETATM   19  H   UNL     1      39.730  50.128  67.850  1.00  0.00     0.279 HD
HETATM   20  C   UNL     1      38.907  48.222  67.892  1.00  0.00     0.235 C 
HETATM   21  C   UNL     1      37.403  48.046  67.841  1.00  0.00     0.029 C 
HETATM   22  C   UNL     1      36.890  49.459  68.005  1.00  0.00     0.029 C 
HETATM   23  C   UNL     1      37.806  50.262  67.103  1.00  0.00     0.235 C 
ENDBRANCH  17  18
ENDBRANCH  16  17
ENDBRANCH  13  16
ENDBRANCH  11  12
ENDBRANCH   6  11
BRANCH   7  24
HETATM   24  C   UNL     1      39.579  43.187  63.943  1.00  0.00    -0.030 A 
HETATM   25  C   UNL     1      38.799  42.595  62.929  1.00  0.00     0.011 A 
HETATM   26  C   UNL     1      38.875  41.220  62.667  1.00  0.00     0.024 A 
HETATM   27  C   UNL     1      39.750  40.416  63.392  1.00  0.00     0.034 A 
HETATM   28 CL   UNL     1      39.815  38.727  63.093  1.00  0.00    -0.084 Cl
HETATM   29  C   UNL     1      40.565  40.980  64.362  1.00  0.00     0.024 A 
HETATM   30  C   UNL     1      40.486  42.352  64.631  1.00  0.00     0.011 A 
ENDBRANCH   7  24
BRANCH  10  31
HETATM   31  C   UNL     1      41.553  45.940  64.467  1.00  0.00     0.294 C 
HETATM   32  O   UNL     1      41.539  47.129  64.226  1.00  0.00    -0.259 OA
BRANCH  31  33
HETATM   33  O   UNL     1      42.542  45.047  64.237  1.00  0.00    -0.314 OA
BRANCH  33  34
HETATM   34  C   UNL     1      43.811  45.667  63.978  1.00  0.00     0.206 C 
BRANCH  34  35
HETATM   35  C   UNL     1      44.738  45.433  65.137  1.00  0.00    -0.011 C 
HETATM   36  C   UNL     1      44.774  44.367  65.950  1.00  0.00     0.009 C 
ENDBRANCH  34  35
ENDBRANCH  33  34
ENDBRANCH  31  33
ENDBRANCH  10  31
TORSDOF 10
ENDMDL
