MODEL 1
REMARK VINA RESULT:     -10.4      0.000      0.000
REMARK  8 active torsions:
REMARK  status: ('A' for Active; 'I' for Inactive)
REMARK    1  A    between atoms: C_4  and  O_5 
REMARK    2  A    between atoms: O_5  and  C_6 
REMARK    3  A    between atoms: C_9  and  N_10 
REMARK    4  A    between atoms: N_10  and  C_11 
REMARK    5  A    between atoms: C_13  and  N_14 
REMARK    6  A    between atoms: C_16  and  C_17 
REMARK    7  A    between atoms: C_17  and  N_18 
REMARK    8  A    between atoms: N_22  and  C_23 
ROOT
HETATM    1  C   UNL     1      24.381  48.000  49.717  1.00  0.00     0.731 A 
HETATM    2  N   UNL     1      25.107  48.999  49.232  1.00  0.00    -0.031 NA
HETATM    3  C   UNL     1      26.386  48.753  49.005  1.00  0.00     0.219 A 
HETATM    4  N   UNL     1      26.976  47.586  49.212  1.00  0.00    -0.200 NA
HETATM    5  C   UNL     1      26.184  46.643  49.713  1.00  0.00     0.174 A 
HETATM    6  N   UNL     1      24.879  46.784  49.933  1.00  0.00    -0.045 NA
ENDROOT
BRANCH   1   7
HETATM    7  N   UNL     1      23.033  48.274  49.915  1.00  0.00    -0.188 N 
HETATM    8  H   UNL     1      22.625  47.564  50.513  1.00  0.00     0.184 HD
BRANCH   7   9
HETATM    9  C   UNL     1      22.109  49.106  49.266  1.00  0.00     0.049 A 
HETATM   10  C   UNL     1      22.114  50.503  49.360  1.00  0.00     0.033 A 
HETATM   11  C   UNL     1      21.138  51.274  48.718  1.00  0.00     0.039 A 
HETATM   12  C   UNL     1      20.143  50.656  47.968  1.00  0.00     0.076 A 
HETATM   13  C   UNL     1      20.088  49.267  47.896  1.00  0.00     0.039 A 
HETATM   14  C   UNL     1      21.067  48.503  48.539  1.00  0.00     0.033 A 
BRANCH  12  15
HETATM   15  O   UNL     1      19.197  51.462  47.385  1.00  0.00    -0.311 OA
BRANCH  15  16
HETATM   16  C   UNL     1      18.046  51.720  48.097  1.00  0.00     0.076 A 
HETATM   17  C   UNL     1      16.903  51.024  47.694  1.00  0.00     0.037 A 
HETATM   18  C   UNL     1      15.702  51.194  48.383  1.00  0.00     0.003 A 
HETATM   19  C   UNL     1      15.642  52.050  49.481  1.00  0.00     0.000 A 
HETATM   20  C   UNL     1      16.786  52.731  49.899  1.00  0.00     0.003 A 
HETATM   21  C   UNL     1      17.991  52.560  49.214  1.00  0.00     0.037 A 
ENDBRANCH  15  16
ENDBRANCH  12  15
ENDBRANCH   7   9
ENDBRANCH   1   7
BRANCH   3  22
HETATM   22  N   UNL     1      27.151  49.767  48.476  1.00  0.00    -0.270 NA
HETATM   23  H   UNL     1      28.137  49.601  48.645  1.00  0.00     0.127 HD
HETATM   24  H   UNL     1      26.911  49.966  47.514  1.00  0.00     0.127 HD
ENDBRANCH   3  22
BRANCH   5  25
HETATM   25  C   UNL     1      26.753  45.243  49.820  1.00  0.00     0.316 C 
BRANCH  25  26
HETATM   26  N   UNL     1      26.686  44.599  51.218  1.00  0.00    -0.061 N 
HETATM   27  H   UNL     1      25.742  44.193  51.275  1.00  0.00     0.280 HD
HETATM   28  C   UNL     1      27.687  43.459  51.381  1.00  0.00     0.255 C 
HETATM   29  C   UNL     1      27.506  42.790  52.766  1.00  0.00     0.152 C 
HETATM   30  N   UNL     1      27.530  43.768  53.885  1.00  0.00    -0.364 N 
HETATM   31  C   UNL     1      26.637  44.939  53.715  1.00  0.00     0.152 C 
HETATM   32  C   UNL     1      26.827  45.624  52.337  1.00  0.00     0.255 C 
BRANCH  30  33
HETATM   33  C   UNL     1      28.684  43.941  54.627  1.00  0.00     0.102 A 
HETATM   34  N   UNL     1      28.810  45.083  55.328  1.00  0.00    -0.352 N 
HETATM   35  H   UNL     1      28.026  45.732  55.305  1.00  0.00     0.166 HD
HETATM   36  C   UNL     1      29.862  45.376  56.107  1.00  0.00     0.089 A 
HETATM   37  C   UNL     1      30.905  44.473  56.229  1.00  0.00     0.017 A 
HETATM   38  C   UNL     1      30.824  43.267  55.548  1.00  0.00     0.005 A 
HETATM   39  C   UNL     1      29.710  42.995  54.752  1.00  0.00     0.048 A 
ENDBRANCH  30  33
ENDBRANCH  25  26
ENDBRANCH   5  25
TORSDOF 8
ENDMDL
MODEL 2
REMARK VINA RESULT:     -10.3      3.099     11.822
REMARK  8 active torsions:
REMARK  status: ('A' for Active; 'I' for Inactive)
REMARK    1  A    between atoms: C_4  and  O_5 
REMARK    2  A    between atoms: O_5  and  C_6 
REMARK    3  A    between atoms: C_9  and  N_10 
REMARK    4  A    between atoms: N_10  and  C_11 
REMARK    5  A    between atoms: C_13  and  N_14 
REMARK    6  A    between atoms: C_16  and  C_17 
REMARK    7  A    between atoms: C_17  and  N_18 
REMARK    8  A    between atoms: N_22  and  C_23 
ROOT
HETATM    1  C   UNL     1      25.340  47.416  51.027  1.00  0.00     0.731 A 
HETATM    2  N   UNL     1      26.537  47.833  50.634  1.00  0.00    -0.031 NA
HETATM    3  C   UNL     1      26.586  48.543  49.520  1.00  0.00     0.219 A 
HETATM    4  N   UNL     1      25.531  48.875  48.792  1.00  0.00    -0.200 NA
HETATM    5  C   UNL     1      24.373  48.405  49.245  1.00  0.00     0.174 A 
HETATM    6  N   UNL     1      24.220  47.721  50.376  1.00  0.00    -0.045 NA
ENDROOT
BRANCH   1   7
HETATM    7  N   UNL     1      25.312  46.700  52.219  1.00  0.00    -0.188 N 
HETATM    8  H   UNL     1      24.372  46.361  52.390  1.00  0.00     0.184 HD
BRANCH   7   9
HETATM    9  C   UNL     1      26.186  46.604  53.311  1.00  0.00     0.049 A 
HETATM   10  C   UNL     1      26.737  45.400  53.767  1.00  0.00     0.033 A 
HETATM   11  C   UNL     1      27.574  45.367  54.889  1.00  0.00     0.039 A 
HETATM   12  C   UNL     1      27.873  46.542  55.570  1.00  0.00     0.076 A 
HETATM   13  C   UNL     1      27.302  47.745  55.166  1.00  0.00     0.039 A 
HETATM   14  C   UNL     1      26.468  47.771  54.043  1.00  0.00     0.033 A 
BRANCH  12  15
HETATM   15  O   UNL     1      28.675  46.444  56.680  1.00  0.00    -0.311 OA
BRANCH  15  16
HETATM   16  C   UNL     1      29.665  45.487  56.676  1.00  0.00     0.076 A 
HETATM   17  C   UNL     1      30.378  45.332  57.868  1.00  0.00     0.037 A 
HETATM   18  C   UNL     1      31.372  44.358  57.967  1.00  0.00     0.003 A 
HETATM   19  C   UNL     1      31.649  43.531  56.880  1.00  0.00     0.000 A 
HETATM   20  C   UNL     1      30.926  43.669  55.695  1.00  0.00     0.003 A 
HETATM   21  C   UNL     1      29.927  44.640  55.594  1.00  0.00     0.037 A 
ENDBRANCH  15  16
ENDBRANCH  12  15
ENDBRANCH   7   9
ENDBRANCH   1   7
BRANCH   3  22
HETATM   22  N   UNL     1      27.814  49.009  49.110  1.00  0.00    -0.270 NA
HETATM   23  H   UNL     1      28.278  48.329  48.517  1.00  0.00     0.127 HD
HETATM   24  H   UNL     1      27.762  49.943  48.726  1.00  0.00     0.127 HD
ENDBRANCH   3  22
BRANCH   5  25
HETATM   25  C   UNL     1      23.113  48.883  48.554  1.00  0.00     0.316 C 
BRANCH  25  26
HETATM   26  N   UNL     1      21.921  49.200  49.478  1.00  0.00    -0.061 N 
HETATM   27  H   UNL     1      22.196  48.829  50.398  1.00  0.00     0.280 HD
HETATM   28  C   UNL     1      21.692  50.701  49.637  1.00  0.00     0.255 C 
HETATM   29  C   UNL     1      20.549  50.957  50.649  1.00  0.00     0.152 C 
HETATM   30  N   UNL     1      19.313  50.197  50.326  1.00  0.00    -0.364 N 
HETATM   31  C   UNL     1      19.513  48.749  50.072  1.00  0.00     0.152 C 
HETATM   32  C   UNL     1      20.645  48.488  49.046  1.00  0.00     0.255 C 
BRANCH  30  33
HETATM   33  C   UNL     1      18.265  50.825  49.677  1.00  0.00     0.102 A 
HETATM   34  N   UNL     1      17.501  50.078  48.859  1.00  0.00    -0.352 N 
HETATM   35  H   UNL     1      17.714  49.084  48.802  1.00  0.00     0.166 HD
HETATM   36  C   UNL     1      16.441  50.547  48.184  1.00  0.00     0.089 A 
HETATM   37  C   UNL     1      16.072  51.875  48.312  1.00  0.00     0.017 A 
HETATM   38  C   UNL     1      16.807  52.692  49.159  1.00  0.00     0.005 A 
HETATM   39  C   UNL     1      17.900  52.166  49.849  1.00  0.00     0.048 A 
ENDBRANCH  30  33
ENDBRANCH  25  26
ENDBRANCH   5  25
TORSDOF 8
ENDMDL
MODEL 3
REMARK VINA RESULT:     -10.2      1.450      1.973
REMARK  8 active torsions:
REMARK  status: ('A' for Active; 'I' for Inactive)
REMARK    1  A    between atoms: C_4  and  O_5 
REMARK    2  A    between atoms: O_5  and  C_6 
REMARK    3  A    between atoms: C_9  and  N_10 
REMARK    4  A    between atoms: N_10  and  C_11 
REMARK    5  A    between atoms: C_13  and  N_14 
REMARK    6  A    between atoms: C_16  and  C_17 
REMARK    7  A    between atoms: C_17  and  N_18 
REMARK    8  A    between atoms: N_22  and  C_23 
ROOT
HETATM    1  C   UNL     1      24.356  49.106  48.845  1.00  0.00     0.731 A 
HETATM    2  N   UNL     1      25.487  49.728  48.538  1.00  0.00    -0.031 NA
HETATM    3  C   UNL     1      26.611  49.149  48.924  1.00  0.00     0.219 A 
HETATM    4  N   UNL     1      26.680  47.996  49.571  1.00  0.00    -0.200 NA
HETATM    5  C   UNL     1      25.503  47.446  49.854  1.00  0.00     0.174 A 
HETATM    6  N   UNL     1      24.325  47.931  49.470  1.00  0.00    -0.045 NA
ENDROOT
BRANCH   1   7
HETATM    7  N   UNL     1      23.190  49.719  48.400  1.00  0.00    -0.188 N 
HETATM    8  H   UNL     1      23.409  50.357  47.643  1.00  0.00     0.184 HD
BRANCH   7   9
HETATM    9  C   UNL     1      21.902  49.854  48.936  1.00  0.00     0.049 A 
HETATM   10  C   UNL     1      21.019  48.785  49.129  1.00  0.00     0.033 A 
HETATM   11  C   UNL     1      19.730  48.993  49.634  1.00  0.00     0.039 A 
HETATM   12  C   UNL     1      19.307  50.278  49.956  1.00  0.00     0.076 A 
HETATM   13  C   UNL     1      20.147  51.364  49.731  1.00  0.00     0.039 A 
HETATM   14  C   UNL     1      21.435  51.148  49.227  1.00  0.00     0.033 A 
BRANCH  12  15
HETATM   15  O   UNL     1      18.023  50.424  50.419  1.00  0.00    -0.311 OA
BRANCH  15  16
HETATM   16  C   UNL     1      17.118  51.075  49.610  1.00  0.00     0.076 A 
HETATM   17  C   UNL     1      16.775  52.375  49.991  1.00  0.00     0.037 A 
HETATM   18  C   UNL     1      15.895  53.124  49.209  1.00  0.00     0.003 A 
HETATM   19  C   UNL     1      15.366  52.581  48.040  1.00  0.00     0.000 A 
HETATM   20  C   UNL     1      15.722  51.291  47.646  1.00  0.00     0.003 A 
HETATM   21  C   UNL     1      16.605  50.540  48.424  1.00  0.00     0.037 A 
ENDBRANCH  15  16
ENDBRANCH  12  15
ENDBRANCH   7   9
ENDBRANCH   1   7
BRANCH   3  22
HETATM   22  N   UNL     1      27.797  49.764  48.591  1.00  0.00    -0.270 NA
HETATM   23  H   UNL     1      28.047  49.567  47.628  1.00  0.00     0.127 HD
HETATM   24  H   UNL     1      27.804  50.744  48.841  1.00  0.00     0.127 HD
ENDBRANCH   3  22
BRANCH   5  25
HETATM   25  C   UNL     1      25.514  46.052  50.446  1.00  0.00     0.316 C 
BRANCH  25  26
HETATM   26  N   UNL     1      25.540  45.980  51.986  1.00  0.00    -0.061 N 
HETATM   27  H   UNL     1      24.570  46.163  52.274  1.00  0.00     0.280 HD
HETATM   28  C   UNL     1      25.917  44.591  52.495  1.00  0.00     0.255 C 
HETATM   29  C   UNL     1      25.832  44.555  54.041  1.00  0.00     0.152 C 
HETATM   30  N   UNL     1      26.598  45.653  54.685  1.00  0.00    -0.364 N 
HETATM   31  C   UNL     1      26.326  47.009  54.148  1.00  0.00     0.152 C 
HETATM   32  C   UNL     1      26.427  47.054  52.602  1.00  0.00     0.255 C 
BRANCH  30  33
HETATM   33  C   UNL     1      27.857  45.407  55.203  1.00  0.00     0.102 A 
HETATM   34  N   UNL     1      28.229  46.100  56.295  1.00  0.00    -0.352 N 
HETATM   35  H   UNL     1      27.542  46.732  56.702  1.00  0.00     0.166 HD
HETATM   36  C   UNL     1      29.408  45.949  56.916  1.00  0.00     0.089 A 
HETATM   37  C   UNL     1      30.329  45.031  56.439  1.00  0.00     0.017 A 
HETATM   38  C   UNL     1      29.995  44.270  55.329  1.00  0.00     0.005 A 
HETATM   39  C   UNL     1      28.755  44.450  54.713  1.00  0.00     0.048 A 
ENDBRANCH  30  33
ENDBRANCH  25  26
ENDBRANCH   5  25
TORSDOF 8
ENDMDL
MODEL 4
REMARK VINA RESULT:     -10.1      2.935     11.462
REMARK  8 active torsions:
REMARK  status: ('A' for Active; 'I' for Inactive)
REMARK    1  A    between atoms: C_4  and  O_5 
REMARK    2  A    between atoms: O_5  and  C_6 
REMARK    3  A    between atoms: C_9  and  N_10 
REMARK    4  A    between atoms: N_10  and  C_11 
REMARK    5  A    between atoms: C_13  and  N_14 
REMARK    6  A    between atoms: C_16  and  C_17 
REMARK    7  A    between atoms: C_17  and  N_18 
REMARK    8  A    between atoms: N_22  and  C_23 
ROOT
HETATM    1  C   UNL     1      25.261  47.461  49.342  1.00  0.00     0.731 A 
HETATM    2  N   UNL     1      26.511  47.901  49.279  1.00  0.00    -0.031 NA
HETATM    3  C   UNL     1      26.688  49.139  48.851  1.00  0.00     0.219 A 
HETATM    4  N   UNL     1      25.711  49.962  48.505  1.00  0.00    -0.200 NA
HETATM    5  C   UNL     1      24.491  49.441  48.582  1.00  0.00     0.174 A 
HETATM    6  N   UNL     1      24.212  48.223  49.040  1.00  0.00    -0.045 NA
ENDROOT
BRANCH   1   7
HETATM    7  N   UNL     1      25.099  46.168  49.827  1.00  0.00    -0.188 N 
HETATM    8  H   UNL     1      24.208  45.797  49.516  1.00  0.00     0.184 HD
BRANCH   7   9
HETATM    9  C   UNL     1      25.734  45.424  50.832  1.00  0.00     0.049 A 
HETATM   10  C   UNL     1      26.951  44.756  50.659  1.00  0.00     0.033 A 
HETATM   11  C   UNL     1      27.513  43.997  51.694  1.00  0.00     0.039 A 
HETATM   12  C   UNL     1      26.863  43.901  52.920  1.00  0.00     0.076 A 
HETATM   13  C   UNL     1      25.629  44.518  53.103  1.00  0.00     0.039 A 
HETATM   14  C   UNL     1      25.074  45.275  52.065  1.00  0.00     0.033 A 
BRANCH  12  15
HETATM   15  O   UNL     1      27.447  43.120  53.885  1.00  0.00    -0.311 OA
BRANCH  15  16
HETATM   16  C   UNL     1      28.563  43.612  54.524  1.00  0.00     0.076 A 
HETATM   17  C   UNL     1      28.438  44.882  55.092  1.00  0.00     0.037 A 
HETATM   18  C   UNL     1      29.506  45.444  55.793  1.00  0.00     0.003 A 
HETATM   19  C   UNL     1      30.697  44.733  55.937  1.00  0.00     0.000 A 
HETATM   20  C   UNL     1      30.818  43.456  55.388  1.00  0.00     0.003 A 
HETATM   21  C   UNL     1      29.750  42.890  54.689  1.00  0.00     0.037 A 
ENDBRANCH  15  16
ENDBRANCH  12  15
ENDBRANCH   7   9
ENDBRANCH   1   7
BRANCH   3  22
HETATM   22  N   UNL     1      27.975  49.624  48.804  1.00  0.00    -0.270 NA
HETATM   23  H   UNL     1      28.621  48.974  49.241  1.00  0.00     0.127 HD
HETATM   24  H   UNL     1      28.238  49.926  47.876  1.00  0.00     0.127 HD
ENDBRANCH   3  22
BRANCH   5  25
HETATM   25  C   UNL     1      23.321  50.377  48.357  1.00  0.00     0.316 C 
BRANCH  25  26
HETATM   26  N   UNL     1      21.967  49.903  48.921  1.00  0.00    -0.061 N 
HETATM   27  H   UNL     1      22.175  49.008  49.385  1.00  0.00     0.280 HD
HETATM   28  C   UNL     1      21.414  50.853  49.979  1.00  0.00     0.255 C 
HETATM   29  C   UNL     1      20.107  50.277  50.575  1.00  0.00     0.152 C 
HETATM   30  N   UNL     1      19.114  49.904  49.534  1.00  0.00    -0.364 N 
HETATM   31  C   UNL     1      19.643  49.056  48.437  1.00  0.00     0.152 C 
HETATM   32  C   UNL     1      20.943  49.638  47.825  1.00  0.00     0.255 C 
BRANCH  30  33
HETATM   33  C   UNL     1      18.067  50.757  49.240  1.00  0.00     0.102 A 
HETATM   34  N   UNL     1      17.148  50.334  48.352  1.00  0.00    -0.352 N 
HETATM   35  H   UNL     1      17.255  49.391  47.985  1.00  0.00     0.166 HD
HETATM   36  C   UNL     1      16.070  51.044  47.989  1.00  0.00     0.089 A 
HETATM   37  C   UNL     1      15.847  52.295  48.541  1.00  0.00     0.017 A 
HETATM   38  C   UNL     1      16.748  52.778  49.479  1.00  0.00     0.005 A 
HETATM   39  C   UNL     1      17.855  52.007  49.836  1.00  0.00     0.048 A 
ENDBRANCH  30  33
ENDBRANCH  25  26
ENDBRANCH   5  25
TORSDOF 8
ENDMDL
MODEL 5
REMARK VINA RESULT:     -10.1      1.656      2.275
REMARK  8 active torsions:
REMARK  status: ('A' for Active; 'I' for Inactive)
REMARK    1  A    between atoms: C_4  and  O_5 
REMARK    2  A    between atoms: O_5  and  C_6 
REMARK    3  A    between atoms: C_9  and  N_10 
REMARK    4  A    between atoms: N_10  and  C_11 
REMARK    5  A    between atoms: C_13  and  N_14 
REMARK    6  A    between atoms: C_16  and  C_17 
REMARK    7  A    between atoms: C_17  and  N_18 
REMARK    8  A    between atoms: N_22  and  C_23 
ROOT
HETATM    1  C   UNL     1      24.761  49.627  48.830  1.00  0.00     0.731 A 
HETATM    2  N   UNL     1      26.018  49.994  48.614  1.00  0.00    -0.031 NA
HETATM    3  C   UNL     1      26.961  49.156  49.009  1.00  0.00     0.219 A 
HETATM    4  N   UNL     1      26.735  47.984  49.581  1.00  0.00    -0.200 NA
HETATM    5  C   UNL     1      25.451  47.698  49.775  1.00  0.00     0.174 A 
HETATM    6  N   UNL     1      24.434  48.457  49.374  1.00  0.00    -0.045 NA
ENDROOT
BRANCH   1   7
HETATM    7  N   UNL     1      23.788  50.510  48.376  1.00  0.00    -0.188 N 
HETATM    8  H   UNL     1      24.231  51.297  47.915  1.00  0.00     0.184 HD
BRANCH   7   9
HETATM    9  C   UNL     1      22.425  50.679  48.660  1.00  0.00     0.049 A 
HETATM   10  C   UNL     1      21.915  50.873  49.949  1.00  0.00     0.033 A 
HETATM   11  C   UNL     1      20.538  50.997  50.171  1.00  0.00     0.039 A 
HETATM   12  C   UNL     1      19.651  50.932  49.101  1.00  0.00     0.076 A 
HETATM   13  C   UNL     1      20.129  50.693  47.816  1.00  0.00     0.039 A 
HETATM   14  C   UNL     1      21.506  50.572  47.602  1.00  0.00     0.033 A 
BRANCH  12  15
HETATM   15  O   UNL     1      18.311  51.030  49.382  1.00  0.00    -0.311 OA
BRANCH  15  16
HETATM   16  C   UNL     1      17.491  50.003  48.972  1.00  0.00     0.076 A 
HETATM   17  C   UNL     1      16.392  50.367  48.190  1.00  0.00     0.037 A 
HETATM   18  C   UNL     1      15.529  49.387  47.697  1.00  0.00     0.003 A 
HETATM   19  C   UNL     1      15.768  48.043  47.975  1.00  0.00     0.000 A 
HETATM   20  C   UNL     1      16.876  47.674  48.738  1.00  0.00     0.003 A 
HETATM   21  C   UNL     1      17.744  48.652  49.230  1.00  0.00     0.037 A 
ENDBRANCH  15  16
ENDBRANCH  12  15
ENDBRANCH   7   9
ENDBRANCH   1   7
BRANCH   3  22
HETATM   22  N   UNL     1      28.271  49.506  48.770  1.00  0.00    -0.270 NA
HETATM   23  H   UNL     1      28.501  49.391  47.789  1.00  0.00     0.127 HD
HETATM   24  H   UNL     1      28.504  50.409  49.159  1.00  0.00     0.127 HD
ENDBRANCH   3  22
BRANCH   5  25
HETATM   25  C   UNL     1      25.118  46.307  50.274  1.00  0.00     0.316 C 
BRANCH  25  26
HETATM   26  N   UNL     1      25.199  46.106  51.800  1.00  0.00    -0.061 N 
HETATM   27  H   UNL     1      24.239  46.259  52.136  1.00  0.00     0.280 HD
HETATM   28  C   UNL     1      25.599  44.683  52.178  1.00  0.00     0.255 C 
HETATM   29  C   UNL     1      25.570  44.517  53.717  1.00  0.00     0.152 C 
HETATM   30  N   UNL     1      26.354  45.562  54.424  1.00  0.00    -0.364 N 
HETATM   31  C   UNL     1      26.057  46.956  54.012  1.00  0.00     0.152 C 
HETATM   32  C   UNL     1      26.103  47.132  52.472  1.00  0.00     0.255 C 
BRANCH  30  33
HETATM   33  C   UNL     1      27.631  45.283  54.874  1.00  0.00     0.102 A 
HETATM   34  N   UNL     1      28.184  44.115  54.497  1.00  0.00    -0.352 N 
HETATM   35  H   UNL     1      27.645  43.528  53.864  1.00  0.00     0.166 HD
HETATM   36  C   UNL     1      29.421  43.724  54.839  1.00  0.00     0.089 A 
HETATM   37  C   UNL     1      30.213  44.543  55.625  1.00  0.00     0.017 A 
HETATM   38  C   UNL     1      29.707  45.770  56.029  1.00  0.00     0.005 A 
HETATM   39  C   UNL     1      28.418  46.146  55.648  1.00  0.00     0.048 A 
ENDBRANCH  30  33
ENDBRANCH  25  26
ENDBRANCH   5  25
TORSDOF 8
ENDMDL
MODEL 6
REMARK VINA RESULT:      -9.7      1.700      2.991
REMARK  8 active torsions:
REMARK  status: ('A' for Active; 'I' for Inactive)
REMARK    1  A    between atoms: C_4  and  O_5 
REMARK    2  A    between atoms: O_5  and  C_6 
REMARK    3  A    between atoms: C_9  and  N_10 
REMARK    4  A    between atoms: N_10  and  C_11 
REMARK    5  A    between atoms: C_13  and  N_14 
REMARK    6  A    between atoms: C_16  and  C_17 
REMARK    7  A    between atoms: C_17  and  N_18 
REMARK    8  A    between atoms: N_22  and  C_23 
ROOT
HETATM    1  C   UNL     1      22.271  49.247  49.548  1.00  0.00     0.731 A 
HETATM    2  N   UNL     1      21.585  48.366  48.831  1.00  0.00    -0.031 NA
HETATM    3  C   UNL     1      22.223  47.266  48.467  1.00  0.00     0.219 A 
HETATM    4  N   UNL     1      23.477  46.985  48.782  1.00  0.00    -0.200 NA
HETATM    5  C   UNL     1      24.098  47.925  49.488  1.00  0.00     0.174 A 
HETATM    6  N   UNL     1      23.527  49.041  49.936  1.00  0.00    -0.045 NA
ENDROOT
BRANCH   1   7
HETATM    7  N   UNL     1      21.568  50.378  49.946  1.00  0.00    -0.188 N 
HETATM    8  H   UNL     1      21.995  50.769  50.779  1.00  0.00     0.184 HD
BRANCH   7   9
HETATM    9  C   UNL     1      20.300  50.890  49.634  1.00  0.00     0.049 A 
HETATM   10  C   UNL     1      19.114  50.467  50.245  1.00  0.00     0.033 A 
HETATM   11  C   UNL     1      17.875  50.992  49.859  1.00  0.00     0.039 A 
HETATM   12  C   UNL     1      17.806  51.953  48.855  1.00  0.00     0.076 A 
HETATM   13  C   UNL     1      18.966  52.357  48.200  1.00  0.00     0.039 A 
HETATM   14  C   UNL     1      20.200  51.829  48.592  1.00  0.00     0.033 A 
BRANCH  12  15
HETATM   15  O   UNL     1      16.562  52.409  48.499  1.00  0.00    -0.311 OA
BRANCH  15  16
HETATM   16  C   UNL     1      15.842  53.114  49.438  1.00  0.00     0.076 A 
HETATM   17  C   UNL     1      14.694  52.488  49.932  1.00  0.00     0.037 A 
HETATM   18  C   UNL     1      13.926  53.112  50.916  1.00  0.00     0.003 A 
HETATM   19  C   UNL     1      14.307  54.356  51.414  1.00  0.00     0.000 A 
HETATM   20  C   UNL     1      15.464  54.974  50.938  1.00  0.00     0.003 A 
HETATM   21  C   UNL     1      16.237  54.351  49.957  1.00  0.00     0.037 A 
ENDBRANCH  15  16
ENDBRANCH  12  15
ENDBRANCH   7   9
ENDBRANCH   1   7
BRANCH   3  22
HETATM   22  N   UNL     1      21.521  46.327  47.746  1.00  0.00    -0.270 NA
HETATM   23  H   UNL     1      21.839  45.390  47.971  1.00  0.00     0.127 HD
HETATM   24  H   UNL     1      20.522  46.464  47.807  1.00  0.00     0.127 HD
ENDBRANCH   3  22
BRANCH   5  25
HETATM   25  C   UNL     1      25.478  47.596  50.019  1.00  0.00     0.316 C 
BRANCH  25  26
HETATM   26  N   UNL     1      25.674  46.152  50.523  1.00  0.00    -0.061 N 
HETATM   27  H   UNL     1      24.873  45.630  50.142  1.00  0.00     0.280 HD
HETATM   28  C   UNL     1      26.945  45.513  49.971  1.00  0.00     0.255 C 
HETATM   29  C   UNL     1      27.037  44.038  50.432  1.00  0.00     0.152 C 
HETATM   30  N   UNL     1      26.883  43.883  51.902  1.00  0.00    -0.364 N 
HETATM   31  C   UNL     1      25.706  44.573  52.486  1.00  0.00     0.152 C 
HETATM   32  C   UNL     1      25.620  46.055  52.042  1.00  0.00     0.255 C 
BRANCH  30  33
HETATM   33  C   UNL     1      28.000  43.726  52.702  1.00  0.00     0.102 A 
HETATM   34  N   UNL     1      27.990  44.320  53.910  1.00  0.00    -0.352 N 
HETATM   35  H   UNL     1      27.141  44.811  54.181  1.00  0.00     0.166 HD
HETATM   36  C   UNL     1      28.992  44.235  54.798  1.00  0.00     0.089 A 
HETATM   37  C   UNL     1      30.124  43.498  54.495  1.00  0.00     0.017 A 
HETATM   38  C   UNL     1      30.185  42.844  53.273  1.00  0.00     0.005 A 
HETATM   39  C   UNL     1      29.120  42.950  52.377  1.00  0.00     0.048 A 
ENDBRANCH  30  33
ENDBRANCH  25  26
ENDBRANCH   5  25
TORSDOF 8
ENDMDL
MODEL 7
REMARK VINA RESULT:      -9.7      1.650      2.721
REMARK  8 active torsions:
REMARK  status: ('A' for Active; 'I' for Inactive)
REMARK    1  A    between atoms: C_4  and  O_5 
REMARK    2  A    between atoms: O_5  and  C_6 
REMARK    3  A    between atoms: C_9  and  N_10 
REMARK    4  A    between atoms: N_10  and  C_11 
REMARK    5  A    between atoms: C_13  and  N_14 
REMARK    6  A    between atoms: C_16  and  C_17 
REMARK    7  A    between atoms: C_17  and  N_18 
REMARK    8  A    between atoms: N_22  and  C_23 
ROOT
HETATM    1  C   UNL     1      22.737  49.061  49.489  1.00  0.00     0.731 A 
HETATM    2  N   UNL     1      22.020  48.098  48.925  1.00  0.00    -0.031 NA
HETATM    3  C   UNL     1      22.598  46.915  48.805  1.00  0.00     0.219 A 
HETATM    4  N   UNL     1      23.821  46.630  49.222  1.00  0.00    -0.200 NA
HETATM    5  C   UNL     1      24.478  47.652  49.761  1.00  0.00     0.174 A 
HETATM    6  N   UNL     1      23.965  48.864  49.963  1.00  0.00    -0.045 NA
ENDROOT
BRANCH   1   7
HETATM    7  N   UNL     1      22.095  50.286  49.633  1.00  0.00    -0.188 N 
HETATM    8  H   UNL     1      22.710  50.939  50.105  1.00  0.00     0.184 HD
BRANCH   7   9
HETATM    9  C   UNL     1      20.757  50.695  49.535  1.00  0.00     0.049 A 
HETATM   10  C   UNL     1      19.723  50.183  50.328  1.00  0.00     0.033 A 
HETATM   11  C   UNL     1      18.400  50.607  50.153  1.00  0.00     0.039 A 
HETATM   12  C   UNL     1      18.094  51.554  49.181  1.00  0.00     0.076 A 
HETATM   13  C   UNL     1      19.096  52.045  48.349  1.00  0.00     0.039 A 
HETATM   14  C   UNL     1      20.416  51.618  48.530  1.00  0.00     0.033 A 
BRANCH  12  15
HETATM   15  O   UNL     1      16.776  51.909  49.036  1.00  0.00    -0.311 OA
BRANCH  15  16
HETATM   16  C   UNL     1      16.077  51.368  47.980  1.00  0.00     0.076 A 
HETATM   17  C   UNL     1      15.790  52.235  46.922  1.00  0.00     0.037 A 
HETATM   18  C   UNL     1      15.120  51.763  45.793  1.00  0.00     0.003 A 
HETATM   19  C   UNL     1      14.746  50.423  45.713  1.00  0.00     0.000 A 
HETATM   20  C   UNL     1      15.049  49.550  46.758  1.00  0.00     0.003 A 
HETATM   21  C   UNL     1      15.723  50.019  47.888  1.00  0.00     0.037 A 
ENDBRANCH  15  16
ENDBRANCH  12  15
ENDBRANCH   7   9
ENDBRANCH   1   7
BRANCH   3  22
HETATM   22  N   UNL     1      21.861  45.895  48.248  1.00  0.00    -0.270 NA
HETATM   23  H   UNL     1      22.230  44.991  48.523  1.00  0.00     0.127 HD
HETATM   24  H   UNL     1      20.868  46.012  48.397  1.00  0.00     0.127 HD
ENDBRANCH   3  22
BRANCH   5  25
HETATM   25  C   UNL     1      25.817  47.355  50.404  1.00  0.00     0.316 C 
BRANCH  25  26
HETATM   26  N   UNL     1      25.781  46.393  51.608  1.00  0.00    -0.061 N 
HETATM   27  H   UNL     1      24.787  46.161  51.730  1.00  0.00     0.280 HD
HETATM   28  C   UNL     1      26.528  45.091  51.333  1.00  0.00     0.255 C 
HETATM   29  C   UNL     1      26.376  44.130  52.537  1.00  0.00     0.152 C 
HETATM   30  N   UNL     1      26.743  44.765  53.830  1.00  0.00    -0.364 N 
HETATM   31  C   UNL     1      26.107  46.080  54.088  1.00  0.00     0.152 C 
HETATM   32  C   UNL     1      26.272  47.052  52.891  1.00  0.00     0.255 C 
BRANCH  30  33
HETATM   33  C   UNL     1      27.988  44.533  54.385  1.00  0.00     0.102 A 
HETATM   34  N   UNL     1      28.455  45.435  55.269  1.00  0.00    -0.352 N 
HETATM   35  H   UNL     1      27.842  46.211  55.510  1.00  0.00     0.166 HD
HETATM   36  C   UNL     1      29.633  45.328  55.901  1.00  0.00     0.089 A 
HETATM   37  C   UNL     1      30.450  44.235  55.663  1.00  0.00     0.017 A 
HETATM   38  C   UNL     1      30.014  43.260  54.778  1.00  0.00     0.005 A 
HETATM   39  C   UNL     1      28.779  43.402  54.144  1.00  0.00     0.048 A 
ENDBRANCH  30  33
ENDBRANCH  25  26
ENDBRANCH   5  25
TORSDOF 8
ENDMDL
MODEL 8
REMARK VINA RESULT:      -9.7      3.249     11.858
REMARK  8 active torsions:
REMARK  status: ('A' for Active; 'I' for Inactive)
REMARK    1  A    between atoms: C_4  and  O_5 
REMARK    2  A    between atoms: O_5  and  C_6 
REMARK    3  A    between atoms: C_9  and  N_10 
REMARK    4  A    between atoms: N_10  and  C_11 
REMARK    5  A    between atoms: C_13  and  N_14 
REMARK    6  A    between atoms: C_16  and  C_17 
REMARK    7  A    between atoms: C_17  and  N_18 
REMARK    8  A    between atoms: N_22  and  C_23 
ROOT
HETATM    1  C   UNL     1      23.849  46.197  49.474  1.00  0.00     0.731 A 
HETATM    2  N   UNL     1      23.468  44.940  49.291  1.00  0.00    -0.031 NA
HETATM    3  C   UNL     1      22.344  44.747  48.622  1.00  0.00     0.219 A 
HETATM    4  N   UNL     1      21.596  45.714  48.115  1.00  0.00    -0.200 NA
HETATM    5  C   UNL     1      22.038  46.944  48.356  1.00  0.00     0.174 A 
HETATM    6  N   UNL     1      23.177  47.234  48.980  1.00  0.00    -0.045 NA
ENDROOT
BRANCH   1   7
HETATM    7  N   UNL     1      25.051  46.371  50.152  1.00  0.00    -0.188 N 
HETATM    8  H   UNL     1      25.579  47.122  49.722  1.00  0.00     0.184 HD
BRANCH   7   9
HETATM    9  C   UNL     1      25.772  45.584  51.062  1.00  0.00     0.049 A 
HETATM   10  C   UNL     1      26.916  44.851  50.725  1.00  0.00     0.033 A 
HETATM   11  C   UNL     1      27.568  44.053  51.673  1.00  0.00     0.039 A 
HETATM   12  C   UNL     1      27.084  43.981  52.975  1.00  0.00     0.076 A 
HETATM   13  C   UNL     1      25.922  44.663  53.324  1.00  0.00     0.039 A 
HETATM   14  C   UNL     1      25.277  45.460  52.372  1.00  0.00     0.033 A 
BRANCH  12  15
HETATM   15  O   UNL     1      27.748  43.160  53.852  1.00  0.00    -0.311 OA
BRANCH  15  16
HETATM   16  C   UNL     1      28.720  43.722  54.650  1.00  0.00     0.076 A 
HETATM   17  C   UNL     1      29.841  42.928  54.907  1.00  0.00     0.037 A 
HETATM   18  C   UNL     1      30.893  43.431  55.673  1.00  0.00     0.003 A 
HETATM   19  C   UNL     1      30.832  44.731  56.174  1.00  0.00     0.000 A 
HETATM   20  C   UNL     1      29.723  45.532  55.903  1.00  0.00     0.003 A 
HETATM   21  C   UNL     1      28.670  45.033  55.133  1.00  0.00     0.037 A 
ENDBRANCH  15  16
ENDBRANCH  12  15
ENDBRANCH   7   9
ENDBRANCH   1   7
BRANCH   3  22
HETATM   22  N   UNL     1      21.946  43.449  48.397  1.00  0.00    -0.270 NA
HETATM   23  H   UNL     1      21.344  43.122  49.146  1.00  0.00     0.127 HD
HETATM   24  H   UNL     1      21.576  43.317  47.465  1.00  0.00     0.127 HD
ENDBRANCH   3  22
BRANCH   5  25
HETATM   25  C   UNL     1      21.320  48.087  47.667  1.00  0.00     0.316 C 
BRANCH  25  26
HETATM   26  N   UNL     1      20.873  49.244  48.582  1.00  0.00    -0.061 N 
HETATM   27  H   UNL     1      21.703  49.467  49.148  1.00  0.00     0.280 HD
HETATM   28  C   UNL     1      20.502  50.497  47.794  1.00  0.00     0.255 C 
HETATM   29  C   UNL     1      20.156  51.650  48.768  1.00  0.00     0.152 C 
HETATM   30  N   UNL     1      19.140  51.263  49.781  1.00  0.00    -0.364 N 
HETATM   31  C   UNL     1      19.422  49.997  50.501  1.00  0.00     0.152 C 
HETATM   32  C   UNL     1      19.752  48.834  49.530  1.00  0.00     0.255 C 
BRANCH  30  33
HETATM   33  C   UNL     1      17.817  51.622  49.606  1.00  0.00     0.102 A 
HETATM   34  N   UNL     1      17.403  52.774  50.167  1.00  0.00    -0.352 N 
HETATM   35  H   UNL     1      18.102  53.334  50.649  1.00  0.00     0.166 HD
HETATM   36  C   UNL     1      16.156  53.256  50.061  1.00  0.00     0.089 A 
HETATM   37  C   UNL     1      15.204  52.561  49.334  1.00  0.00     0.017 A 
HETATM   38  C   UNL     1      15.575  51.377  48.713  1.00  0.00     0.005 A 
HETATM   39  C   UNL     1      16.884  50.909  48.841  1.00  0.00     0.048 A 
ENDBRANCH  30  33
ENDBRANCH  25  26
ENDBRANCH   5  25
TORSDOF 8
ENDMDL
MODEL 9
REMARK VINA RESULT:      -9.6      1.676      2.646
REMARK  8 active torsions:
REMARK  status: ('A' for Active; 'I' for Inactive)
REMARK    1  A    between atoms: C_4  and  O_5 
REMARK    2  A    between atoms: O_5  and  C_6 
REMARK    3  A    between atoms: C_9  and  N_10 
REMARK    4  A    between atoms: N_10  and  C_11 
REMARK    5  A    between atoms: C_13  and  N_14 
REMARK    6  A    between atoms: C_16  and  C_17 
REMARK    7  A    between atoms: C_17  and  N_18 
REMARK    8  A    between atoms: N_22  and  C_23 
ROOT
HETATM    1  C   UNL     1      22.719  48.244  48.856  1.00  0.00     0.731 A 
HETATM    2  N   UNL     1      22.270  47.050  48.491  1.00  0.00    -0.031 NA
HETATM    3  C   UNL     1      22.994  46.004  48.850  1.00  0.00     0.219 A 
HETATM    4  N   UNL     1      24.113  46.070  49.555  1.00  0.00    -0.200 NA
HETATM    5  C   UNL     1      24.502  47.302  49.867  1.00  0.00     0.174 A 
HETATM    6  N   UNL     1      23.819  48.409  49.587  1.00  0.00    -0.045 NA
ENDROOT
BRANCH   1   7
HETATM    7  N   UNL     1      21.922  49.325  48.495  1.00  0.00    -0.188 N 
HETATM    8  H   UNL     1      22.446  49.947  47.889  1.00  0.00     0.184 HD
BRANCH   7   9
HETATM    9  C   UNL     1      20.724  49.854  48.995  1.00  0.00     0.049 A 
HETATM   10  C   UNL     1      19.641  49.074  49.416  1.00  0.00     0.033 A 
HETATM   11  C   UNL     1      18.456  49.666  49.869  1.00  0.00     0.039 A 
HETATM   12  C   UNL     1      18.340  51.051  49.911  1.00  0.00     0.076 A 
HETATM   13  C   UNL     1      19.384  51.850  49.455  1.00  0.00     0.039 A 
HETATM   14  C   UNL     1      20.566  51.251  49.004  1.00  0.00     0.033 A 
BRANCH  12  15
HETATM   15  O   UNL     1      17.145  51.574  50.337  1.00  0.00    -0.311 OA
BRANCH  15  16
HETATM   16  C   UNL     1      16.311  52.128  49.390  1.00  0.00     0.076 A 
HETATM   17  C   UNL     1      15.554  53.227  49.804  1.00  0.00     0.037 A 
HETATM   18  C   UNL     1      14.712  53.876  48.900  1.00  0.00     0.003 A 
HETATM   19  C   UNL     1      14.633  53.435  47.580  1.00  0.00     0.000 A 
HETATM   20  C   UNL     1      15.404  52.351  47.158  1.00  0.00     0.003 A 
HETATM   21  C   UNL     1      16.250  51.702  48.060  1.00  0.00     0.037 A 
ENDBRANCH  15  16
ENDBRANCH  12  15
ENDBRANCH   7   9
ENDBRANCH   1   7
BRANCH   3  22
HETATM   22  N   UNL     1      22.531  44.755  48.506  1.00  0.00    -0.270 NA
HETATM   23  H   UNL     1      21.800  44.454  49.141  1.00  0.00     0.127 HD
HETATM   24  H   UNL     1      22.297  44.689  47.525  1.00  0.00     0.127 HD
ENDBRANCH   3  22
BRANCH   5  25
HETATM   25  C   UNL     1      25.681  47.440  50.808  1.00  0.00     0.316 C 
BRANCH  25  26
HETATM   26  N   UNL     1      25.731  46.428  51.970  1.00  0.00    -0.061 N 
HETATM   27  H   UNL     1      24.758  46.114  52.086  1.00  0.00     0.280 HD
HETATM   28  C   UNL     1      26.575  45.201  51.636  1.00  0.00     0.255 C 
HETATM   29  C   UNL     1      26.509  44.182  52.799  1.00  0.00     0.152 C 
HETATM   30  N   UNL     1      26.835  44.788  54.116  1.00  0.00    -0.364 N 
HETATM   31  C   UNL     1      26.100  46.037  54.432  1.00  0.00     0.152 C 
HETATM   32  C   UNL     1      26.179  47.069  53.278  1.00  0.00     0.255 C 
BRANCH  30  33
HETATM   33  C   UNL     1      28.099  44.632  54.655  1.00  0.00     0.102 A 
HETATM   34  N   UNL     1      28.502  45.533  55.570  1.00  0.00    -0.352 N 
HETATM   35  H   UNL     1      27.835  46.250  55.844  1.00  0.00     0.166 HD
HETATM   36  C   UNL     1      29.691  45.492  56.191  1.00  0.00     0.089 A 
HETATM   37  C   UNL     1      30.586  44.476  55.906  1.00  0.00     0.017 A 
HETATM   38  C   UNL     1      30.219  43.503  54.987  1.00  0.00     0.005 A 
HETATM   39  C   UNL     1      28.971  43.575  54.366  1.00  0.00     0.048 A 
ENDBRANCH  30  33
ENDBRANCH  25  26
ENDBRANCH   5  25
TORSDOF 8
ENDMDL
MODEL 10
REMARK VINA RESULT:      -9.4      4.683     11.222
REMARK  8 active torsions:
REMARK  status: ('A' for Active; 'I' for Inactive)
REMARK    1  A    between atoms: C_4  and  O_5 
REMARK    2  A    between atoms: O_5  and  C_6 
REMARK    3  A    between atoms: C_9  and  N_10 
REMARK    4  A    between atoms: N_10  and  C_11 
REMARK    5  A    between atoms: C_13  and  N_14 
REMARK    6  A    between atoms: C_16  and  C_17 
REMARK    7  A    between atoms: C_17  and  N_18 
REMARK    8  A    between atoms: N_22  and  C_23 
ROOT
HETATM    1  C   UNL     1      28.247  39.924  50.706  1.00  0.00     0.731 A 
HETATM    2  N   UNL     1      28.731  38.837  50.118  1.00  0.00    -0.031 NA
HETATM    3  C   UNL     1      28.216  38.513  48.944  1.00  0.00     0.219 A 
HETATM    4  N   UNL     1      27.275  39.203  48.319  1.00  0.00    -0.200 NA
HETATM    5  C   UNL     1      26.834  40.268  48.981  1.00  0.00     0.174 A 
HETATM    6  N   UNL     1      27.320  40.696  50.144  1.00  0.00    -0.045 NA
ENDROOT
BRANCH   1   7
HETATM    7  N   UNL     1      28.829  40.261  51.923  1.00  0.00    -0.188 N 
HETATM    8  H   UNL     1      29.039  39.417  52.445  1.00  0.00     0.184 HD
BRANCH   7   9
HETATM    9  C   UNL     1      28.911  41.451  52.660  1.00  0.00     0.049 A 
HETATM   10  C   UNL     1      30.048  42.266  52.704  1.00  0.00     0.033 A 
HETATM   11  C   UNL     1      30.079  43.423  53.491  1.00  0.00     0.039 A 
HETATM   12  C   UNL     1      28.966  43.783  54.245  1.00  0.00     0.076 A 
HETATM   13  C   UNL     1      27.839  42.966  54.255  1.00  0.00     0.039 A 
HETATM   14  C   UNL     1      27.816  41.812  53.465  1.00  0.00     0.033 A 
BRANCH  12  15
HETATM   15  O   UNL     1      29.065  44.911  55.020  1.00  0.00    -0.311 OA
BRANCH  15  16
HETATM   16  C   UNL     1      29.895  44.866  56.119  1.00  0.00     0.076 A 
HETATM   17  C   UNL     1      29.701  45.863  57.078  1.00  0.00     0.037 A 
HETATM   18  C   UNL     1      30.470  45.872  58.243  1.00  0.00     0.003 A 
HETATM   19  C   UNL     1      31.426  44.880  58.455  1.00  0.00     0.000 A 
HETATM   20  C   UNL     1      31.608  43.871  57.508  1.00  0.00     0.003 A 
HETATM   21  C   UNL     1      30.837  43.858  56.344  1.00  0.00     0.037 A 
ENDBRANCH  15  16
ENDBRANCH  12  15
ENDBRANCH   7   9
ENDBRANCH   1   7
BRANCH   3  22
HETATM   22  N   UNL     1      28.723  37.404  48.305  1.00  0.00    -0.270 NA
HETATM   23  H   UNL     1      29.711  37.293  48.506  1.00  0.00     0.127 HD
HETATM   24  H   UNL     1      28.161  36.579  48.464  1.00  0.00     0.127 HD
ENDBRANCH   3  22
BRANCH   5  25
HETATM   25  C   UNL     1      25.878  41.190  48.253  1.00  0.00     0.316 C 
BRANCH  25  26
HETATM   26  N   UNL     1      25.074  42.158  49.144  1.00  0.00    -0.061 N 
HETATM   27  H   UNL     1      24.580  41.552  49.812  1.00  0.00     0.280 HD
HETATM   28  C   UNL     1      25.975  43.091  49.949  1.00  0.00     0.255 C 
HETATM   29  C   UNL     1      25.118  43.970  50.892  1.00  0.00     0.152 C 
HETATM   30  N   UNL     1      24.017  44.672  50.183  1.00  0.00    -0.364 N 
HETATM   31  C   UNL     1      23.177  43.809  49.315  1.00  0.00     0.152 C 
HETATM   32  C   UNL     1      24.031  42.941  48.356  1.00  0.00     0.255 C 
BRANCH  30  33
HETATM   33  C   UNL     1      24.162  45.999  49.823  1.00  0.00     0.102 A 
HETATM   34  N   UNL     1      23.074  46.642  49.359  1.00  0.00    -0.352 N 
HETATM   35  H   UNL     1      22.198  46.125  49.344  1.00  0.00     0.166 HD
HETATM   36  C   UNL     1      23.062  47.933  48.995  1.00  0.00     0.089 A 
HETATM   37  C   UNL     1      24.218  48.690  49.089  1.00  0.00     0.017 A 
HETATM   38  C   UNL     1      25.368  48.089  49.581  1.00  0.00     0.005 A 
HETATM   39  C   UNL     1      25.341  46.745  49.956  1.00  0.00     0.048 A 
ENDBRANCH  30  33
ENDBRANCH  25  26
ENDBRANCH   5  25
TORSDOF 8
ENDMDL
