MODEL 1
REMARK VINA RESULT:      -7.8      0.000      0.000
REMARK  8 active torsions:
REMARK  status: ('A' for Active; 'I' for Inactive)
REMARK    1  A    between atoms: N_3  and  C_4 
REMARK    2  A    between atoms: C_4  and  C_5 
REMARK    3  A    between atoms: C_5  and  O_6 
REMARK    4  A    between atoms: C_11  and  C_12 
REMARK    5  A    between atoms: C_13  and  C_14 
REMARK    6  A    between atoms: C_22  and  C_23 
REMARK       I    between atoms: C_23  and  N_24 
REMARK    7  A    between atoms: N_24  and  C_25 
REMARK    8  A    between atoms: C_26  and  O_27 
ROOT
HETATM    1  C   UNL     1      25.935  46.199  51.311  1.00  0.00     0.069 C 
HETATM    2  C   UNL     1      25.632  44.731  51.133  1.00  0.00     0.026 C 
HETATM    3  N   UNL     1      24.388  44.356  50.598  1.00  0.00    -0.301 N 
HETATM    4  C   UNL     1      23.922  43.037  50.640  1.00  0.00     0.323 C 
HETATM    5  O   UNL     1      22.814  42.665  50.262  1.00  0.00    -0.247 OA
HETATM    6  N   UNL     1      24.758  42.119  51.199  1.00  0.00    -0.330 N 
HETATM    7  C   UNL     1      26.177  42.301  51.341  1.00  0.00     0.161 C 
HETATM    8  C   UNL     1      26.494  43.756  51.487  1.00  0.00     0.059 C 
HETATM    9  H   UNL     1      24.387  41.179  51.180  1.00  0.00     0.165 HD
ENDROOT
BRANCH   8  10
HETATM   10  C   UNL     1      27.781  44.066  52.163  1.00  0.00     0.256 C 
HETATM   11  N   UNL     1      27.695  43.983  53.532  1.00  0.00    -0.321 N 
HETATM   12  H   UNL     1      26.805  43.732  53.955  1.00  0.00     0.169 HD
HETATM   13  O   UNL     1      28.761  44.354  51.489  1.00  0.00    -0.267 OA
BRANCH  11  14
HETATM   14  C   UNL     1      28.699  44.269  54.485  1.00  0.00     0.068 A 
HETATM   15  C   UNL     1      28.597  45.502  55.166  1.00  0.00     0.095 A 
HETATM   16  C   UNL     1      29.565  45.856  56.110  1.00  0.00     0.039 A 
HETATM   17  C   UNL     1      30.625  44.990  56.383  1.00  0.00     0.003 A 
HETATM   18  C   UNL     1      30.723  43.772  55.716  1.00  0.00     0.002 A 
HETATM   19  C   UNL     1      29.764  43.412  54.767  1.00  0.00     0.032 A 
BRANCH  15  20
HETATM   20  O   UNL     1      27.513  46.277  54.820  1.00  0.00    -0.354 OA
HETATM   21  C   UNL     1      27.713  47.684  54.775  1.00  0.00     0.210 C 
ENDBRANCH  15  20
ENDBRANCH  11  14
ENDBRANCH   8  10
BRANCH   7  22
HETATM   22  C   UNL     1      26.896  41.613  50.176  1.00  0.00    -0.016 A 
HETATM   23  C   UNL     1      28.047  40.808  50.371  1.00  0.00     0.056 A 
HETATM   24  C   UNL     1      28.662  40.202  49.258  1.00  0.00     0.017 A 
HETATM   25  C   UNL     1      28.147  40.364  47.973  1.00  0.00     0.001 A 
HETATM   26  C   UNL     1      27.005  41.129  47.779  1.00  0.00     0.001 A 
HETATM   27  C   UNL     1      26.384  41.742  48.866  1.00  0.00     0.010 A 
BRANCH  23  28
HETATM   28  C   UNL     1      28.630  40.563  51.747  1.00  0.00     0.418 C 
HETATM   29  F   UNL     1      29.529  41.522  52.104  1.00  0.00    -0.166 F 
HETATM   30  F   UNL     1      27.701  40.539  52.743  1.00  0.00    -0.166 F 
HETATM   31  F   UNL     1      29.291  39.376  51.827  1.00  0.00    -0.166 F 
ENDBRANCH  23  28
ENDBRANCH   7  22
BRANCH   3  32
HETATM   32  C   UNL     1      23.483  45.337  49.981  1.00  0.00     0.160 C 
BRANCH  32  33
HETATM   33  C   UNL     1      23.601  45.402  48.451  1.00  0.00     0.187 C 
BRANCH  33  34
HETATM   34  O   UNL     1      22.410  44.924  47.823  1.00  0.00    -0.394 OA
HETATM   35  C   UNL     1      21.246  45.301  48.546  1.00  0.00     0.201 C 
ENDBRANCH  33  34
ENDBRANCH  32  33
ENDBRANCH   3  32
TORSDOF 8
ENDMDL
MODEL 2
REMARK VINA RESULT:      -7.6      5.685      8.416
REMARK  8 active torsions:
REMARK  status: ('A' for Active; 'I' for Inactive)
REMARK    1  A    between atoms: N_3  and  C_4 
REMARK    2  A    between atoms: C_4  and  C_5 
REMARK    3  A    between atoms: C_5  and  O_6 
REMARK    4  A    between atoms: C_11  and  C_12 
REMARK    5  A    between atoms: C_13  and  C_14 
REMARK    6  A    between atoms: C_22  and  C_23 
REMARK       I    between atoms: C_23  and  N_24 
REMARK    7  A    between atoms: N_24  and  C_25 
REMARK    8  A    between atoms: C_26  and  O_27 
ROOT
HETATM    1  C   UNL     1      20.584  51.428  48.863  1.00  0.00     0.069 C 
HETATM    2  C   UNL     1      20.215  49.964  48.887  1.00  0.00     0.026 C 
HETATM    3  N   UNL     1      18.932  49.596  49.326  1.00  0.00    -0.301 N 
HETATM    4  C   UNL     1      18.596  48.272  49.627  1.00  0.00     0.323 C 
HETATM    5  O   UNL     1      17.519  47.902  50.090  1.00  0.00    -0.247 OA
HETATM    6  N   UNL     1      19.573  47.342  49.439  1.00  0.00    -0.330 N 
HETATM    7  C   UNL     1      20.715  47.535  48.585  1.00  0.00     0.161 C 
HETATM    8  C   UNL     1      21.071  48.986  48.529  1.00  0.00     0.059 C 
HETATM    9  H   UNL     1      19.272  46.399  49.644  1.00  0.00     0.165 HD
ENDROOT
BRANCH   8  10
HETATM   10  C   UNL     1      22.480  49.285  48.162  1.00  0.00     0.256 C 
HETATM   11  N   UNL     1      23.384  48.754  49.050  1.00  0.00    -0.321 N 
HETATM   12  H   UNL     1      23.039  48.228  49.848  1.00  0.00     0.169 HD
HETATM   13  O   UNL     1      22.715  49.942  47.156  1.00  0.00    -0.267 OA
BRANCH  11  14
HETATM   14  C   UNL     1      24.791  48.892  49.046  1.00  0.00     0.068 A 
HETATM   15  C   UNL     1      25.524  47.958  49.810  1.00  0.00     0.095 A 
HETATM   16  C   UNL     1      26.918  48.047  49.864  1.00  0.00     0.039 A 
HETATM   17  C   UNL     1      27.583  49.051  49.158  1.00  0.00     0.003 A 
HETATM   18  C   UNL     1      26.861  49.968  48.399  1.00  0.00     0.002 A 
HETATM   19  C   UNL     1      25.468  49.891  48.344  1.00  0.00     0.032 A 
BRANCH  15  20
HETATM   20  O   UNL     1      24.769  47.012  50.465  1.00  0.00    -0.354 OA
HETATM   21  C   UNL     1      25.347  46.406  51.615  1.00  0.00     0.210 C 
ENDBRANCH  15  20
ENDBRANCH  11  14
ENDBRANCH   8  10
BRANCH   7  22
HETATM   22  C   UNL     1      20.439  46.898  47.220  1.00  0.00    -0.016 A 
HETATM   23  C   UNL     1      21.035  45.672  46.827  1.00  0.00     0.056 A 
HETATM   24  C   UNL     1      20.740  45.138  45.556  1.00  0.00     0.017 A 
HETATM   25  C   UNL     1      19.861  45.784  44.689  1.00  0.00     0.001 A 
HETATM   26  C   UNL     1      19.256  46.971  45.078  1.00  0.00     0.001 A 
HETATM   27  C   UNL     1      19.537  47.519  46.329  1.00  0.00     0.010 A 
BRANCH  23  28
HETATM   28  C   UNL     1      21.967  44.904  47.740  1.00  0.00     0.418 C 
HETATM   29  F   UNL     1      21.369  44.559  48.914  1.00  0.00    -0.166 F 
HETATM   30  F   UNL     1      22.427  43.739  47.205  1.00  0.00    -0.166 F 
HETATM   31  F   UNL     1      23.072  45.622  48.075  1.00  0.00    -0.166 F 
ENDBRANCH  23  28
ENDBRANCH   7  22
BRANCH   3  32
HETATM   32  C   UNL     1      17.866  50.590  49.523  1.00  0.00     0.160 C 
BRANCH  32  33
HETATM   33  C   UNL     1      17.000  50.814  48.274  1.00  0.00     0.187 C 
BRANCH  33  34
HETATM   34  O   UNL     1      15.692  50.266  48.449  1.00  0.00    -0.394 OA
HETATM   35  C   UNL     1      15.448  49.191  47.553  1.00  0.00     0.201 C 
ENDBRANCH  33  34
ENDBRANCH  32  33
ENDBRANCH   3  32
TORSDOF 8
ENDMDL
MODEL 3
REMARK VINA RESULT:      -7.5      4.601      9.067
REMARK  8 active torsions:
REMARK  status: ('A' for Active; 'I' for Inactive)
REMARK    1  A    between atoms: N_3  and  C_4 
REMARK    2  A    between atoms: C_4  and  C_5 
REMARK    3  A    between atoms: C_5  and  O_6 
REMARK    4  A    between atoms: C_11  and  C_12 
REMARK    5  A    between atoms: C_13  and  C_14 
REMARK    6  A    between atoms: C_22  and  C_23 
REMARK       I    between atoms: C_23  and  N_24 
REMARK    7  A    between atoms: N_24  and  C_25 
REMARK    8  A    between atoms: C_26  and  O_27 
ROOT
HETATM    1  C   UNL     1      23.835  43.597  49.263  1.00  0.00     0.069 C 
HETATM    2  C   UNL     1      24.182  44.903  49.936  1.00  0.00     0.026 C 
HETATM    3  N   UNL     1      25.097  44.895  51.001  1.00  0.00    -0.301 N 
HETATM    4  C   UNL     1      25.277  45.998  51.843  1.00  0.00     0.323 C 
HETATM    5  O   UNL     1      26.002  46.022  52.835  1.00  0.00    -0.247 OA
HETATM    6  N   UNL     1      24.538  47.104  51.554  1.00  0.00    -0.330 N 
HETATM    7  C   UNL     1      23.950  47.369  50.268  1.00  0.00     0.161 C 
HETATM    8  C   UNL     1      23.631  46.081  49.578  1.00  0.00     0.059 C 
HETATM    9  H   UNL     1      24.724  47.881  52.173  1.00  0.00     0.165 HD
ENDROOT
BRANCH   8  10
HETATM   10  C   UNL     1      22.571  46.158  48.539  1.00  0.00     0.256 C 
HETATM   11  N   UNL     1      21.305  46.052  49.062  1.00  0.00    -0.321 N 
HETATM   12  H   UNL     1      21.197  45.933  50.066  1.00  0.00     0.169 HD
HETATM   13  O   UNL     1      22.888  46.301  47.364  1.00  0.00    -0.267 OA
BRANCH  11  14
HETATM   14  C   UNL     1      20.076  46.023  48.366  1.00  0.00     0.068 A 
HETATM   15  C   UNL     1      19.172  47.077  48.625  1.00  0.00     0.095 A 
HETATM   16  C   UNL     1      17.931  47.100  47.982  1.00  0.00     0.039 A 
HETATM   17  C   UNL     1      17.589  46.089  47.082  1.00  0.00     0.003 A 
HETATM   18  C   UNL     1      18.482  45.053  46.823  1.00  0.00     0.002 A 
HETATM   19  C   UNL     1      19.722  45.017  47.464  1.00  0.00     0.032 A 
BRANCH  15  20
HETATM   20  O   UNL     1      19.611  48.019  49.526  1.00  0.00    -0.354 OA
HETATM   21  C   UNL     1      18.644  48.558  50.419  1.00  0.00     0.210 C 
ENDBRANCH  15  20
ENDBRANCH  11  14
ENDBRANCH   8  10
BRANCH   7  22
HETATM   22  C   UNL     1      24.870  48.301  49.473  1.00  0.00    -0.016 A 
HETATM   23  C   UNL     1      24.371  49.418  48.756  1.00  0.00     0.056 A 
HETATM   24  C   UNL     1      25.270  50.237  48.044  1.00  0.00     0.017 A 
HETATM   25  C   UNL     1      26.639  49.979  48.048  1.00  0.00     0.001 A 
HETATM   26  C   UNL     1      27.136  48.902  48.769  1.00  0.00     0.001 A 
HETATM   27  C   UNL     1      26.264  48.076  49.477  1.00  0.00     0.010 A 
BRANCH  23  28
HETATM   28  C   UNL     1      22.899  49.773  48.745  1.00  0.00     0.418 C 
HETATM   29  F   UNL     1      22.210  49.082  47.795  1.00  0.00    -0.166 F 
HETATM   30  F   UNL     1      22.262  49.516  49.922  1.00  0.00    -0.166 F 
HETATM   31  F   UNL     1      22.684  51.090  48.485  1.00  0.00    -0.166 F 
ENDBRANCH  23  28
ENDBRANCH   7  22
BRANCH   3  32
HETATM   32  C   UNL     1      25.910  43.709  51.315  1.00  0.00     0.160 C 
BRANCH  32  33
HETATM   33  C   UNL     1      27.282  43.708  50.626  1.00  0.00     0.187 C 
BRANCH  33  34
HETATM   34  O   UNL     1      27.173  43.300  49.261  1.00  0.00    -0.394 OA
HETATM   35  C   UNL     1      27.122  41.885  49.137  1.00  0.00     0.201 C 
ENDBRANCH  33  34
ENDBRANCH  32  33
ENDBRANCH   3  32
TORSDOF 8
ENDMDL
MODEL 4
REMARK VINA RESULT:      -7.1      1.767      2.263
REMARK  8 active torsions:
REMARK  status: ('A' for Active; 'I' for Inactive)
REMARK    1  A    between atoms: N_3  and  C_4 
REMARK    2  A    between atoms: C_4  and  C_5 
REMARK    3  A    between atoms: C_5  and  O_6 
REMARK    4  A    between atoms: C_11  and  C_12 
REMARK    5  A    between atoms: C_13  and  C_14 
REMARK    6  A    between atoms: C_22  and  C_23 
REMARK       I    between atoms: C_23  and  N_24 
REMARK    7  A    between atoms: N_24  and  C_25 
REMARK    8  A    between atoms: C_26  and  O_27 
ROOT
HETATM    1  C   UNL     1      24.473  45.461  49.286  1.00  0.00     0.069 C 
HETATM    2  C   UNL     1      24.525  43.953  49.228  1.00  0.00     0.026 C 
HETATM    3  N   UNL     1      23.493  43.264  48.570  1.00  0.00    -0.301 N 
HETATM    4  C   UNL     1      23.321  41.880  48.690  1.00  0.00     0.323 C 
HETATM    5  O   UNL     1      22.393  41.237  48.206  1.00  0.00    -0.247 OA
HETATM    6  N   UNL     1      24.235  41.223  49.455  1.00  0.00    -0.330 N 
HETATM    7  C   UNL     1      25.541  41.735  49.771  1.00  0.00     0.161 C 
HETATM    8  C   UNL     1      25.509  43.231  49.801  1.00  0.00     0.059 C 
HETATM    9  H   UNL     1      24.084  40.224  49.487  1.00  0.00     0.165 HD
ENDROOT
BRANCH   8  10
HETATM   10  C   UNL     1      26.575  43.877  50.611  1.00  0.00     0.256 C 
HETATM   11  N   UNL     1      26.429  43.652  51.958  1.00  0.00    -0.321 N 
HETATM   12  H   UNL     1      25.644  43.093  52.281  1.00  0.00     0.169 HD
HETATM   13  O   UNL     1      27.451  44.522  50.049  1.00  0.00    -0.267 OA
BRANCH  11  14
HETATM   14  C   UNL     1      27.217  44.161  53.016  1.00  0.00     0.068 A 
HETATM   15  C   UNL     1      26.778  45.363  53.615  1.00  0.00     0.095 A 
HETATM   16  C   UNL     1      27.520  45.930  54.655  1.00  0.00     0.039 A 
HETATM   17  C   UNL     1      28.686  45.307  55.105  1.00  0.00     0.003 A 
HETATM   18  C   UNL     1      29.115  44.119  54.517  1.00  0.00     0.002 A 
HETATM   19  C   UNL     1      28.384  43.548  53.474  1.00  0.00     0.032 A 
BRANCH  15  20
HETATM   20  O   UNL     1      25.618  45.889  53.095  1.00  0.00    -0.354 OA
HETATM   21  C   UNL     1      25.720  47.139  52.423  1.00  0.00     0.210 C 
ENDBRANCH  15  20
ENDBRANCH  11  14
ENDBRANCH   8  10
BRANCH   7  22
HETATM   22  C   UNL     1      26.566  41.146  48.797  1.00  0.00    -0.016 A 
HETATM   23  C   UNL     1      27.782  40.566  49.244  1.00  0.00     0.056 A 
HETATM   24  C   UNL     1      28.683  40.040  48.297  1.00  0.00     0.017 A 
HETATM   25  C   UNL     1      28.393  40.062  46.934  1.00  0.00     0.001 A 
HETATM   26  C   UNL     1      27.193  40.604  46.494  1.00  0.00     0.001 A 
HETATM   27  C   UNL     1      26.289  41.135  47.413  1.00  0.00     0.010 A 
BRANCH  23  28
HETATM   28  C   UNL     1      28.136  40.478  50.714  1.00  0.00     0.418 C 
HETATM   29  F   UNL     1      27.032  40.370  51.503  1.00  0.00    -0.166 F 
HETATM   30  F   UNL     1      28.920  39.410  51.028  1.00  0.00    -0.166 F 
HETATM   31  F   UNL     1      28.809  41.576  51.152  1.00  0.00    -0.166 F 
ENDBRANCH  23  28
ENDBRANCH   7  22
BRANCH   3  32
HETATM   32  C   UNL     1      22.506  43.963  47.732  1.00  0.00     0.160 C 
BRANCH  32  33
HETATM   33  C   UNL     1      22.948  44.121  46.270  1.00  0.00     0.187 C 
BRANCH  33  34
HETATM   34  O   UNL     1      22.432  43.063  45.459  1.00  0.00    -0.394 OA
HETATM   35  C   UNL     1      21.011  43.056  45.446  1.00  0.00     0.201 C 
ENDBRANCH  33  34
ENDBRANCH  32  33
ENDBRANCH   3  32
TORSDOF 8
ENDMDL
MODEL 5
REMARK VINA RESULT:      -7.1      8.613     12.350
REMARK  8 active torsions:
REMARK  status: ('A' for Active; 'I' for Inactive)
REMARK    1  A    between atoms: N_3  and  C_4 
REMARK    2  A    between atoms: C_4  and  C_5 
REMARK    3  A    between atoms: C_5  and  O_6 
REMARK    4  A    between atoms: C_11  and  C_12 
REMARK    5  A    between atoms: C_13  and  C_14 
REMARK    6  A    between atoms: C_22  and  C_23 
REMARK       I    between atoms: C_23  and  N_24 
REMARK    7  A    between atoms: N_24  and  C_25 
REMARK    8  A    between atoms: C_26  and  O_27 
ROOT
HETATM    1  C   UNL     1      18.695  46.125  45.045  1.00  0.00     0.069 C 
HETATM    2  C   UNL     1      19.184  46.458  46.434  1.00  0.00     0.026 C 
HETATM    3  N   UNL     1      19.966  45.515  47.122  1.00  0.00    -0.301 N 
HETATM    4  C   UNL     1      20.239  45.624  48.490  1.00  0.00     0.323 C 
HETATM    5  O   UNL     1      20.847  44.792  49.159  1.00  0.00    -0.247 OA
HETATM    6  N   UNL     1      19.734  46.719  49.121  1.00  0.00    -0.330 N 
HETATM    7  C   UNL     1      19.341  47.928  48.449  1.00  0.00     0.161 C 
HETATM    8  C   UNL     1      18.883  47.615  47.060  1.00  0.00     0.059 C 
HETATM    9  H   UNL     1      19.982  46.765  50.100  1.00  0.00     0.165 HD
ENDROOT
BRANCH   8  10
HETATM   10  C   UNL     1      17.969  48.614  46.447  1.00  0.00     0.256 C 
HETATM   11  N   UNL     1      18.639  49.577  45.731  1.00  0.00    -0.321 N 
HETATM   12  H   UNL     1      19.653  49.536  45.681  1.00  0.00     0.169 HD
HETATM   13  O   UNL     1      16.761  48.509  46.616  1.00  0.00    -0.267 OA
BRANCH  11  14
HETATM   14  C   UNL     1      18.098  50.705  45.074  1.00  0.00     0.068 A 
HETATM   15  C   UNL     1      18.080  50.671  43.662  1.00  0.00     0.095 A 
HETATM   16  C   UNL     1      17.574  51.762  42.948  1.00  0.00     0.039 A 
HETATM   17  C   UNL     1      17.081  52.876  43.629  1.00  0.00     0.003 A 
HETATM   18  C   UNL     1      17.093  52.907  45.022  1.00  0.00     0.002 A 
HETATM   19  C   UNL     1      17.602  51.826  45.743  1.00  0.00     0.032 A 
BRANCH  15  20
HETATM   20  O   UNL     1      18.588  49.525  43.096  1.00  0.00    -0.354 OA
HETATM   21  C   UNL     1      17.710  48.768  42.272  1.00  0.00     0.210 C 
ENDBRANCH  15  20
ENDBRANCH  11  14
ENDBRANCH   8  10
BRANCH   7  22
HETATM   22  C   UNL     1      20.485  48.944  48.523  1.00  0.00    -0.016 A 
HETATM   23  C   UNL     1      20.328  50.212  49.138  1.00  0.00     0.056 A 
HETATM   24  C   UNL     1      21.420  51.102  49.174  1.00  0.00     0.017 A 
HETATM   25  C   UNL     1      22.655  50.749  48.632  1.00  0.00     0.001 A 
HETATM   26  C   UNL     1      22.822  49.499  48.052  1.00  0.00     0.001 A 
HETATM   27  C   UNL     1      21.753  48.606  48.002  1.00  0.00     0.010 A 
BRANCH  23  28
HETATM   28  C   UNL     1      19.022  50.637  49.778  1.00  0.00     0.418 C 
HETATM   29  F   UNL     1      19.073  51.912  50.253  1.00  0.00    -0.166 F 
HETATM   30  F   UNL     1      17.956  50.601  48.930  1.00  0.00    -0.166 F 
HETATM   31  F   UNL     1      18.684  49.851  50.835  1.00  0.00    -0.166 F 
ENDBRANCH  23  28
ENDBRANCH   7  22
BRANCH   3  32
HETATM   32  C   UNL     1      20.526  44.335  46.447  1.00  0.00     0.160 C 
BRANCH  32  33
HETATM   33  C   UNL     1      22.010  44.486  46.081  1.00  0.00     0.187 C 
BRANCH  33  34
HETATM   34  O   UNL     1      22.218  45.611  45.226  1.00  0.00    -0.394 OA
HETATM   35  C   UNL     1      22.249  45.233  43.857  1.00  0.00     0.201 C 
ENDBRANCH  33  34
ENDBRANCH  32  33
ENDBRANCH   3  32
TORSDOF 8
ENDMDL
MODEL 6
REMARK VINA RESULT:      -6.9      2.681      6.336
REMARK  8 active torsions:
REMARK  status: ('A' for Active; 'I' for Inactive)
REMARK    1  A    between atoms: N_3  and  C_4 
REMARK    2  A    between atoms: C_4  and  C_5 
REMARK    3  A    between atoms: C_5  and  O_6 
REMARK    4  A    between atoms: C_11  and  C_12 
REMARK    5  A    between atoms: C_13  and  C_14 
REMARK    6  A    between atoms: C_22  and  C_23 
REMARK       I    between atoms: C_23  and  N_24 
REMARK    7  A    between atoms: N_24  and  C_25 
REMARK    8  A    between atoms: C_26  and  O_27 
ROOT
HETATM    1  C   UNL     1      26.701  46.758  52.913  1.00  0.00     0.069 C 
HETATM    2  C   UNL     1      26.753  45.342  52.391  1.00  0.00     0.026 C 
HETATM    3  N   UNL     1      26.879  44.286  53.308  1.00  0.00    -0.301 N 
HETATM    4  C   UNL     1      27.195  42.982  52.909  1.00  0.00     0.323 C 
HETATM    5  O   UNL     1      27.396  42.038  53.669  1.00  0.00    -0.247 OA
HETATM    6  N   UNL     1      27.341  42.779  51.571  1.00  0.00    -0.330 N 
HETATM    7  C   UNL     1      26.794  43.643  50.559  1.00  0.00     0.161 C 
HETATM    8  C   UNL     1      26.709  45.044  51.076  1.00  0.00     0.059 C 
HETATM    9  H   UNL     1      27.541  41.817  51.333  1.00  0.00     0.165 HD
ENDROOT
BRANCH   8  10
HETATM   10  C   UNL     1      26.690  46.108  50.039  1.00  0.00     0.256 C 
HETATM   11  N   UNL     1      25.685  47.024  50.236  1.00  0.00    -0.321 N 
HETATM   12  H   UNL     1      25.063  46.908  51.032  1.00  0.00     0.169 HD
HETATM   13  O   UNL     1      27.523  46.090  49.141  1.00  0.00    -0.267 OA
BRANCH  11  14
HETATM   14  C   UNL     1      25.337  48.123  49.418  1.00  0.00     0.068 A 
HETATM   15  C   UNL     1      23.984  48.222  49.027  1.00  0.00     0.095 A 
HETATM   16  C   UNL     1      23.574  49.275  48.204  1.00  0.00     0.039 A 
HETATM   17  C   UNL     1      24.499  50.230  47.777  1.00  0.00     0.003 A 
HETATM   18  C   UNL     1      25.833  50.135  48.167  1.00  0.00     0.002 A 
HETATM   19  C   UNL     1      26.252  49.084  48.984  1.00  0.00     0.032 A 
BRANCH  15  20
HETATM   20  O   UNL     1      23.160  47.230  49.506  1.00  0.00    -0.354 OA
HETATM   21  C   UNL     1      22.462  46.449  48.544  1.00  0.00     0.210 C 
ENDBRANCH  15  20
ENDBRANCH  11  14
ENDBRANCH   8  10
BRANCH   7  22
HETATM   22  C   UNL     1      25.462  43.069  50.068  1.00  0.00    -0.016 A 
HETATM   23  C   UNL     1      25.400  41.960  49.185  1.00  0.00     0.056 A 
HETATM   24  C   UNL     1      24.142  41.479  48.769  1.00  0.00     0.017 A 
HETATM   25  C   UNL     1      22.961  42.061  49.226  1.00  0.00     0.001 A 
HETATM   26  C   UNL     1      23.015  43.130  50.111  1.00  0.00     0.001 A 
HETATM   27  C   UNL     1      24.249  43.624  50.530  1.00  0.00     0.010 A 
BRANCH  23  28
HETATM   28  C   UNL     1      26.647  41.262  48.685  1.00  0.00     0.418 C 
HETATM   29  F   UNL     1      26.393  40.455  47.618  1.00  0.00    -0.166 F 
HETATM   30  F   UNL     1      27.630  42.113  48.278  1.00  0.00    -0.166 F 
HETATM   31  F   UNL     1      27.212  40.468  49.634  1.00  0.00    -0.166 F 
ENDBRANCH  23  28
ENDBRANCH   7  22
BRANCH   3  32
HETATM   32  C   UNL     1      26.713  44.492  54.755  1.00  0.00     0.160 C 
BRANCH  32  33
HETATM   33  C   UNL     1      27.917  45.176  55.418  1.00  0.00     0.187 C 
BRANCH  33  34
HETATM   34  O   UNL     1      29.128  44.473  55.135  1.00  0.00    -0.394 OA
HETATM   35  C   UNL     1      30.187  44.882  55.990  1.00  0.00     0.201 C 
ENDBRANCH  33  34
ENDBRANCH  32  33
ENDBRANCH   3  32
TORSDOF 8
ENDMDL
MODEL 7
REMARK VINA RESULT:      -6.8      8.532     11.929
REMARK  8 active torsions:
REMARK  status: ('A' for Active; 'I' for Inactive)
REMARK    1  A    between atoms: N_3  and  C_4 
REMARK    2  A    between atoms: C_4  and  C_5 
REMARK    3  A    between atoms: C_5  and  O_6 
REMARK    4  A    between atoms: C_11  and  C_12 
REMARK    5  A    between atoms: C_13  and  C_14 
REMARK    6  A    between atoms: C_22  and  C_23 
REMARK       I    between atoms: C_23  and  N_24 
REMARK    7  A    between atoms: N_24  and  C_25 
REMARK    8  A    between atoms: C_26  and  O_27 
ROOT
HETATM    1  C   UNL     1      17.554  47.986  45.878  1.00  0.00     0.069 C 
HETATM    2  C   UNL     1      18.449  47.684  47.055  1.00  0.00     0.026 C 
HETATM    3  N   UNL     1      18.874  46.361  47.261  1.00  0.00    -0.301 N 
HETATM    4  C   UNL     1      19.479  45.946  48.453  1.00  0.00     0.323 C 
HETATM    5  O   UNL     1      19.797  44.789  48.721  1.00  0.00    -0.247 OA
HETATM    6  N   UNL     1      19.669  46.906  49.400  1.00  0.00    -0.330 N 
HETATM    7  C   UNL     1      19.703  48.317  49.122  1.00  0.00     0.161 C 
HETATM    8  C   UNL     1      18.843  48.625  47.937  1.00  0.00     0.059 C 
HETATM    9  H   UNL     1      20.134  46.562  50.229  1.00  0.00     0.165 HD
ENDROOT
BRANCH   8  10
HETATM   10  C   UNL     1      18.346  50.023  47.854  1.00  0.00     0.256 C 
HETATM   11  N   UNL     1      17.349  50.287  48.762  1.00  0.00    -0.321 N 
HETATM   12  H   UNL     1      17.043  49.546  49.386  1.00  0.00     0.169 HD
HETATM   13  O   UNL     1      18.833  50.788  47.031  1.00  0.00    -0.267 OA
BRANCH  11  14
HETATM   14  C   UNL     1      16.611  51.483  48.920  1.00  0.00     0.068 A 
HETATM   15  C   UNL     1      15.597  51.734  47.971  1.00  0.00     0.095 A 
HETATM   16  C   UNL     1      14.840  52.906  48.058  1.00  0.00     0.039 A 
HETATM   17  C   UNL     1      15.081  53.820  49.086  1.00  0.00     0.003 A 
HETATM   18  C   UNL     1      16.078  53.569  50.025  1.00  0.00     0.002 A 
HETATM   19  C   UNL     1      16.843  52.405  49.943  1.00  0.00     0.032 A 
BRANCH  15  20
HETATM   20  O   UNL     1      15.444  50.768  47.003  1.00  0.00    -0.354 OA
HETATM   21  C   UNL     1      15.445  51.203  45.649  1.00  0.00     0.210 C 
ENDBRANCH  15  20
ENDBRANCH  11  14
ENDBRANCH   8  10
BRANCH   7  22
HETATM   22  C   UNL     1      21.159  48.771  48.981  1.00  0.00    -0.016 A 
HETATM   23  C   UNL     1      21.629  49.981  49.553  1.00  0.00     0.056 A 
HETATM   24  C   UNL     1      22.981  50.343  49.388  1.00  0.00     0.017 A 
HETATM   25  C   UNL     1      23.866  49.524  48.688  1.00  0.00     0.001 A 
HETATM   26  C   UNL     1      23.417  48.326  48.148  1.00  0.00     0.001 A 
HETATM   27  C   UNL     1      22.083  47.952  48.296  1.00  0.00     0.010 A 
BRANCH  23  28
HETATM   28  C   UNL     1      20.725  50.892  50.356  1.00  0.00     0.418 C 
HETATM   29  F   UNL     1      19.695  50.215  50.936  1.00  0.00    -0.166 F 
HETATM   30  F   UNL     1      21.359  51.540  51.373  1.00  0.00    -0.166 F 
HETATM   31  F   UNL     1      20.157  51.864  49.592  1.00  0.00    -0.166 F 
ENDBRANCH  23  28
ENDBRANCH   7  22
BRANCH   3  32
HETATM   32  C   UNL     1      18.683  45.318  46.241  1.00  0.00     0.160 C 
BRANCH  32  33
HETATM   33  C   UNL     1      19.862  45.195  45.264  1.00  0.00     0.187 C 
BRANCH  33  34
HETATM   34  O   UNL     1      19.451  45.475  43.925  1.00  0.00    -0.394 OA
HETATM   35  C   UNL     1      20.515  46.007  43.149  1.00  0.00     0.201 C 
ENDBRANCH  33  34
ENDBRANCH  32  33
ENDBRANCH   3  32
TORSDOF 8
ENDMDL
MODEL 8
REMARK VINA RESULT:      -6.7      7.764     11.267
REMARK  8 active torsions:
REMARK  status: ('A' for Active; 'I' for Inactive)
REMARK    1  A    between atoms: N_3  and  C_4 
REMARK    2  A    between atoms: C_4  and  C_5 
REMARK    3  A    between atoms: C_5  and  O_6 
REMARK    4  A    between atoms: C_11  and  C_12 
REMARK    5  A    between atoms: C_13  and  C_14 
REMARK    6  A    between atoms: C_22  and  C_23 
REMARK       I    between atoms: C_23  and  N_24 
REMARK    7  A    between atoms: N_24  and  C_25 
REMARK    8  A    between atoms: C_26  and  O_27 
ROOT
HETATM    1  C   UNL     1      23.404  46.709  48.261  1.00  0.00     0.069 C 
HETATM    2  C   UNL     1      22.303  47.652  48.683  1.00  0.00     0.026 C 
HETATM    3  N   UNL     1      22.649  48.921  49.176  1.00  0.00    -0.301 N 
HETATM    4  C   UNL     1      21.727  49.748  49.827  1.00  0.00     0.323 C 
HETATM    5  O   UNL     1      21.990  50.830  50.348  1.00  0.00    -0.247 OA
HETATM    6  N   UNL     1      20.455  49.273  49.928  1.00  0.00    -0.330 N 
HETATM    7  C   UNL     1      19.909  48.246  49.083  1.00  0.00     0.161 C 
HETATM    8  C   UNL     1      20.996  47.323  48.632  1.00  0.00     0.059 C 
HETATM    9  H   UNL     1      19.823  49.919  50.380  1.00  0.00     0.165 HD
ENDROOT
BRANCH   8  10
HETATM   10  C   UNL     1      20.554  45.962  48.231  1.00  0.00     0.256 C 
HETATM   11  N   UNL     1      20.600  45.768  46.871  1.00  0.00    -0.321 N 
HETATM   12  H   UNL     1      20.914  46.530  46.276  1.00  0.00     0.169 HD
HETATM   13  O   UNL     1      20.203  45.163  49.091  1.00  0.00    -0.267 OA
BRANCH  11  14
HETATM   14  C   UNL     1      20.197  44.626  46.141  1.00  0.00     0.068 A 
HETATM   15  C   UNL     1      19.016  44.744  45.376  1.00  0.00     0.095 A 
HETATM   16  C   UNL     1      18.552  43.648  44.643  1.00  0.00     0.039 A 
HETATM   17  C   UNL     1      19.258  42.444  44.662  1.00  0.00     0.003 A 
HETATM   18  C   UNL     1      20.426  42.329  45.412  1.00  0.00     0.002 A 
HETATM   19  C   UNL     1      20.894  43.416  46.152  1.00  0.00     0.032 A 
BRANCH  15  20
HETATM   20  O   UNL     1      18.402  45.975  45.429  1.00  0.00    -0.354 OA
HETATM   21  C   UNL     1      17.231  46.147  44.640  1.00  0.00     0.210 C 
ENDBRANCH  15  20
ENDBRANCH  11  14
ENDBRANCH   8  10
BRANCH   7  22
HETATM   22  C   UNL     1      19.119  48.895  47.942  1.00  0.00    -0.016 A 
HETATM   23  C   UNL     1      17.755  48.587  47.700  1.00  0.00     0.056 A 
HETATM   24  C   UNL     1      17.084  49.219  46.634  1.00  0.00     0.017 A 
HETATM   25  C   UNL     1      17.731  50.154  45.828  1.00  0.00     0.001 A 
HETATM   26  C   UNL     1      19.058  50.478  46.077  1.00  0.00     0.001 A 
HETATM   27  C   UNL     1      19.742  49.861  47.122  1.00  0.00     0.010 A 
BRANCH  23  28
HETATM   28  C   UNL     1      16.988  47.609  48.566  1.00  0.00     0.418 C 
HETATM   29  F   UNL     1      17.272  46.314  48.255  1.00  0.00    -0.166 F 
HETATM   30  F   UNL     1      17.245  47.734  49.898  1.00  0.00    -0.166 F 
HETATM   31  F   UNL     1      15.641  47.745  48.431  1.00  0.00    -0.166 F 
ENDBRANCH  23  28
ENDBRANCH   7  22
BRANCH   3  32
HETATM   32  C   UNL     1      24.017  49.449  49.062  1.00  0.00     0.160 C 
BRANCH  32  33
HETATM   33  C   UNL     1      24.244  50.292  47.798  1.00  0.00     0.187 C 
BRANCH  33  34
HETATM   34  O   UNL     1      25.594  50.183  47.343  1.00  0.00    -0.394 OA
HETATM   35  C   UNL     1      26.472  49.787  48.388  1.00  0.00     0.201 C 
ENDBRANCH  33  34
ENDBRANCH  32  33
ENDBRANCH   3  32
TORSDOF 8
ENDMDL
MODEL 9
REMARK VINA RESULT:      -6.6      8.640     12.118
REMARK  8 active torsions:
REMARK  status: ('A' for Active; 'I' for Inactive)
REMARK    1  A    between atoms: N_3  and  C_4 
REMARK    2  A    between atoms: C_4  and  C_5 
REMARK    3  A    between atoms: C_5  and  O_6 
REMARK    4  A    between atoms: C_11  and  C_12 
REMARK    5  A    between atoms: C_13  and  C_14 
REMARK    6  A    between atoms: C_22  and  C_23 
REMARK       I    between atoms: C_23  and  N_24 
REMARK    7  A    between atoms: N_24  and  C_25 
REMARK    8  A    between atoms: C_26  and  O_27 
ROOT
HETATM    1  C   UNL     1      18.692  47.247  45.012  1.00  0.00     0.069 C 
HETATM    2  C   UNL     1      19.282  47.265  46.401  1.00  0.00     0.026 C 
HETATM    3  N   UNL     1      19.783  46.068  46.940  1.00  0.00    -0.301 N 
HETATM    4  C   UNL     1      20.104  45.934  48.296  1.00  0.00     0.323 C 
HETATM    5  O   UNL     1      20.468  44.893  48.838  1.00  0.00    -0.247 OA
HETATM    6  N   UNL     1      19.937  47.043  49.068  1.00  0.00    -0.330 N 
HETATM    7  C   UNL     1      19.885  48.384  48.553  1.00  0.00     0.161 C 
HETATM    8  C   UNL     1      19.330  48.376  47.164  1.00  0.00     0.059 C 
HETATM    9  H   UNL     1      20.208  46.902  50.032  1.00  0.00     0.165 HD
ENDROOT
BRANCH   8  10
HETATM   10  C   UNL     1      18.719  49.654  46.711  1.00  0.00     0.256 C 
HETATM   11  N   UNL     1      17.386  49.747  47.029  1.00  0.00    -0.321 N 
HETATM   12  H   UNL     1      16.942  48.976  47.520  1.00  0.00     0.169 HD
HETATM   13  O   UNL     1      19.410  50.478  46.125  1.00  0.00    -0.267 OA
BRANCH  11  14
HETATM   14  C   UNL     1      16.484  50.785  46.702  1.00  0.00     0.068 A 
HETATM   15  C   UNL     1      16.125  51.669  47.743  1.00  0.00     0.095 A 
HETATM   16  C   UNL     1      15.225  52.708  47.493  1.00  0.00     0.039 A 
HETATM   17  C   UNL     1      14.688  52.876  46.215  1.00  0.00     0.003 A 
HETATM   18  C   UNL     1      15.046  52.008  45.186  1.00  0.00     0.002 A 
HETATM   19  C   UNL     1      15.940  50.964  45.428  1.00  0.00     0.032 A 
BRANCH  15  20
HETATM   20  O   UNL     1      16.714  51.412  48.960  1.00  0.00    -0.354 OA
HETATM   21  C   UNL     1      16.637  52.436  49.944  1.00  0.00     0.210 C 
ENDBRANCH  15  20
ENDBRANCH  11  14
ENDBRANCH   8  10
BRANCH   7  22
HETATM   22  C   UNL     1      21.269  49.029  48.676  1.00  0.00    -0.016 A 
HETATM   23  C   UNL     1      21.456  50.301  49.276  1.00  0.00     0.056 A 
HETATM   24  C   UNL     1      22.755  50.840  49.359  1.00  0.00     0.017 A 
HETATM   25  C   UNL     1      23.859  50.137  48.880  1.00  0.00     0.001 A 
HETATM   26  C   UNL     1      23.685  48.881  48.315  1.00  0.00     0.001 A 
HETATM   27  C   UNL     1      22.407  48.332  48.218  1.00  0.00     0.010 A 
BRANCH  23  28
HETATM   28  C   UNL     1      20.301  51.095  49.850  1.00  0.00     0.418 C 
HETATM   29  F   UNL     1      19.247  50.300  50.187  1.00  0.00    -0.166 F 
HETATM   30  F   UNL     1      20.616  51.787  50.980  1.00  0.00    -0.166 F 
HETATM   31  F   UNL     1      19.817  52.014  48.972  1.00  0.00    -0.166 F 
ENDBRANCH  23  28
ENDBRANCH   7  22
BRANCH   3  32
HETATM   32  C   UNL     1      19.977  44.868  46.113  1.00  0.00     0.160 C 
BRANCH  32  33
HETATM   33  C   UNL     1      18.804  43.879  46.184  1.00  0.00     0.187 C 
BRANCH  33  34
HETATM   34  O   UNL     1      18.172  43.739  44.910  1.00  0.00    -0.394 OA
HETATM   35  C   UNL     1      16.789  44.060  44.971  1.00  0.00     0.201 C 
ENDBRANCH  33  34
ENDBRANCH  32  33
ENDBRANCH   3  32
TORSDOF 8
ENDMDL
MODEL 10
REMARK VINA RESULT:      -6.5      8.630     12.381
REMARK  8 active torsions:
REMARK  status: ('A' for Active; 'I' for Inactive)
REMARK    1  A    between atoms: N_3  and  C_4 
REMARK    2  A    between atoms: C_4  and  C_5 
REMARK    3  A    between atoms: C_5  and  O_6 
REMARK    4  A    between atoms: C_11  and  C_12 
REMARK    5  A    between atoms: C_13  and  C_14 
REMARK    6  A    between atoms: C_22  and  C_23 
REMARK       I    between atoms: C_23  and  N_24 
REMARK    7  A    between atoms: N_24  and  C_25 
REMARK    8  A    between atoms: C_26  and  O_27 
ROOT
HETATM    1  C   UNL     1      22.007  46.996  48.104  1.00  0.00     0.069 C 
HETATM    2  C   UNL     1      20.922  48.022  48.324  1.00  0.00     0.026 C 
HETATM    3  N   UNL     1      21.273  49.278  48.846  1.00  0.00    -0.301 N 
HETATM    4  C   UNL     1      20.319  50.184  49.323  1.00  0.00     0.323 C 
HETATM    5  O   UNL     1      20.571  51.260  49.862  1.00  0.00    -0.247 OA
HETATM    6  N   UNL     1      19.017  49.799  49.223  1.00  0.00    -0.330 N 
HETATM    7  C   UNL     1      18.543  48.788  48.317  1.00  0.00     0.161 C 
HETATM    8  C   UNL     1      19.620  47.781  48.066  1.00  0.00     0.059 C 
HETATM    9  H   UNL     1      18.368  50.499  49.555  1.00  0.00     0.165 HD
ENDROOT
BRANCH   8  10
HETATM   10  C   UNL     1      19.154  46.442  47.621  1.00  0.00     0.256 C 
HETATM   11  N   UNL     1      19.002  46.358  46.258  1.00  0.00    -0.321 N 
HETATM   12  H   UNL     1      19.207  47.176  45.689  1.00  0.00     0.169 HD
HETATM   13  O   UNL     1      18.951  45.566  48.453  1.00  0.00    -0.267 OA
BRANCH  11  14
HETATM   14  C   UNL     1      18.520  45.266  45.501  1.00  0.00     0.068 A 
HETATM   15  C   UNL     1      19.483  44.492  44.817  1.00  0.00     0.095 A 
HETATM   16  C   UNL     1      19.074  43.407  44.036  1.00  0.00     0.039 A 
HETATM   17  C   UNL     1      17.719  43.085  43.940  1.00  0.00     0.003 A 
HETATM   18  C   UNL     1      16.770  43.845  44.620  1.00  0.00     0.002 A 
HETATM   19  C   UNL     1      17.168  44.934  45.397  1.00  0.00     0.032 A 
BRANCH  15  20
HETATM   20  O   UNL     1      20.788  44.897  44.982  1.00  0.00    -0.354 OA
HETATM   21  C   UNL     1      21.506  45.259  43.809  1.00  0.00     0.210 C 
ENDBRANCH  15  20
ENDBRANCH  11  14
ENDBRANCH   8  10
BRANCH   7  22
HETATM   22  C   UNL     1      17.997  49.456  47.052  1.00  0.00    -0.016 A 
HETATM   23  C   UNL     1      16.638  49.333  46.661  1.00  0.00     0.056 A 
HETATM   24  C   UNL     1      16.198  49.973  45.486  1.00  0.00     0.017 A 
HETATM   25  C   UNL     1      17.068  50.739  44.713  1.00  0.00     0.001 A 
HETATM   26  C   UNL     1      18.392  50.885  45.104  1.00  0.00     0.001 A 
HETATM   27  C   UNL     1      18.850  50.256  46.261  1.00  0.00     0.010 A 
BRANCH  23  28
HETATM   28  C   UNL     1      15.637  48.546  47.481  1.00  0.00     0.418 C 
HETATM   29  F   UNL     1      15.342  49.159  48.660  1.00  0.00    -0.166 F 
HETATM   30  F   UNL     1      14.442  48.354  46.856  1.00  0.00    -0.166 F 
HETATM   31  F   UNL     1      16.092  47.305  47.803  1.00  0.00    -0.166 F 
ENDBRANCH  23  28
ENDBRANCH   7  22
BRANCH   3  32
HETATM   32  C   UNL     1      22.676  49.710  48.948  1.00  0.00     0.160 C 
BRANCH  32  33
HETATM   33  C   UNL     1      23.151  50.536  47.744  1.00  0.00     0.187 C 
BRANCH  33  34
HETATM   34  O   UNL     1      24.455  50.130  47.324  1.00  0.00    -0.394 OA
HETATM   35  C   UNL     1      25.272  49.760  48.427  1.00  0.00     0.201 C 
ENDBRANCH  33  34
ENDBRANCH  32  33
ENDBRANCH   3  32
TORSDOF 8
ENDMDL
