MODEL 1
REMARK VINA RESULT:     -10.2      0.000      0.000
REMARK  6 active torsions:
REMARK  status: ('A' for Active; 'I' for Inactive)
REMARK    1  A    between atoms: C_2  and  C_3 
REMARK    2  A    between atoms: N_6  and  C_8 
REMARK    3  A    between atoms: C_8  and  C_9 
REMARK    4  A    between atoms: C_12  and  C_13 
REMARK    5  A    between atoms: C_13  and  O_14 
REMARK    6  A    between atoms: N_24  and  C_25 
ROOT
HETATM    1  C   UNL     1      24.156  43.963  48.144  1.00  0.00     0.049 C 
HETATM    2  C   UNL     1      23.529  44.826  49.240  1.00  0.00     0.116 A 
HETATM    3  N   UNL     1      24.058  46.167  49.191  1.00  0.00    -0.324 N 
HETATM    4  C   UNL     1      23.106  47.087  48.797  1.00  0.00     0.326 A 
HETATM    5  O   UNL     1      23.394  48.255  48.611  1.00  0.00    -0.247 OA
HETATM    6  N   UNL     1      21.902  46.466  48.698  1.00  0.00    -0.263 N 
HETATM    7  C   UNL     1      22.062  45.115  48.858  1.00  0.00     0.256 A 
HETATM    8  O   UNL     1      21.195  44.260  48.761  1.00  0.00    -0.270 OA
HETATM    9  H   UNL     1      25.013  46.406  48.946  1.00  0.00     0.165 HD
ENDROOT
BRANCH   2  10
HETATM   10  C   UNL     1      23.610  44.180  50.660  1.00  0.00     0.026 C 
HETATM   11  C   UNL     1      24.365  45.010  51.718  1.00  0.00     0.035 C 
HETATM   12  C   UNL     1      25.879  44.977  51.579  1.00  0.00     0.235 C 
HETATM   13  N   UNL     1      26.379  43.554  51.579  1.00  0.00    -0.067 N 
HETATM   14  H   UNL     1      26.188  43.175  52.516  1.00  0.00     0.280 HD
HETATM   15  C   UNL     1      25.692  42.667  50.570  1.00  0.00     0.235 C 
HETATM   16  C   UNL     1      24.177  42.749  50.695  1.00  0.00     0.035 C 
BRANCH  13  17
HETATM   17  C   UNL     1      27.891  43.472  51.393  1.00  0.00     0.273 C 
BRANCH  17  18
HETATM   18  C   UNL     1      28.682  43.639  52.662  1.00  0.00    -0.033 A 
HETATM   19  C   UNL     1      29.847  42.894  52.889  1.00  0.00     0.010 A 
HETATM   20  C   UNL     1      30.536  43.015  54.101  1.00  0.00     0.018 A 
HETATM   21  C   UNL     1      30.070  43.875  55.104  1.00  0.00     0.039 A 
HETATM   22  C   UNL     1      28.915  44.631  54.874  1.00  0.00     0.018 A 
HETATM   23  C   UNL     1      28.229  44.516  53.663  1.00  0.00     0.010 A 
BRANCH  21  24
HETATM   24  C   UNL     1      30.826  43.940  56.385  1.00  0.00     0.292 C 
HETATM   25  O   UNL     1      31.386  42.975  56.877  1.00  0.00    -0.259 OA
BRANCH  24  26
HETATM   26  O   UNL     1      30.766  45.188  56.909  1.00  0.00    -0.323 OA
HETATM   27  C   UNL     1      30.624  45.216  58.332  1.00  0.00     0.213 C 
ENDBRANCH  24  26
ENDBRANCH  21  24
ENDBRANCH  17  18
ENDBRANCH  13  17
ENDBRANCH   2  10
BRANCH   6  28
HETATM   28  C   UNL     1      20.636  47.087  48.289  1.00  0.00     0.106 C 
HETATM   29  C   UNL     1      19.798  47.601  49.485  1.00  0.00     0.065 C 
HETATM   30  C   UNL     1      19.841  49.085  49.329  1.00  0.00    -0.050 A 
HETATM   31  C   UNL     1      20.425  49.459  48.118  1.00  0.00    -0.050 A 
HETATM   32  C   UNL     1      19.342  50.038  50.204  1.00  0.00     0.007 A 
HETATM   33  C   UNL     1      20.843  48.270  47.312  1.00  0.00     0.065 C 
HETATM   34  C   UNL     1      20.525  50.792  47.756  1.00  0.00     0.007 A 
HETATM   35  C   UNL     1      20.032  51.760  48.633  1.00  0.00     0.001 A 
HETATM   36  C   UNL     1      19.445  51.384  49.851  1.00  0.00     0.001 A 
ENDBRANCH   6  28
TORSDOF 6
ENDMDL
MODEL 2
REMARK VINA RESULT:      -9.2     11.980     14.982
REMARK  6 active torsions:
REMARK  status: ('A' for Active; 'I' for Inactive)
REMARK    1  A    between atoms: C_2  and  C_3 
REMARK    2  A    between atoms: N_6  and  C_8 
REMARK    3  A    between atoms: C_8  and  C_9 
REMARK    4  A    between atoms: C_12  and  C_13 
REMARK    5  A    between atoms: C_13  and  O_14 
REMARK    6  A    between atoms: N_24  and  C_25 
ROOT
HETATM    1  C   UNL     1      31.099  51.522  37.802  1.00  0.00     0.049 C 
HETATM    2  C   UNL     1      30.339  51.039  39.039  1.00  0.00     0.116 A 
HETATM    3  N   UNL     1      30.020  49.637  38.919  1.00  0.00    -0.324 N 
HETATM    4  C   UNL     1      30.721  48.865  39.824  1.00  0.00     0.326 A 
HETATM    5  O   UNL     1      30.649  47.651  39.809  1.00  0.00    -0.247 OA
HETATM    6  N   UNL     1      31.416  49.681  40.659  1.00  0.00    -0.263 N 
HETATM    7  C   UNL     1      31.322  50.977  40.226  1.00  0.00     0.256 A 
HETATM    8  O   UNL     1      31.882  51.951  40.708  1.00  0.00    -0.270 OA
HETATM    9  H   UNL     1      29.778  49.169  38.052  1.00  0.00     0.165 HD
ENDROOT
BRANCH   2  10
HETATM   10  C   UNL     1      29.103  51.927  39.393  1.00  0.00     0.026 C 
HETATM   11  C   UNL     1      28.434  51.613  40.746  1.00  0.00     0.035 C 
HETATM   12  C   UNL     1      27.575  50.358  40.745  1.00  0.00     0.235 C 
HETATM   13  N   UNL     1      26.535  50.430  39.654  1.00  0.00    -0.067 N 
HETATM   14  H   UNL     1      25.894  51.193  39.908  1.00  0.00     0.280 HD
HETATM   15  C   UNL     1      27.105  50.734  38.290  1.00  0.00     0.235 C 
HETATM   16  C   UNL     1      27.999  51.967  38.321  1.00  0.00     0.035 C 
BRANCH  13  17
HETATM   17  C   UNL     1      25.681  49.168  39.585  1.00  0.00     0.273 C 
BRANCH  17  18
HETATM   18  C   UNL     1      26.467  47.896  39.414  1.00  0.00    -0.033 A 
HETATM   19  C   UNL     1      26.662  47.019  40.490  1.00  0.00     0.010 A 
HETATM   20  C   UNL     1      27.448  45.873  40.330  1.00  0.00     0.018 A 
HETATM   21  C   UNL     1      28.054  45.588  39.099  1.00  0.00     0.039 A 
HETATM   22  C   UNL     1      27.847  46.454  38.020  1.00  0.00     0.018 A 
HETATM   23  C   UNL     1      27.059  47.596  38.175  1.00  0.00     0.010 A 
BRANCH  21  24
HETATM   24  C   UNL     1      28.904  44.370  38.996  1.00  0.00     0.292 C 
HETATM   25  O   UNL     1      29.656  44.160  38.059  1.00  0.00    -0.259 OA
BRANCH  24  26
HETATM   26  O   UNL     1      28.692  43.551  40.054  1.00  0.00    -0.323 OA
HETATM   27  C   UNL     1      28.365  42.207  39.693  1.00  0.00     0.213 C 
ENDBRANCH  24  26
ENDBRANCH  21  24
ENDBRANCH  17  18
ENDBRANCH  13  17
ENDBRANCH   2  10
BRANCH   6  28
HETATM   28  C   UNL     1      32.300  49.256  41.752  1.00  0.00     0.106 C 
HETATM   29  C   UNL     1      33.802  49.353  41.390  1.00  0.00     0.065 C 
HETATM   30  C   UNL     1      34.301  50.453  42.268  1.00  0.00    -0.050 A 
HETATM   31  C   UNL     1      33.335  50.852  43.193  1.00  0.00    -0.050 A 
HETATM   32  C   UNL     1      35.563  51.027  42.262  1.00  0.00     0.007 A 
HETATM   33  C   UNL     1      32.071  50.066  43.051  1.00  0.00     0.065 C 
HETATM   34  C   UNL     1      33.609  51.834  44.131  1.00  0.00     0.007 A 
HETATM   35  C   UNL     1      34.875  52.423  44.129  1.00  0.00     0.001 A 
HETATM   36  C   UNL     1      35.846  52.022  43.200  1.00  0.00     0.001 A 
ENDBRANCH   6  28
TORSDOF 6
ENDMDL
MODEL 3
REMARK VINA RESULT:      -9.2      1.385      2.108
REMARK  6 active torsions:
REMARK  status: ('A' for Active; 'I' for Inactive)
REMARK    1  A    between atoms: C_2  and  C_3 
REMARK    2  A    between atoms: N_6  and  C_8 
REMARK    3  A    between atoms: C_8  and  C_9 
REMARK    4  A    between atoms: C_12  and  C_13 
REMARK    5  A    between atoms: C_13  and  O_14 
REMARK    6  A    between atoms: N_24  and  C_25 
ROOT
HETATM    1  C   UNL     1      22.219  43.698  46.227  1.00  0.00     0.049 C 
HETATM    2  C   UNL     1      22.074  44.359  47.598  1.00  0.00     0.116 A 
HETATM    3  N   UNL     1      22.816  45.596  47.644  1.00  0.00    -0.324 N 
HETATM    4  C   UNL     1      21.986  46.696  47.725  1.00  0.00     0.326 A 
HETATM    5  O   UNL     1      22.430  47.828  47.682  1.00  0.00    -0.247 OA
HETATM    6  N   UNL     1      20.703  46.275  47.873  1.00  0.00    -0.263 N 
HETATM    7  C   UNL     1      20.641  44.915  47.727  1.00  0.00     0.256 A 
HETATM    8  O   UNL     1      19.633  44.224  47.735  1.00  0.00    -0.270 OA
HETATM    9  H   UNL     1      23.701  45.760  47.176  1.00  0.00     0.165 HD
ENDROOT
BRANCH   2  10
HETATM   10  C   UNL     1      22.400  43.398  48.786  1.00  0.00     0.026 C 
HETATM   11  C   UNL     1      22.697  44.092  50.131  1.00  0.00     0.035 C 
HETATM   12  C   UNL     1      24.077  44.725  50.220  1.00  0.00     0.235 C 
HETATM   13  N   UNL     1      25.147  43.707  49.912  1.00  0.00    -0.067 N 
HETATM   14  H   UNL     1      25.122  43.014  50.671  1.00  0.00     0.280 HD
HETATM   15  C   UNL     1      24.935  42.978  48.608  1.00  0.00     0.235 C 
HETATM   16  C   UNL     1      23.533  42.390  48.519  1.00  0.00     0.035 C 
BRANCH  13  17
HETATM   17  C   UNL     1      26.547  44.312  49.941  1.00  0.00     0.273 C 
BRANCH  17  18
HETATM   18  C   UNL     1      27.213  44.267  51.291  1.00  0.00    -0.033 A 
HETATM   19  C   UNL     1      26.741  45.047  52.354  1.00  0.00     0.010 A 
HETATM   20  C   UNL     1      27.410  45.041  53.584  1.00  0.00     0.018 A 
HETATM   21  C   UNL     1      28.561  44.261  53.766  1.00  0.00     0.039 A 
HETATM   22  C   UNL     1      29.025  43.470  52.710  1.00  0.00     0.018 A 
HETATM   23  C   UNL     1      28.356  43.471  51.483  1.00  0.00     0.010 A 
BRANCH  21  24
HETATM   24  C   UNL     1      29.249  44.318  55.085  1.00  0.00     0.292 C 
HETATM   25  O   UNL     1      29.160  45.270  55.843  1.00  0.00    -0.259 OA
BRANCH  24  26
HETATM   26  O   UNL     1      29.986  43.198  55.285  1.00  0.00    -0.323 OA
HETATM   27  C   UNL     1      31.098  43.384  56.164  1.00  0.00     0.213 C 
ENDBRANCH  24  26
ENDBRANCH  21  24
ENDBRANCH  17  18
ENDBRANCH  13  17
ENDBRANCH   2  10
BRANCH   6  28
HETATM   28  C   UNL     1      19.514  47.131  47.980  1.00  0.00     0.106 C 
HETATM   29  C   UNL     1      19.297  47.695  49.405  1.00  0.00     0.065 C 
HETATM   30  C   UNL     1      19.553  49.157  49.244  1.00  0.00    -0.050 A 
HETATM   31  C   UNL     1      19.697  49.510  47.901  1.00  0.00    -0.050 A 
HETATM   32  C   UNL     1      19.605  50.117  50.243  1.00  0.00     0.007 A 
HETATM   33  C   UNL     1      19.555  48.327  46.997  1.00  0.00     0.065 C 
HETATM   34  C   UNL     1      19.900  50.829  47.528  1.00  0.00     0.007 A 
HETATM   35  C   UNL     1      19.961  51.802  48.527  1.00  0.00     0.001 A 
HETATM   36  C   UNL     1      19.815  51.448  49.877  1.00  0.00     0.001 A 
ENDBRANCH   6  28
TORSDOF 6
ENDMDL
MODEL 4
REMARK VINA RESULT:      -9.1      4.718     12.533
REMARK  6 active torsions:
REMARK  status: ('A' for Active; 'I' for Inactive)
REMARK    1  A    between atoms: C_2  and  C_3 
REMARK    2  A    between atoms: N_6  and  C_8 
REMARK    3  A    between atoms: C_8  and  C_9 
REMARK    4  A    between atoms: C_12  and  C_13 
REMARK    5  A    between atoms: C_13  and  O_14 
REMARK    6  A    between atoms: N_24  and  C_25 
ROOT
HETATM    1  C   UNL     1      21.453  50.093  47.549  1.00  0.00     0.049 C 
HETATM    2  C   UNL     1      21.426  49.154  48.756  1.00  0.00     0.116 A 
HETATM    3  N   UNL     1      21.069  47.817  48.347  1.00  0.00    -0.324 N 
HETATM    4  C   UNL     1      22.123  46.935  48.479  1.00  0.00     0.326 A 
HETATM    5  O   UNL     1      22.034  45.783  48.097  1.00  0.00    -0.247 OA
HETATM    6  N   UNL     1      23.159  47.568  49.087  1.00  0.00    -0.263 N 
HETATM    7  C   UNL     1      22.877  48.902  49.215  1.00  0.00     0.256 A 
HETATM    8  O   UNL     1      23.619  49.767  49.657  1.00  0.00    -0.270 OA
HETATM    9  H   UNL     1      20.410  47.592  47.608  1.00  0.00     0.165 HD
ENDROOT
BRANCH   2  10
HETATM   10  C   UNL     1      20.560  49.692  49.940  1.00  0.00     0.026 C 
HETATM   11  C   UNL     1      19.146  49.085  50.048  1.00  0.00     0.035 C 
HETATM   12  C   UNL     1      18.152  49.622  49.032  1.00  0.00     0.235 C 
HETATM   13  N   UNL     1      18.080  51.128  49.107  1.00  0.00    -0.067 N 
HETATM   14  H   UNL     1      17.674  51.357  50.024  1.00  0.00     0.280 HD
HETATM   15  C   UNL     1      19.423  51.807  49.008  1.00  0.00     0.235 C 
HETATM   16  C   UNL     1      20.418  51.223  50.003  1.00  0.00     0.035 C 
BRANCH  13  17
HETATM   17  C   UNL     1      17.128  51.714  48.069  1.00  0.00     0.273 C 
BRANCH  17  18
HETATM   18  C   UNL     1      15.928  52.410  48.651  1.00  0.00    -0.033 A 
HETATM   19  C   UNL     1      15.096  53.204  47.850  1.00  0.00     0.010 A 
HETATM   20  C   UNL     1      14.021  53.895  48.420  1.00  0.00     0.018 A 
HETATM   21  C   UNL     1      13.764  53.808  49.795  1.00  0.00     0.039 A 
HETATM   22  C   UNL     1      14.584  53.004  50.593  1.00  0.00     0.018 A 
HETATM   23  C   UNL     1      15.655  52.309  50.027  1.00  0.00     0.010 A 
BRANCH  21  24
HETATM   24  C   UNL     1      12.625  54.589  50.351  1.00  0.00     0.292 C 
HETATM   25  O   UNL     1      11.539  54.095  50.604  1.00  0.00    -0.259 OA
BRANCH  24  26
HETATM   26  O   UNL     1      12.967  55.893  50.494  1.00  0.00    -0.323 OA
HETATM   27  C   UNL     1      11.940  56.810  50.108  1.00  0.00     0.213 C 
ENDBRANCH  24  26
ENDBRANCH  21  24
ENDBRANCH  17  18
ENDBRANCH  13  17
ENDBRANCH   2  10
BRANCH   6  28
HETATM   28  C   UNL     1      24.471  46.986  49.396  1.00  0.00     0.106 C 
HETATM   29  C   UNL     1      25.256  47.788  50.464  1.00  0.00     0.065 C 
HETATM   30  C   UNL     1      25.280  46.868  51.640  1.00  0.00    -0.050 A 
HETATM   31  C   UNL     1      24.786  45.604  51.317  1.00  0.00    -0.050 A 
HETATM   32  C   UNL     1      25.762  47.142  52.911  1.00  0.00     0.007 A 
HETATM   33  C   UNL     1      24.370  45.520  49.883  1.00  0.00     0.065 C 
HETATM   34  C   UNL     1      24.760  44.587  52.257  1.00  0.00     0.007 A 
HETATM   35  C   UNL     1      25.236  44.855  53.542  1.00  0.00     0.001 A 
HETATM   36  C   UNL     1      25.735  46.125  53.867  1.00  0.00     0.001 A 
ENDBRANCH   6  28
TORSDOF 6
ENDMDL
MODEL 5
REMARK VINA RESULT:      -9.1     13.720     14.723
REMARK  6 active torsions:
REMARK  status: ('A' for Active; 'I' for Inactive)
REMARK    1  A    between atoms: C_2  and  C_3 
REMARK    2  A    between atoms: N_6  and  C_8 
REMARK    3  A    between atoms: C_8  and  C_9 
REMARK    4  A    between atoms: C_12  and  C_13 
REMARK    5  A    between atoms: C_13  and  O_14 
REMARK    6  A    between atoms: N_24  and  C_25 
ROOT
HETATM    1  C   UNL     1      33.171  51.250  39.477  1.00  0.00     0.049 C 
HETATM    2  C   UNL     1      32.279  51.438  40.705  1.00  0.00     0.116 A 
HETATM    3  N   UNL     1      32.221  52.830  41.079  1.00  0.00    -0.324 N 
HETATM    4  C   UNL     1      30.969  53.373  40.867  1.00  0.00     0.326 A 
HETATM    5  O   UNL     1      30.756  54.558  41.040  1.00  0.00    -0.247 OA
HETATM    6  N   UNL     1      30.115  52.386  40.488  1.00  0.00    -0.263 N 
HETATM    7  C   UNL     1      30.810  51.224  40.283  1.00  0.00     0.256 A 
HETATM    8  O   UNL     1      30.359  50.165  39.873  1.00  0.00    -0.270 OA
HETATM    9  H   UNL     1      32.992  53.485  41.000  1.00  0.00     0.165 HD
ENDROOT
BRANCH   2  10
HETATM   10  C   UNL     1      32.653  50.494  41.893  1.00  0.00     0.026 C 
HETATM   11  C   UNL     1      33.168  51.204  43.160  1.00  0.00     0.035 C 
HETATM   12  C   UNL     1      34.601  51.704  43.062  1.00  0.00     0.235 C 
HETATM   13  N   UNL     1      35.530  50.576  42.682  1.00  0.00    -0.067 N 
HETATM   14  H   UNL     1      35.531  49.917  43.472  1.00  0.00     0.280 HD
HETATM   15  C   UNL     1      35.100  49.824  41.447  1.00  0.00     0.235 C 
HETATM   16  C   UNL     1      33.649  49.371  41.546  1.00  0.00     0.035 C 
BRANCH  13  17
HETATM   17  C   UNL     1      36.973  51.044  42.524  1.00  0.00     0.273 C 
BRANCH  17  18
HETATM   18  C   UNL     1      37.268  52.373  43.167  1.00  0.00    -0.033 A 
HETATM   19  C   UNL     1      37.396  53.535  42.395  1.00  0.00     0.010 A 
HETATM   20  C   UNL     1      37.733  54.750  43.002  1.00  0.00     0.018 A 
HETATM   21  C   UNL     1      37.951  54.822  44.384  1.00  0.00     0.039 A 
HETATM   22  C   UNL     1      37.809  53.665  45.159  1.00  0.00     0.018 A 
HETATM   23  C   UNL     1      37.468  52.452  44.556  1.00  0.00     0.010 A 
BRANCH  21  24
HETATM   24  C   UNL     1      38.337  56.135  44.971  1.00  0.00     0.292 C 
HETATM   25  O   UNL     1      38.717  56.264  46.122  1.00  0.00    -0.259 OA
BRANCH  24  26
HETATM   26  O   UNL     1      38.173  57.127  44.063  1.00  0.00    -0.323 OA
HETATM   27  C   UNL     1      38.046  58.429  44.641  1.00  0.00     0.213 C 
ENDBRANCH  24  26
ENDBRANCH  21  24
ENDBRANCH  17  18
ENDBRANCH  13  17
ENDBRANCH   2  10
BRANCH   6  28
HETATM   28  C   UNL     1      28.695  52.548  40.152  1.00  0.00     0.106 C 
HETATM   29  C   UNL     1      28.380  52.220  38.672  1.00  0.00     0.065 C 
HETATM   30  C   UNL     1      27.561  50.974  38.759  1.00  0.00    -0.050 A 
HETATM   31  C   UNL     1      27.223  50.671  40.078  1.00  0.00    -0.050 A 
HETATM   32  C   UNL     1      27.110  50.189  37.709  1.00  0.00     0.007 A 
HETATM   33  C   UNL     1      27.772  51.677  41.039  1.00  0.00     0.065 C 
HETATM   34  C   UNL     1      26.429  49.575  40.377  1.00  0.00     0.007 A 
HETATM   35  C   UNL     1      25.976  48.775  39.327  1.00  0.00     0.001 A 
HETATM   36  C   UNL     1      26.315  49.080  38.000  1.00  0.00     0.001 A 
ENDBRANCH   6  28
TORSDOF 6
ENDMDL
MODEL 6
REMARK VINA RESULT:      -8.9     18.832     21.201
REMARK  6 active torsions:
REMARK  status: ('A' for Active; 'I' for Inactive)
REMARK    1  A    between atoms: C_2  and  C_3 
REMARK    2  A    between atoms: N_6  and  C_8 
REMARK    3  A    between atoms: C_8  and  C_9 
REMARK    4  A    between atoms: C_12  and  C_13 
REMARK    5  A    between atoms: C_13  and  O_14 
REMARK    6  A    between atoms: N_24  and  C_25 
ROOT
HETATM    1  C   UNL     1      38.714  43.775  62.825  1.00  0.00     0.049 C 
HETATM    2  C   UNL     1      38.439  44.255  64.251  1.00  0.00     0.116 A 
HETATM    3  N   UNL     1      39.534  45.062  64.731  1.00  0.00    -0.324 N 
HETATM    4  C   UNL     1      39.174  46.385  64.889  1.00  0.00     0.326 A 
HETATM    5  O   UNL     1      39.992  47.231  65.200  1.00  0.00    -0.247 OA
HETATM    6  N   UNL     1      37.840  46.512  64.667  1.00  0.00    -0.263 N 
HETATM    7  C   UNL     1      37.332  45.328  64.203  1.00  0.00     0.256 A 
HETATM    8  O   UNL     1      36.183  45.117  63.843  1.00  0.00    -0.270 OA
HETATM    9  H   UNL     1      40.512  44.907  64.508  1.00  0.00     0.165 HD
ENDROOT
BRANCH   2  10
HETATM   10  C   UNL     1      38.045  43.101  65.227  1.00  0.00     0.026 C 
HETATM   11  C   UNL     1      39.129  42.709  66.252  1.00  0.00     0.035 C 
HETATM   12  C   UNL     1      40.266  41.880  65.677  1.00  0.00     0.235 C 
HETATM   13  N   UNL     1      39.728  40.648  64.990  1.00  0.00    -0.067 N 
HETATM   14  H   UNL     1      39.313  40.059  65.723  1.00  0.00     0.280 HD
HETATM   15  C   UNL     1      38.660  40.941  63.966  1.00  0.00     0.235 C 
HETATM   16  C   UNL     1      37.552  41.810  64.548  1.00  0.00     0.035 C 
BRANCH  13  17
HETATM   17  C   UNL     1      40.834  39.811  64.355  1.00  0.00     0.273 C 
BRANCH  17  18
HETATM   18  C   UNL     1      40.924  38.403  64.878  1.00  0.00    -0.033 A 
HETATM   19  C   UNL     1      40.022  37.934  65.843  1.00  0.00     0.010 A 
HETATM   20  C   UNL     1      40.159  36.643  66.366  1.00  0.00     0.018 A 
HETATM   21  C   UNL     1      41.198  35.805  65.937  1.00  0.00     0.039 A 
HETATM   22  C   UNL     1      42.090  36.266  64.963  1.00  0.00     0.018 A 
HETATM   23  C   UNL     1      41.953  37.553  64.437  1.00  0.00     0.010 A 
BRANCH  21  24
HETATM   24  C   UNL     1      41.312  34.453  66.550  1.00  0.00     0.292 C 
HETATM   25  O   UNL     1      41.825  34.257  67.639  1.00  0.00    -0.259 OA
BRANCH  24  26
HETATM   26  O   UNL     1      40.803  33.510  65.721  1.00  0.00    -0.323 OA
HETATM   27  C   UNL     1      41.269  32.186  65.990  1.00  0.00     0.213 C 
ENDBRANCH  24  26
ENDBRANCH  21  24
ENDBRANCH  17  18
ENDBRANCH  13  17
ENDBRANCH   2  10
BRANCH   6  28
HETATM   28  C   UNL     1      37.066  47.759  64.719  1.00  0.00     0.106 C 
HETATM   29  C   UNL     1      36.343  47.971  66.071  1.00  0.00     0.065 C 
HETATM   30  C   UNL     1      37.058  49.137  66.669  1.00  0.00    -0.050 A 
HETATM   31  C   UNL     1      37.947  49.716  65.763  1.00  0.00    -0.050 A 
HETATM   32  C   UNL     1      36.884  49.671  67.937  1.00  0.00     0.007 A 
HETATM   33  C   UNL     1      37.936  49.010  64.445  1.00  0.00     0.065 C 
HETATM   34  C   UNL     1      38.683  50.839  66.105  1.00  0.00     0.007 A 
HETATM   35  C   UNL     1      38.519  51.380  67.381  1.00  0.00     0.001 A 
HETATM   36  C   UNL     1      37.625  50.799  68.292  1.00  0.00     0.001 A 
ENDBRANCH   6  28
TORSDOF 6
ENDMDL
MODEL 7
REMARK VINA RESULT:      -8.8     18.754     21.853
REMARK  6 active torsions:
REMARK  status: ('A' for Active; 'I' for Inactive)
REMARK    1  A    between atoms: C_2  and  C_3 
REMARK    2  A    between atoms: N_6  and  C_8 
REMARK    3  A    between atoms: C_8  and  C_9 
REMARK    4  A    between atoms: C_12  and  C_13 
REMARK    5  A    between atoms: C_13  and  O_14 
REMARK    6  A    between atoms: N_24  and  C_25 
ROOT
HETATM    1  C   UNL     1      39.268  46.912  66.631  1.00  0.00     0.049 C 
HETATM    2  C   UNL     1      38.906  46.700  65.160  1.00  0.00     0.116 A 
HETATM    3  N   UNL     1      39.976  46.025  64.468  1.00  0.00    -0.324 N 
HETATM    4  C   UNL     1      39.623  44.746  64.087  1.00  0.00     0.326 A 
HETATM    5  O   UNL     1      40.429  43.994  63.572  1.00  0.00    -0.247 OA
HETATM    6  N   UNL     1      38.308  44.547  64.365  1.00  0.00    -0.263 N 
HETATM    7  C   UNL     1      37.817  45.610  65.074  1.00  0.00     0.256 A 
HETATM    8  O   UNL     1      36.693  45.722  65.540  1.00  0.00    -0.270 OA
HETATM    9  H   UNL     1      40.965  46.160  64.655  1.00  0.00     0.165 HD
ENDROOT
BRANCH   2  10
HETATM   10  C   UNL     1      38.433  48.007  64.445  1.00  0.00     0.026 C 
HETATM   11  C   UNL     1      39.444  49.171  64.468  1.00  0.00     0.035 C 
HETATM   12  C   UNL     1      39.539  49.895  65.801  1.00  0.00     0.235 C 
HETATM   13  N   UNL     1      38.178  50.378  66.239  1.00  0.00    -0.067 N 
HETATM   14  H   UNL     1      37.891  51.099  65.564  1.00  0.00     0.280 HD
HETATM   15  C   UNL     1      37.123  49.299  66.247  1.00  0.00     0.235 C 
HETATM   16  C   UNL     1      37.075  48.556  64.918  1.00  0.00     0.035 C 
BRANCH  13  17
HETATM   17  C   UNL     1      38.219  51.068  67.598  1.00  0.00     0.273 C 
BRANCH  17  18
HETATM   18  C   UNL     1      37.674  52.472  67.598  1.00  0.00    -0.033 A 
HETATM   19  C   UNL     1      37.843  53.310  66.488  1.00  0.00     0.010 A 
HETATM   20  C   UNL     1      37.386  54.632  66.528  1.00  0.00     0.018 A 
HETATM   21  C   UNL     1      36.759  55.136  67.676  1.00  0.00     0.039 A 
HETATM   22  C   UNL     1      36.576  54.296  68.779  1.00  0.00     0.018 A 
HETATM   23  C   UNL     1      37.027  52.975  68.740  1.00  0.00     0.010 A 
BRANCH  21  24
HETATM   24  C   UNL     1      36.321  56.559  67.672  1.00  0.00     0.292 C 
HETATM   25  O   UNL     1      36.558  57.331  68.586  1.00  0.00    -0.259 OA
BRANCH  24  26
HETATM   26  O   UNL     1      35.616  56.837  66.549  1.00  0.00    -0.323 OA
HETATM   27  C   UNL     1      34.295  57.324  66.796  1.00  0.00     0.213 C 
ENDBRANCH  24  26
ENDBRANCH  21  24
ENDBRANCH  17  18
ENDBRANCH  13  17
ENDBRANCH   2  10
BRANCH   6  28
HETATM   28  C   UNL     1      37.547  43.313  64.128  1.00  0.00     0.106 C 
HETATM   29  C   UNL     1      37.850  42.666  62.754  1.00  0.00     0.065 C 
HETATM   30  C   UNL     1      38.562  41.404  63.113  1.00  0.00    -0.050 A 
HETATM   31  C   UNL     1      38.533  41.169  64.489  1.00  0.00    -0.050 A 
HETATM   32  C   UNL     1      39.160  40.500  62.248  1.00  0.00     0.007 A 
HETATM   33  C   UNL     1      37.795  42.245  65.221  1.00  0.00     0.065 C 
HETATM   34  C   UNL     1      39.101  40.027  65.030  1.00  0.00     0.007 A 
HETATM   35  C   UNL     1      39.711  39.114  64.167  1.00  0.00     0.001 A 
HETATM   36  C   UNL     1      39.740  39.350  62.784  1.00  0.00     0.001 A 
ENDBRANCH   6  28
TORSDOF 6
ENDMDL
MODEL 8
REMARK VINA RESULT:      -8.8      3.462      5.753
REMARK  6 active torsions:
REMARK  status: ('A' for Active; 'I' for Inactive)
REMARK    1  A    between atoms: C_2  and  C_3 
REMARK    2  A    between atoms: N_6  and  C_8 
REMARK    3  A    between atoms: C_8  and  C_9 
REMARK    4  A    between atoms: C_12  and  C_13 
REMARK    5  A    between atoms: C_13  and  O_14 
REMARK    6  A    between atoms: N_24  and  C_25 
ROOT
HETATM    1  C   UNL     1      22.097  51.023  50.269  1.00  0.00     0.049 C 
HETATM    2  C   UNL     1      21.116  50.143  49.493  1.00  0.00     0.116 A 
HETATM    3  N   UNL     1      20.397  49.275  50.393  1.00  0.00    -0.324 N 
HETATM    4  C   UNL     1      19.059  49.605  50.474  1.00  0.00     0.326 A 
HETATM    5  O   UNL     1      18.314  49.040  51.253  1.00  0.00    -0.247 OA
HETATM    6  N   UNL     1      18.786  50.580  49.568  1.00  0.00    -0.263 N 
HETATM    7  C   UNL     1      19.950  51.023  48.999  1.00  0.00     0.256 A 
HETATM    8  O   UNL     1      20.070  51.937  48.197  1.00  0.00    -0.270 OA
HETATM    9  H   UNL     1      20.787  48.855  51.231  1.00  0.00     0.165 HD
ENDROOT
BRANCH   2  10
HETATM   10  C   UNL     1      21.777  49.384  48.298  1.00  0.00     0.026 C 
HETATM   11  C   UNL     1      22.205  47.933  48.597  1.00  0.00     0.035 C 
HETATM   12  C   UNL     1      23.476  47.810  49.422  1.00  0.00     0.235 C 
HETATM   13  N   UNL     1      24.608  48.562  48.766  1.00  0.00    -0.067 N 
HETATM   14  H   UNL     1      24.813  48.074  47.884  1.00  0.00     0.280 HD
HETATM   15  C   UNL     1      24.275  49.996  48.438  1.00  0.00     0.235 C 
HETATM   16  C   UNL     1      22.975  50.102  47.650  1.00  0.00     0.035 C 
BRANCH  13  17
HETATM   17  C   UNL     1      25.892  48.506  49.587  1.00  0.00     0.273 C 
BRANCH  17  18
HETATM   18  C   UNL     1      26.125  47.193  50.285  1.00  0.00    -0.033 A 
HETATM   19  C   UNL     1      25.819  47.034  51.643  1.00  0.00     0.010 A 
HETATM   20  C   UNL     1      26.100  45.827  52.292  1.00  0.00     0.018 A 
HETATM   21  C   UNL     1      26.695  44.765  51.598  1.00  0.00     0.039 A 
HETATM   22  C   UNL     1      26.988  44.916  50.238  1.00  0.00     0.018 A 
HETATM   23  C   UNL     1      26.703  46.119  49.587  1.00  0.00     0.010 A 
BRANCH  21  24
HETATM   24  C   UNL     1      26.999  43.515  52.347  1.00  0.00     0.292 C 
HETATM   25  O   UNL     1      26.798  42.401  51.894  1.00  0.00    -0.259 OA
BRANCH  24  26
HETATM   26  O   UNL     1      27.488  43.805  53.577  1.00  0.00    -0.323 OA
HETATM   27  C   UNL     1      28.916  43.837  53.644  1.00  0.00     0.213 C 
ENDBRANCH  24  26
ENDBRANCH  21  24
ENDBRANCH  17  18
ENDBRANCH  13  17
ENDBRANCH   2  10
BRANCH   6  28
HETATM   28  C   UNL     1      17.483  51.221  49.348  1.00  0.00     0.106 C 
HETATM   29  C   UNL     1      17.533  52.353  48.293  1.00  0.00     0.065 C 
HETATM   30  C   UNL     1      16.740  51.802  47.154  1.00  0.00    -0.050 A 
HETATM   31  C   UNL     1      16.105  50.608  47.498  1.00  0.00    -0.050 A 
HETATM   32  C   UNL     1      16.565  52.367  45.900  1.00  0.00     0.007 A 
HETATM   33  C   UNL     1      16.392  50.213  48.912  1.00  0.00     0.065 C 
HETATM   34  C   UNL     1      15.283  49.952  46.596  1.00  0.00     0.007 A 
HETATM   35  C   UNL     1      15.106  50.509  45.329  1.00  0.00     0.001 A 
HETATM   36  C   UNL     1      15.744  51.710  44.982  1.00  0.00     0.001 A 
ENDBRANCH   6  28
TORSDOF 6
ENDMDL
MODEL 9
REMARK VINA RESULT:      -8.7      6.110      9.648
REMARK  6 active torsions:
REMARK  status: ('A' for Active; 'I' for Inactive)
REMARK    1  A    between atoms: C_2  and  C_3 
REMARK    2  A    between atoms: N_6  and  C_8 
REMARK    3  A    between atoms: C_8  and  C_9 
REMARK    4  A    between atoms: C_12  and  C_13 
REMARK    5  A    between atoms: C_13  and  O_14 
REMARK    6  A    between atoms: N_24  and  C_25 
ROOT
HETATM    1  C   UNL     1      15.672  52.078  46.854  1.00  0.00     0.049 C 
HETATM    2  C   UNL     1      16.266  50.713  47.207  1.00  0.00     0.116 A 
HETATM    3  N   UNL     1      17.338  50.379  46.302  1.00  0.00    -0.324 N 
HETATM    4  C   UNL     1      18.566  50.374  46.932  1.00  0.00     0.326 A 
HETATM    5  O   UNL     1      19.596  50.202  46.307  1.00  0.00    -0.247 OA
HETATM    6  N   UNL     1      18.383  50.559  48.265  1.00  0.00    -0.263 N 
HETATM    7  C   UNL     1      17.069  50.852  48.517  1.00  0.00     0.256 A 
HETATM    8  O   UNL     1      16.579  51.139  49.599  1.00  0.00    -0.270 OA
HETATM    9  H   UNL     1      17.361  50.619  45.316  1.00  0.00     0.165 HD
ENDROOT
BRANCH   2  10
HETATM   10  C   UNL     1      15.191  49.586  47.338  1.00  0.00     0.026 C 
HETATM   11  C   UNL     1      15.653  48.323  48.092  1.00  0.00     0.035 C 
HETATM   12  C   UNL     1      16.564  47.409  47.287  1.00  0.00     0.235 C 
HETATM   13  N   UNL     1      15.910  47.027  45.982  1.00  0.00    -0.067 N 
HETATM   14  H   UNL     1      15.094  46.448  46.219  1.00  0.00     0.280 HD
HETATM   15  C   UNL     1      15.427  48.207  45.176  1.00  0.00     0.235 C 
HETATM   16  C   UNL     1      14.554  49.134  46.012  1.00  0.00     0.035 C 
BRANCH  13  17
HETATM   17  C   UNL     1      16.811  46.148  45.119  1.00  0.00     0.273 C 
BRANCH  17  18
HETATM   18  C   UNL     1      18.121  45.782  45.764  1.00  0.00    -0.033 A 
HETATM   19  C   UNL     1      18.315  44.518  46.336  1.00  0.00     0.010 A 
HETATM   20  C   UNL     1      19.517  44.216  46.987  1.00  0.00     0.018 A 
HETATM   21  C   UNL     1      20.538  45.172  47.081  1.00  0.00     0.039 A 
HETATM   22  C   UNL     1      20.352  46.429  46.497  1.00  0.00     0.018 A 
HETATM   23  C   UNL     1      19.155  46.732  45.842  1.00  0.00     0.010 A 
BRANCH  21  24
HETATM   24  C   UNL     1      21.782  44.805  47.811  1.00  0.00     0.292 C 
HETATM   25  O   UNL     1      22.892  44.865  47.309  1.00  0.00    -0.259 OA
BRANCH  24  26
HETATM   26  O   UNL     1      21.490  44.381  49.065  1.00  0.00    -0.323 OA
HETATM   27  C   UNL     1      22.603  43.816  49.762  1.00  0.00     0.213 C 
ENDBRANCH  24  26
ENDBRANCH  21  24
ENDBRANCH  17  18
ENDBRANCH  13  17
ENDBRANCH   2  10
BRANCH   6  28
HETATM   28  C   UNL     1      19.438  50.634  49.285  1.00  0.00     0.106 C 
HETATM   29  C   UNL     1      20.055  49.255  49.623  1.00  0.00     0.065 C 
HETATM   30  C   UNL     1      21.446  49.356  49.091  1.00  0.00    -0.050 A 
HETATM   31  C   UNL     1      21.745  50.653  48.673  1.00  0.00    -0.050 A 
HETATM   32  C   UNL     1      22.398  48.350  49.029  1.00  0.00     0.007 A 
HETATM   33  C   UNL     1      20.591  51.583  48.877  1.00  0.00     0.065 C 
HETATM   34  C   UNL     1      23.001  50.973  48.183  1.00  0.00     0.007 A 
HETATM   35  C   UNL     1      23.964  49.965  48.111  1.00  0.00     0.001 A 
HETATM   36  C   UNL     1      23.664  48.661  48.531  1.00  0.00     0.001 A 
ENDBRANCH   6  28
TORSDOF 6
ENDMDL
MODEL 10
REMARK VINA RESULT:      -8.7     19.064     21.849
REMARK  6 active torsions:
REMARK  status: ('A' for Active; 'I' for Inactive)
REMARK    1  A    between atoms: C_2  and  C_3 
REMARK    2  A    between atoms: N_6  and  C_8 
REMARK    3  A    between atoms: C_8  and  C_9 
REMARK    4  A    between atoms: C_12  and  C_13 
REMARK    5  A    between atoms: C_13  and  O_14 
REMARK    6  A    between atoms: N_24  and  C_25 
ROOT
HETATM    1  C   UNL     1      36.125  44.779  66.644  1.00  0.00     0.049 C 
HETATM    2  C   UNL     1      37.036  45.736  65.874  1.00  0.00     0.116 A 
HETATM    3  N   UNL     1      38.214  46.043  66.648  1.00  0.00    -0.324 N 
HETATM    4  C   UNL     1      39.357  45.508  66.089  1.00  0.00     0.326 A 
HETATM    5  O   UNL     1      40.433  45.588  66.651  1.00  0.00    -0.247 OA
HETATM    6  N   UNL     1      39.047  44.953  64.888  1.00  0.00    -0.263 N 
HETATM    7  C   UNL     1      37.689  44.963  64.709  1.00  0.00     0.256 A 
HETATM    8  O   UNL     1      37.072  44.481  63.771  1.00  0.00    -0.270 OA
HETATM    9  H   UNL     1      38.236  46.144  67.658  1.00  0.00     0.165 HD
ENDROOT
BRANCH   2  10
HETATM   10  C   UNL     1      36.295  47.005  65.344  1.00  0.00     0.026 C 
HETATM   11  C   UNL     1      37.185  48.026  64.607  1.00  0.00     0.035 C 
HETATM   12  C   UNL     1      38.056  48.875  65.520  1.00  0.00     0.235 C 
HETATM   13  N   UNL     1      37.211  49.572  66.558  1.00  0.00    -0.067 N 
HETATM   14  H   UNL     1      36.620  50.245  66.052  1.00  0.00     0.280 HD
HETATM   15  C   UNL     1      36.307  48.644  67.330  1.00  0.00     0.235 C 
HETATM   16  C   UNL     1      35.476  47.772  66.399  1.00  0.00     0.035 C 
BRANCH  13  17
HETATM   17  C   UNL     1      38.052  50.398  67.527  1.00  0.00     0.273 C 
BRANCH  17  18
HETATM   18  C   UNL     1      37.759  51.874  67.500  1.00  0.00    -0.033 A 
HETATM   19  C   UNL     1      37.091  52.496  68.562  1.00  0.00     0.010 A 
HETATM   20  C   UNL     1      36.771  53.857  68.492  1.00  0.00     0.018 A 
HETATM   21  C   UNL     1      37.108  54.613  67.361  1.00  0.00     0.039 A 
HETATM   22  C   UNL     1      37.789  53.997  66.306  1.00  0.00     0.018 A 
HETATM   23  C   UNL     1      38.114  52.640  66.375  1.00  0.00     0.010 A 
BRANCH  21  24
HETATM   24  C   UNL     1      36.715  56.049  67.330  1.00  0.00     0.292 C 
HETATM   25  O   UNL     1      37.480  56.941  67.004  1.00  0.00    -0.259 OA
BRANCH  24  26
HETATM   26  O   UNL     1      35.431  56.199  67.736  1.00  0.00    -0.323 OA
HETATM   27  C   UNL     1      34.603  56.895  66.801  1.00  0.00     0.213 C 
ENDBRANCH  24  26
ENDBRANCH  21  24
ENDBRANCH  17  18
ENDBRANCH  13  17
ENDBRANCH   2  10
BRANCH   6  28
HETATM   28  C   UNL     1      39.977  44.264  63.984  1.00  0.00     0.106 C 
HETATM   29  C   UNL     1      40.893  43.250  64.711  1.00  0.00     0.065 C 
HETATM   30  C   UNL     1      40.421  41.928  64.202  1.00  0.00    -0.050 A 
HETATM   31  C   UNL     1      39.503  42.074  63.162  1.00  0.00    -0.050 A 
HETATM   32  C   UNL     1      40.829  40.671  64.622  1.00  0.00     0.007 A 
HETATM   33  C   UNL     1      39.248  43.513  62.843  1.00  0.00     0.065 C 
HETATM   34  C   UNL     1      38.971  40.968  62.519  1.00  0.00     0.007 A 
HETATM   35  C   UNL     1      39.371  39.698  62.939  1.00  0.00     0.001 A 
HETATM   36  C   UNL     1      40.295  39.550  63.984  1.00  0.00     0.001 A 
ENDBRANCH   6  28
TORSDOF 6
ENDMDL
