MODEL 1
REMARK VINA RESULT:      -9.3      0.000      0.000
REMARK  9 active torsions:
REMARK  status: ('A' for Active; 'I' for Inactive)
REMARK    1  A    between atoms: O_2  and  C_3 
REMARK    2  A    between atoms: C_6  and  N_7 
REMARK    3  A    between atoms: N_10  and  C_11 
REMARK    4  A    between atoms: C_11  and  C_12 
REMARK    5  A    between atoms: C_14  and  O_15 
REMARK    6  A    between atoms: C_17  and  O_18 
REMARK    7  A    between atoms: C_22  and  C_23 
REMARK    8  A    between atoms: C_23  and  C_24 
REMARK       I    between atoms: C_24  and  N_25 
REMARK    9  A    between atoms: N_25  and  C_26 
ROOT
HETATM    1  N   UNL     1      24.964  46.088  50.415  1.00  0.00    -0.232 N 
HETATM    2  C   UNL     1      24.620  44.821  49.993  1.00  0.00     0.333 C 
HETATM    3  O   UNL     1      24.134  44.472  48.927  1.00  0.00    -0.246 OA
HETATM    4  N   UNL     1      24.918  43.922  51.013  1.00  0.00    -0.315 N 
HETATM    5  C   UNL     1      25.632  44.547  52.104  1.00  0.00     0.191 C 
HETATM    6  C   UNL     1      25.442  46.012  51.704  1.00  0.00     0.256 C 
HETATM    7  O   UNL     1      25.677  46.934  52.482  1.00  0.00    -0.270 OA
ENDROOT
BRANCH   4   8
HETATM    8  C   UNL     1      24.725  42.484  50.892  1.00  0.00     0.167 C 
BRANCH   8   9
HETATM    9  C   UNL     1      25.961  41.781  50.379  1.00  0.00    -0.037 A 
HETATM   10  C   UNL     1      26.343  41.897  49.032  1.00  0.00     0.048 A 
HETATM   11  C   UNL     1      27.497  41.262  48.553  1.00  0.00     0.102 A 
HETATM   12  C   UNL     1      28.280  40.485  49.428  1.00  0.00     0.101 A 
HETATM   13  C   UNL     1      27.890  40.351  50.763  1.00  0.00     0.040 A 
HETATM   14  C   UNL     1      26.739  40.987  51.231  1.00  0.00     0.012 A 
BRANCH  11  15
HETATM   15  O   UNL     1      27.944  41.341  47.257  1.00  0.00    -0.353 OA
HETATM   16  C   UNL     1      27.181  40.690  46.251  1.00  0.00     0.210 C 
ENDBRANCH  11  15
BRANCH  12  17
HETATM   17  O   UNL     1      29.399  39.903  48.885  1.00  0.00    -0.353 OA
HETATM   18  C   UNL     1      29.502  38.488  48.945  1.00  0.00     0.210 C 
ENDBRANCH  12  17
ENDBRANCH   8   9
ENDBRANCH   4   8
BRANCH   5  19
HETATM   19  C   UNL     1      25.091  44.293  53.502  1.00  0.00     0.138 C 
BRANCH  19  20
HETATM   20  C   UNL     1      26.234  43.961  54.447  1.00  0.00     0.224 C 
HETATM   21  N   UNL     1      27.400  44.633  54.145  1.00  0.00    -0.327 N 
HETATM   22  H   UNL     1      27.415  45.145  53.264  1.00  0.00     0.169 HD
HETATM   23  O   UNL     1      26.069  43.138  55.342  1.00  0.00    -0.273 OA
BRANCH  21  24
HETATM   24  C   UNL     1      28.639  44.576  54.813  1.00  0.00     0.034 A 
HETATM   25  C   UNL     1      29.128  45.580  55.648  1.00  0.00     0.029 A 
HETATM   26  C   UNL     1      30.372  45.432  56.272  1.00  0.00     0.002 A 
HETATM   27  C   UNL     1      31.137  44.286  56.059  1.00  0.00     0.000 A 
HETATM   28  C   UNL     1      30.659  43.283  55.222  1.00  0.00     0.002 A 
HETATM   29  C   UNL     1      29.416  43.428  54.603  1.00  0.00     0.029 A 
ENDBRANCH  21  24
ENDBRANCH  19  20
ENDBRANCH   5  19
BRANCH   1  30
HETATM   30  C   UNL     1      24.758  47.300  49.690  1.00  0.00     0.047 A 
HETATM   31  C   UNL     1      23.491  47.688  49.233  1.00  0.00     0.033 A 
HETATM   32  C   UNL     1      23.298  48.904  48.560  1.00  0.00     0.039 A 
HETATM   33  C   UNL     1      24.364  49.767  48.323  1.00  0.00     0.068 A 
HETATM   34  C   UNL     1      25.635  49.383  48.728  1.00  0.00     0.039 A 
HETATM   35  C   UNL     1      25.827  48.166  49.400  1.00  0.00     0.033 A 
BRANCH  33  36
HETATM   36  O   UNL     1      24.043  50.931  47.684  1.00  0.00    -0.356 OA
HETATM   37  C   UNL     1      22.764  51.480  47.979  1.00  0.00     0.210 C 
ENDBRANCH  33  36
ENDBRANCH   1  30
TORSDOF 9
ENDMDL
MODEL 2
REMARK VINA RESULT:      -9.2      2.149      6.247
REMARK  9 active torsions:
REMARK  status: ('A' for Active; 'I' for Inactive)
REMARK    1  A    between atoms: O_2  and  C_3 
REMARK    2  A    between atoms: C_6  and  N_7 
REMARK    3  A    between atoms: N_10  and  C_11 
REMARK    4  A    between atoms: C_11  and  C_12 
REMARK    5  A    between atoms: C_14  and  O_15 
REMARK    6  A    between atoms: C_17  and  O_18 
REMARK    7  A    between atoms: C_22  and  C_23 
REMARK    8  A    between atoms: C_23  and  C_24 
REMARK       I    between atoms: C_24  and  N_25 
REMARK    9  A    between atoms: N_25  and  C_26 
ROOT
HETATM    1  N   UNL     1      26.046  46.079  50.833  1.00  0.00    -0.232 N 
HETATM    2  C   UNL     1      25.883  45.992  52.200  1.00  0.00     0.333 C 
HETATM    3  O   UNL     1      25.383  46.802  52.967  1.00  0.00    -0.246 OA
HETATM    4  N   UNL     1      26.398  44.772  52.627  1.00  0.00    -0.315 N 
HETATM    5  C   UNL     1      26.783  43.922  51.523  1.00  0.00     0.191 C 
HETATM    6  C   UNL     1      26.694  44.947  50.391  1.00  0.00     0.256 C 
HETATM    7  O   UNL     1      27.176  44.734  49.281  1.00  0.00    -0.270 OA
ENDROOT
BRANCH   4   8
HETATM    8  C   UNL     1      26.351  44.326  54.013  1.00  0.00     0.167 C 
BRANCH   8   9
HETATM    9  C   UNL     1      27.517  44.844  54.822  1.00  0.00    -0.037 A 
HETATM   10  C   UNL     1      28.731  44.138  54.860  1.00  0.00     0.048 A 
HETATM   11  C   UNL     1      29.823  44.621  55.595  1.00  0.00     0.102 A 
HETATM   12  C   UNL     1      29.701  45.824  56.318  1.00  0.00     0.101 A 
HETATM   13  C   UNL     1      28.487  46.516  56.299  1.00  0.00     0.040 A 
HETATM   14  C   UNL     1      27.405  46.026  55.563  1.00  0.00     0.012 A 
BRANCH  11  15
HETATM   15  O   UNL     1      31.045  43.999  55.668  1.00  0.00    -0.353 OA
HETATM   16  C   UNL     1      31.215  42.985  56.648  1.00  0.00     0.210 C 
ENDBRANCH  11  15
BRANCH  12  17
HETATM   17  O   UNL     1      30.816  46.235  57.005  1.00  0.00    -0.353 OA
HETATM   18  C   UNL     1      30.771  46.189  58.423  1.00  0.00     0.210 C 
ENDBRANCH  12  17
ENDBRANCH   8   9
ENDBRANCH   4   8
BRANCH   5  19
HETATM   19  C   UNL     1      28.172  43.309  51.591  1.00  0.00     0.138 C 
BRANCH  19  20
HETATM   20  C   UNL     1      28.067  41.798  51.715  1.00  0.00     0.224 C 
HETATM   21  N   UNL     1      28.230  41.142  50.512  1.00  0.00    -0.327 N 
HETATM   22  H   UNL     1      28.252  41.725  49.676  1.00  0.00     0.169 HD
HETATM   23  O   UNL     1      27.820  41.289  52.803  1.00  0.00    -0.273 OA
BRANCH  21  24
HETATM   24  C   UNL     1      28.208  39.757  50.263  1.00  0.00     0.034 A 
HETATM   25  C   UNL     1      29.277  38.896  50.510  1.00  0.00     0.029 A 
HETATM   26  C   UNL     1      29.159  37.530  50.232  1.00  0.00     0.002 A 
HETATM   27  C   UNL     1      27.978  37.017  49.699  1.00  0.00     0.000 A 
HETATM   28  C   UNL     1      26.909  37.869  49.443  1.00  0.00     0.002 A 
HETATM   29  C   UNL     1      27.023  39.232  49.725  1.00  0.00     0.029 A 
ENDBRANCH  21  24
ENDBRANCH  19  20
ENDBRANCH   5  19
BRANCH   1  30
HETATM   30  C   UNL     1      25.710  47.200  50.016  1.00  0.00     0.047 A 
HETATM   31  C   UNL     1      24.390  47.468  49.626  1.00  0.00     0.033 A 
HETATM   32  C   UNL     1      24.071  48.598  48.859  1.00  0.00     0.039 A 
HETATM   33  C   UNL     1      25.059  49.493  48.459  1.00  0.00     0.068 A 
HETATM   34  C   UNL     1      26.378  49.225  48.797  1.00  0.00     0.039 A 
HETATM   35  C   UNL     1      26.696  48.093  49.562  1.00  0.00     0.033 A 
BRANCH  33  36
HETATM   36  O   UNL     1      24.617  50.569  47.742  1.00  0.00    -0.356 OA
HETATM   37  C   UNL     1      23.260  50.948  47.944  1.00  0.00     0.210 C 
ENDBRANCH  33  36
ENDBRANCH   1  30
TORSDOF 9
ENDMDL
MODEL 3
REMARK VINA RESULT:      -9.2      2.015      6.285
REMARK  9 active torsions:
REMARK  status: ('A' for Active; 'I' for Inactive)
REMARK    1  A    between atoms: O_2  and  C_3 
REMARK    2  A    between atoms: C_6  and  N_7 
REMARK    3  A    between atoms: N_10  and  C_11 
REMARK    4  A    between atoms: C_11  and  C_12 
REMARK    5  A    between atoms: C_14  and  O_15 
REMARK    6  A    between atoms: C_17  and  O_18 
REMARK    7  A    between atoms: C_22  and  C_23 
REMARK    8  A    between atoms: C_23  and  C_24 
REMARK       I    between atoms: C_24  and  N_25 
REMARK    9  A    between atoms: N_25  and  C_26 
ROOT
HETATM    1  N   UNL     1      25.898  45.859  50.856  1.00  0.00    -0.232 N 
HETATM    2  C   UNL     1      25.883  45.786  52.234  1.00  0.00     0.333 C 
HETATM    3  O   UNL     1      25.587  46.650  53.046  1.00  0.00    -0.246 OA
HETATM    4  N   UNL     1      26.278  44.506  52.609  1.00  0.00    -0.315 N 
HETATM    5  C   UNL     1      26.416  43.619  51.475  1.00  0.00     0.191 C 
HETATM    6  C   UNL     1      26.334  44.655  50.352  1.00  0.00     0.256 C 
HETATM    7  O   UNL     1      26.653  44.387  49.197  1.00  0.00    -0.270 OA
ENDROOT
BRANCH   4   8
HETATM    8  C   UNL     1      26.331  44.060  53.995  1.00  0.00     0.167 C 
BRANCH   8   9
HETATM    9  C   UNL     1      27.739  44.061  54.543  1.00  0.00    -0.037 A 
HETATM   10  C   UNL     1      28.208  45.140  55.311  1.00  0.00     0.048 A 
HETATM   11  C   UNL     1      29.507  45.140  55.837  1.00  0.00     0.102 A 
HETATM   12  C   UNL     1      30.362  44.049  55.584  1.00  0.00     0.101 A 
HETATM   13  C   UNL     1      29.905  42.985  54.803  1.00  0.00     0.040 A 
HETATM   14  C   UNL     1      28.609  42.995  54.284  1.00  0.00     0.012 A 
BRANCH  11  15
HETATM   15  O   UNL     1      30.032  46.147  56.608  1.00  0.00    -0.353 OA
HETATM   16  C   UNL     1      29.674  46.185  57.983  1.00  0.00     0.210 C 
ENDBRANCH  11  15
BRANCH  12  17
HETATM   17  O   UNL     1      31.615  44.120  56.142  1.00  0.00    -0.353 OA
HETATM   18  C   UNL     1      31.908  43.242  57.219  1.00  0.00     0.210 C 
ENDBRANCH  12  17
ENDBRANCH   8   9
ENDBRANCH   4   8
BRANCH   5  19
HETATM   19  C   UNL     1      27.710  42.826  51.388  1.00  0.00     0.138 C 
BRANCH  19  20
HETATM   20  C   UNL     1      27.456  41.492  50.707  1.00  0.00     0.224 C 
HETATM   21  N   UNL     1      28.379  41.201  49.724  1.00  0.00    -0.327 N 
HETATM   22  H   UNL     1      29.019  41.950  49.465  1.00  0.00     0.169 HD
HETATM   23  O   UNL     1      26.484  40.816  51.028  1.00  0.00    -0.273 OA
BRANCH  21  24
HETATM   24  C   UNL     1      28.454  40.055  48.909  1.00  0.00     0.034 A 
HETATM   25  C   UNL     1      27.962  39.983  47.606  1.00  0.00     0.029 A 
HETATM   26  C   UNL     1      28.086  38.798  46.872  1.00  0.00     0.002 A 
HETATM   27  C   UNL     1      28.693  37.678  47.436  1.00  0.00     0.000 A 
HETATM   28  C   UNL     1      29.181  37.739  48.738  1.00  0.00     0.002 A 
HETATM   29  C   UNL     1      29.063  38.922  49.469  1.00  0.00     0.029 A 
ENDBRANCH  21  24
ENDBRANCH  19  20
ENDBRANCH   5  19
BRANCH   1  30
HETATM   30  C   UNL     1      25.621  47.021  50.074  1.00  0.00     0.047 A 
HETATM   31  C   UNL     1      24.319  47.363  49.684  1.00  0.00     0.033 A 
HETATM   32  C   UNL     1      24.060  48.532  48.952  1.00  0.00     0.039 A 
HETATM   33  C   UNL     1      25.092  49.391  48.587  1.00  0.00     0.068 A 
HETATM   34  C   UNL     1      26.394  49.050  48.925  1.00  0.00     0.039 A 
HETATM   35  C   UNL     1      26.652  47.880  49.656  1.00  0.00     0.033 A 
BRANCH  33  36
HETATM   36  O   UNL     1      24.708  50.509  47.902  1.00  0.00    -0.356 OA
HETATM   37  C   UNL     1      23.336  50.872  48.007  1.00  0.00     0.210 C 
ENDBRANCH  33  36
ENDBRANCH   1  30
TORSDOF 9
ENDMDL
MODEL 4
REMARK VINA RESULT:      -9.2      2.337      7.491
REMARK  9 active torsions:
REMARK  status: ('A' for Active; 'I' for Inactive)
REMARK    1  A    between atoms: O_2  and  C_3 
REMARK    2  A    between atoms: C_6  and  N_7 
REMARK    3  A    between atoms: N_10  and  C_11 
REMARK    4  A    between atoms: C_11  and  C_12 
REMARK    5  A    between atoms: C_14  and  O_15 
REMARK    6  A    between atoms: C_17  and  O_18 
REMARK    7  A    between atoms: C_22  and  C_23 
REMARK    8  A    between atoms: C_23  and  C_24 
REMARK       I    between atoms: C_24  and  N_25 
REMARK    9  A    between atoms: N_25  and  C_26 
ROOT
HETATM    1  N   UNL     1      26.929  40.277  50.028  1.00  0.00    -0.232 N 
HETATM    2  C   UNL     1      25.795  41.062  50.007  1.00  0.00     0.333 C 
HETATM    3  O   UNL     1      24.830  40.996  49.260  1.00  0.00    -0.246 OA
HETATM    4  N   UNL     1      25.898  42.010  51.020  1.00  0.00    -0.315 N 
HETATM    5  C   UNL     1      27.047  41.784  51.868  1.00  0.00     0.191 C 
HETATM    6  C   UNL     1      27.769  40.738  51.017  1.00  0.00     0.256 C 
HETATM    7  O   UNL     1      28.938  40.424  51.226  1.00  0.00    -0.270 OA
ENDROOT
BRANCH   4   8
HETATM    8  C   UNL     1      24.852  42.978  51.317  1.00  0.00     0.167 C 
BRANCH   8   9
HETATM    9  C   UNL     1      25.289  44.398  51.039  1.00  0.00    -0.037 A 
HETATM   10  C   UNL     1      25.157  45.394  52.021  1.00  0.00     0.048 A 
HETATM   11  C   UNL     1      25.576  46.709  51.776  1.00  0.00     0.102 A 
HETATM   12  C   UNL     1      26.126  47.044  50.523  1.00  0.00     0.101 A 
HETATM   13  C   UNL     1      26.239  46.060  49.538  1.00  0.00     0.040 A 
HETATM   14  C   UNL     1      25.818  44.753  49.792  1.00  0.00     0.012 A 
BRANCH  11  15
HETATM   15  O   UNL     1      25.495  47.732  52.688  1.00  0.00    -0.353 OA
HETATM   16  C   UNL     1      25.892  47.460  54.025  1.00  0.00     0.210 C 
ENDBRANCH  11  15
BRANCH  12  17
HETATM   17  O   UNL     1      26.521  48.349  50.364  1.00  0.00    -0.353 OA
HETATM   18  C   UNL     1      27.373  48.652  49.268  1.00  0.00     0.210 C 
ENDBRANCH  12  17
ENDBRANCH   8   9
ENDBRANCH   4   8
BRANCH   5  19
HETATM   19  C   UNL     1      27.943  42.984  52.128  1.00  0.00     0.138 C 
BRANCH  19  20
HETATM   20  C   UNL     1      28.196  43.129  53.619  1.00  0.00     0.224 C 
HETATM   21  N   UNL     1      29.421  43.692  53.910  1.00  0.00    -0.327 N 
HETATM   22  H   UNL     1      30.066  43.807  53.129  1.00  0.00     0.169 HD
HETATM   23  O   UNL     1      27.361  42.726  54.424  1.00  0.00    -0.273 OA
BRANCH  21  24
HETATM   24  C   UNL     1      29.971  43.982  55.174  1.00  0.00     0.034 A 
HETATM   25  C   UNL     1      30.884  43.166  55.840  1.00  0.00     0.029 A 
HETATM   26  C   UNL     1      31.378  43.541  57.095  1.00  0.00     0.002 A 
HETATM   27  C   UNL     1      30.957  44.727  57.693  1.00  0.00     0.000 A 
HETATM   28  C   UNL     1      30.042  45.544  57.038  1.00  0.00     0.002 A 
HETATM   29  C   UNL     1      29.553  45.174  55.784  1.00  0.00     0.029 A 
ENDBRANCH  21  24
ENDBRANCH  19  20
ENDBRANCH   5  19
BRANCH   1  30
HETATM   30  C   UNL     1      27.245  39.231  49.109  1.00  0.00     0.047 A 
HETATM   31  C   UNL     1      26.943  37.889  49.376  1.00  0.00     0.033 A 
HETATM   32  C   UNL     1      27.221  36.879  48.443  1.00  0.00     0.039 A 
HETATM   33  C   UNL     1      27.808  37.179  47.218  1.00  0.00     0.068 A 
HETATM   34  C   UNL     1      28.156  38.496  46.949  1.00  0.00     0.039 A 
HETATM   35  C   UNL     1      27.879  39.505  47.884  1.00  0.00     0.033 A 
BRANCH  33  36
HETATM   36  O   UNL     1      28.001  36.113  46.385  1.00  0.00    -0.356 OA
HETATM   37  C   UNL     1      26.921  35.192  46.279  1.00  0.00     0.210 C 
ENDBRANCH  33  36
ENDBRANCH   1  30
TORSDOF 9
ENDMDL
MODEL 5
REMARK VINA RESULT:      -9.0      1.893      6.945
REMARK  9 active torsions:
REMARK  status: ('A' for Active; 'I' for Inactive)
REMARK    1  A    between atoms: O_2  and  C_3 
REMARK    2  A    between atoms: C_6  and  N_7 
REMARK    3  A    between atoms: N_10  and  C_11 
REMARK    4  A    between atoms: C_11  and  C_12 
REMARK    5  A    between atoms: C_14  and  O_15 
REMARK    6  A    between atoms: C_17  and  O_18 
REMARK    7  A    between atoms: C_22  and  C_23 
REMARK    8  A    between atoms: C_23  and  C_24 
REMARK       I    between atoms: C_24  and  N_25 
REMARK    9  A    between atoms: N_25  and  C_26 
ROOT
HETATM    1  N   UNL     1      26.715  41.855  50.543  1.00  0.00    -0.232 N 
HETATM    2  C   UNL     1      25.625  42.699  50.508  1.00  0.00     0.333 C 
HETATM    3  O   UNL     1      24.679  42.701  49.734  1.00  0.00    -0.246 OA
HETATM    4  N   UNL     1      25.749  43.617  51.546  1.00  0.00    -0.315 N 
HETATM    5  C   UNL     1      26.859  43.312  52.420  1.00  0.00     0.191 C 
HETATM    6  C   UNL     1      27.550  42.248  51.564  1.00  0.00     0.256 C 
HETATM    7  O   UNL     1      28.694  41.868  51.798  1.00  0.00    -0.270 OA
ENDROOT
BRANCH   4   8
HETATM    8  C   UNL     1      24.747  44.634  51.837  1.00  0.00     0.167 C 
BRANCH   8   9
HETATM    9  C   UNL     1      24.934  45.880  51.002  1.00  0.00    -0.037 A 
HETATM   10  C   UNL     1      23.944  46.289  50.094  1.00  0.00     0.048 A 
HETATM   11  C   UNL     1      24.104  47.452  49.329  1.00  0.00     0.102 A 
HETATM   12  C   UNL     1      25.279  48.218  49.460  1.00  0.00     0.101 A 
HETATM   13  C   UNL     1      26.275  47.801  50.347  1.00  0.00     0.040 A 
HETATM   14  C   UNL     1      26.106  46.640  51.104  1.00  0.00     0.012 A 
BRANCH  11  15
HETATM   15  O   UNL     1      23.176  47.926  48.434  1.00  0.00    -0.353 OA
HETATM   16  C   UNL     1      21.916  48.340  48.943  1.00  0.00     0.210 C 
ENDBRANCH  11  15
BRANCH  12  17
HETATM   17  O   UNL     1      25.356  49.348  48.683  1.00  0.00    -0.353 OA
HETATM   18  C   UNL     1      26.649  49.839  48.361  1.00  0.00     0.210 C 
ENDBRANCH  12  17
ENDBRANCH   8   9
ENDBRANCH   4   8
BRANCH   5  19
HETATM   19  C   UNL     1      27.810  44.457  52.732  1.00  0.00     0.138 C 
BRANCH  19  20
HETATM   20  C   UNL     1      28.080  44.513  54.226  1.00  0.00     0.224 C 
HETATM   21  N   UNL     1      29.423  44.596  54.532  1.00  0.00    -0.327 N 
HETATM   22  H   UNL     1      30.075  44.464  53.759  1.00  0.00     0.169 HD
HETATM   23  O   UNL     1      27.147  44.446  55.021  1.00  0.00    -0.273 OA
BRANCH  21  24
HETATM   24  C   UNL     1      30.026  44.678  55.802  1.00  0.00     0.034 A 
HETATM   25  C   UNL     1      29.777  45.692  56.726  1.00  0.00     0.029 A 
HETATM   26  C   UNL     1      30.424  45.688  57.967  1.00  0.00     0.002 A 
HETATM   27  C   UNL     1      31.327  44.677  58.289  1.00  0.00     0.000 A 
HETATM   28  C   UNL     1      31.587  43.665  57.370  1.00  0.00     0.002 A 
HETATM   29  C   UNL     1      30.938  43.666  56.133  1.00  0.00     0.029 A 
ENDBRANCH  21  24
ENDBRANCH  19  20
ENDBRANCH   5  19
BRANCH   1  30
HETATM   30  C   UNL     1      27.001  40.814  49.608  1.00  0.00     0.047 A 
HETATM   31  C   UNL     1      26.653  39.478  49.852  1.00  0.00     0.033 A 
HETATM   32  C   UNL     1      26.902  38.474  48.904  1.00  0.00     0.039 A 
HETATM   33  C   UNL     1      27.507  38.774  47.687  1.00  0.00     0.068 A 
HETATM   34  C   UNL     1      27.901  40.083  47.442  1.00  0.00     0.039 A 
HETATM   35  C   UNL     1      27.652  41.085  48.392  1.00  0.00     0.033 A 
BRANCH  33  36
HETATM   36  O   UNL     1      27.670  37.716  46.838  1.00  0.00    -0.356 OA
HETATM   37  C   UNL     1      26.508  36.939  46.570  1.00  0.00     0.210 C 
ENDBRANCH  33  36
ENDBRANCH   1  30
TORSDOF 9
ENDMDL
MODEL 6
REMARK VINA RESULT:      -8.9      1.666      7.181
REMARK  9 active torsions:
REMARK  status: ('A' for Active; 'I' for Inactive)
REMARK    1  A    between atoms: O_2  and  C_3 
REMARK    2  A    between atoms: C_6  and  N_7 
REMARK    3  A    between atoms: N_10  and  C_11 
REMARK    4  A    between atoms: C_11  and  C_12 
REMARK    5  A    between atoms: C_14  and  O_15 
REMARK    6  A    between atoms: C_17  and  O_18 
REMARK    7  A    between atoms: C_22  and  C_23 
REMARK    8  A    between atoms: C_23  and  C_24 
REMARK       I    between atoms: C_24  and  N_25 
REMARK    9  A    between atoms: N_25  and  C_26 
ROOT
HETATM    1  N   UNL     1      26.112  44.148  50.936  1.00  0.00    -0.232 N 
HETATM    2  C   UNL     1      26.592  45.255  50.266  1.00  0.00     0.333 C 
HETATM    3  O   UNL     1      27.319  45.303  49.285  1.00  0.00    -0.246 OA
HETATM    4  N   UNL     1      26.106  46.394  50.899  1.00  0.00    -0.315 N 
HETATM    5  C   UNL     1      25.141  46.082  51.929  1.00  0.00     0.191 C 
HETATM    6  C   UNL     1      25.360  44.569  52.009  1.00  0.00     0.256 C 
HETATM    7  O   UNL     1      24.921  43.897  52.938  1.00  0.00    -0.270 OA
ENDROOT
BRANCH   4   8
HETATM    8  C   UNL     1      26.376  47.746  50.428  1.00  0.00     0.167 C 
BRANCH   8   9
HETATM    9  C   UNL     1      25.230  48.312  49.622  1.00  0.00    -0.037 A 
HETATM   10  C   UNL     1      23.972  47.686  49.629  1.00  0.00     0.048 A 
HETATM   11  C   UNL     1      22.900  48.214  48.898  1.00  0.00     0.102 A 
HETATM   12  C   UNL     1      23.085  49.383  48.133  1.00  0.00     0.101 A 
HETATM   13  C   UNL     1      24.340  49.995  48.108  1.00  0.00     0.040 A 
HETATM   14  C   UNL     1      25.402  49.461  48.841  1.00  0.00     0.012 A 
BRANCH  11  15
HETATM   15  O   UNL     1      21.639  47.670  48.866  1.00  0.00    -0.353 OA
HETATM   16  C   UNL     1      21.505  46.335  48.400  1.00  0.00     0.210 C 
ENDBRANCH  11  15
BRANCH  12  17
HETATM   17  O   UNL     1      21.984  49.843  47.453  1.00  0.00    -0.353 OA
HETATM   18  C   UNL     1      21.204  50.857  48.069  1.00  0.00     0.210 C 
ENDBRANCH  12  17
ENDBRANCH   8   9
ENDBRANCH   4   8
BRANCH   5  19
HETATM   19  C   UNL     1      25.362  46.733  53.285  1.00  0.00     0.138 C 
BRANCH  19  20
HETATM   20  C   UNL     1      26.812  46.571  53.708  1.00  0.00     0.224 C 
HETATM   21  N   UNL     1      27.096  45.314  54.200  1.00  0.00    -0.327 N 
HETATM   22  H   UNL     1      26.300  44.698  54.362  1.00  0.00     0.169 HD
HETATM   23  O   UNL     1      27.584  47.521  53.627  1.00  0.00    -0.273 OA
BRANCH  21  24
HETATM   24  C   UNL     1      28.329  44.816  54.665  1.00  0.00     0.034 A 
HETATM   25  C   UNL     1      29.087  45.410  55.673  1.00  0.00     0.029 A 
HETATM   26  C   UNL     1      30.302  44.839  56.070  1.00  0.00     0.002 A 
HETATM   27  C   UNL     1      30.768  43.677  55.458  1.00  0.00     0.000 A 
HETATM   28  C   UNL     1      30.022  43.082  54.447  1.00  0.00     0.002 A 
HETATM   29  C   UNL     1      28.807  43.648  54.054  1.00  0.00     0.029 A 
ENDBRANCH  21  24
ENDBRANCH  19  20
ENDBRANCH   5  19
BRANCH   1  30
HETATM   30  C   UNL     1      26.430  42.787  50.645  1.00  0.00     0.047 A 
HETATM   31  C   UNL     1      27.633  42.199  51.058  1.00  0.00     0.033 A 
HETATM   32  C   UNL     1      27.911  40.847  50.802  1.00  0.00     0.039 A 
HETATM   33  C   UNL     1      26.997  40.045  50.125  1.00  0.00     0.068 A 
HETATM   34  C   UNL     1      25.818  40.617  49.668  1.00  0.00     0.039 A 
HETATM   35  C   UNL     1      25.542  41.969  49.924  1.00  0.00     0.033 A 
BRANCH  33  36
HETATM   36  O   UNL     1      27.371  38.741  49.962  1.00  0.00    -0.356 OA
HETATM   37  C   UNL     1      28.749  38.509  49.694  1.00  0.00     0.210 C 
ENDBRANCH  33  36
ENDBRANCH   1  30
TORSDOF 9
ENDMDL
MODEL 7
REMARK VINA RESULT:      -8.7      1.608      7.165
REMARK  9 active torsions:
REMARK  status: ('A' for Active; 'I' for Inactive)
REMARK    1  A    between atoms: O_2  and  C_3 
REMARK    2  A    between atoms: C_6  and  N_7 
REMARK    3  A    between atoms: N_10  and  C_11 
REMARK    4  A    between atoms: C_11  and  C_12 
REMARK    5  A    between atoms: C_14  and  O_15 
REMARK    6  A    between atoms: C_17  and  O_18 
REMARK    7  A    between atoms: C_22  and  C_23 
REMARK    8  A    between atoms: C_23  and  C_24 
REMARK       I    between atoms: C_24  and  N_25 
REMARK    9  A    between atoms: N_25  and  C_26 
ROOT
HETATM    1  N   UNL     1      26.596  43.843  51.393  1.00  0.00    -0.232 N 
HETATM    2  C   UNL     1      26.830  44.985  50.655  1.00  0.00     0.333 C 
HETATM    3  O   UNL     1      27.484  45.117  49.631  1.00  0.00    -0.246 OA
HETATM    4  N   UNL     1      26.178  46.047  51.273  1.00  0.00    -0.315 N 
HETATM    5  C   UNL     1      25.341  45.615  52.370  1.00  0.00     0.191 C 
HETATM    6  C   UNL     1      25.836  44.173  52.492  1.00  0.00     0.256 C 
HETATM    7  O   UNL     1      25.576  43.477  53.471  1.00  0.00    -0.270 OA
ENDROOT
BRANCH   4   8
HETATM    8  C   UNL     1      26.171  47.402  50.736  1.00  0.00     0.167 C 
BRANCH   8   9
HETATM    9  C   UNL     1      24.986  47.655  49.832  1.00  0.00    -0.037 A 
HETATM   10  C   UNL     1      24.888  48.848  49.098  1.00  0.00     0.048 A 
HETATM   11  C   UNL     1      23.801  49.082  48.245  1.00  0.00     0.102 A 
HETATM   12  C   UNL     1      22.783  48.114  48.130  1.00  0.00     0.101 A 
HETATM   13  C   UNL     1      22.868  46.936  48.876  1.00  0.00     0.040 A 
HETATM   14  C   UNL     1      23.956  46.713  49.723  1.00  0.00     0.012 A 
BRANCH  11  15
HETATM   15  O   UNL     1      23.642  50.213  47.483  1.00  0.00    -0.353 OA
HETATM   16  C   UNL     1      23.052  51.349  48.099  1.00  0.00     0.210 C 
ENDBRANCH  11  15
BRANCH  12  17
HETATM   17  O   UNL     1      21.757  48.414  47.268  1.00  0.00    -0.353 OA
HETATM   18  C   UNL     1      20.523  47.735  47.451  1.00  0.00     0.210 C 
ENDBRANCH  12  17
ENDBRANCH   8   9
ENDBRANCH   4   8
BRANCH   5  19
HETATM   19  C   UNL     1      25.509  46.360  53.685  1.00  0.00     0.138 C 
BRANCH  19  20
HETATM   20  C   UNL     1      26.973  46.372  54.090  1.00  0.00     0.224 C 
HETATM   21  N   UNL     1      27.370  45.213  54.725  1.00  0.00    -0.327 N 
HETATM   22  H   UNL     1      26.632  44.558  54.979  1.00  0.00     0.169 HD
HETATM   23  O   UNL     1      27.659  47.366  53.876  1.00  0.00    -0.273 OA
BRANCH  21  24
HETATM   24  C   UNL     1      28.647  44.881  55.217  1.00  0.00     0.034 A 
HETATM   25  C   UNL     1      29.433  43.841  54.724  1.00  0.00     0.029 A 
HETATM   26  C   UNL     1      30.694  43.587  55.278  1.00  0.00     0.002 A 
HETATM   27  C   UNL     1      31.171  44.367  56.330  1.00  0.00     0.000 A 
HETATM   28  C   UNL     1      30.390  45.403  56.832  1.00  0.00     0.002 A 
HETATM   29  C   UNL     1      29.135  45.659  56.277  1.00  0.00     0.029 A 
ENDBRANCH  21  24
ENDBRANCH  19  20
ENDBRANCH   5  19
BRANCH   1  30
HETATM   30  C   UNL     1      27.142  42.549  51.135  1.00  0.00     0.047 A 
HETATM   31  C   UNL     1      26.761  41.789  50.021  1.00  0.00     0.033 A 
HETATM   32  C   UNL     1      27.339  40.538  49.758  1.00  0.00     0.039 A 
HETATM   33  C   UNL     1      28.314  40.010  50.599  1.00  0.00     0.068 A 
HETATM   34  C   UNL     1      28.676  40.726  51.732  1.00  0.00     0.039 A 
HETATM   35  C   UNL     1      28.096  41.976  51.994  1.00  0.00     0.033 A 
BRANCH  33  36
HETATM   36  O   UNL     1      28.820  38.799  50.220  1.00  0.00    -0.356 OA
HETATM   37  C   UNL     1      27.904  37.896  49.610  1.00  0.00     0.210 C 
ENDBRANCH  33  36
ENDBRANCH   1  30
TORSDOF 9
ENDMDL
MODEL 8
REMARK VINA RESULT:      -8.6      1.412      2.277
REMARK  9 active torsions:
REMARK  status: ('A' for Active; 'I' for Inactive)
REMARK    1  A    between atoms: O_2  and  C_3 
REMARK    2  A    between atoms: C_6  and  N_7 
REMARK    3  A    between atoms: N_10  and  C_11 
REMARK    4  A    between atoms: C_11  and  C_12 
REMARK    5  A    between atoms: C_14  and  O_15 
REMARK    6  A    between atoms: C_17  and  O_18 
REMARK    7  A    between atoms: C_22  and  C_23 
REMARK    8  A    between atoms: C_23  and  C_24 
REMARK       I    between atoms: C_24  and  N_25 
REMARK    9  A    between atoms: N_25  and  C_26 
ROOT
HETATM    1  N   UNL     1      23.890  46.341  49.799  1.00  0.00    -0.232 N 
HETATM    2  C   UNL     1      23.520  45.013  49.748  1.00  0.00     0.333 C 
HETATM    3  O   UNL     1      22.625  44.490  49.101  1.00  0.00    -0.246 OA
HETATM    4  N   UNL     1      24.360  44.291  50.590  1.00  0.00    -0.315 N 
HETATM    5  C   UNL     1      25.438  45.099  51.115  1.00  0.00     0.191 C 
HETATM    6  C   UNL     1      24.929  46.479  50.692  1.00  0.00     0.256 C 
HETATM    7  O   UNL     1      25.408  47.515  51.144  1.00  0.00    -0.270 OA
ENDROOT
BRANCH   4   8
HETATM    8  C   UNL     1      24.284  42.845  50.746  1.00  0.00     0.167 C 
BRANCH   8   9
HETATM    9  C   UNL     1      25.477  42.140  50.143  1.00  0.00    -0.037 A 
HETATM   10  C   UNL     1      26.448  41.546  50.965  1.00  0.00     0.048 A 
HETATM   11  C   UNL     1      27.549  40.876  50.413  1.00  0.00     0.102 A 
HETATM   12  C   UNL     1      27.693  40.806  49.013  1.00  0.00     0.101 A 
HETATM   13  C   UNL     1      26.739  41.415  48.194  1.00  0.00     0.040 A 
HETATM   14  C   UNL     1      25.646  42.080  48.754  1.00  0.00     0.012 A 
BRANCH  11  15
HETATM   15  O   UNL     1      28.530  40.257  51.148  1.00  0.00    -0.353 OA
HETATM   16  C   UNL     1      28.794  40.755  52.452  1.00  0.00     0.210 C 
ENDBRANCH  11  15
BRANCH  12  17
HETATM   17  O   UNL     1      28.791  40.125  48.550  1.00  0.00    -0.353 OA
HETATM   18  C   UNL     1      28.588  38.819  48.033  1.00  0.00     0.210 C 
ENDBRANCH  12  17
ENDBRANCH   8   9
ENDBRANCH   4   8
BRANCH   5  19
HETATM   19  C   UNL     1      25.658  45.041  52.619  1.00  0.00     0.138 C 
BRANCH  19  20
HETATM   20  C   UNL     1      27.108  44.702  52.917  1.00  0.00     0.224 C 
HETATM   21  N   UNL     1      27.437  44.846  54.249  1.00  0.00    -0.327 N 
HETATM   22  H   UNL     1      26.739  45.293  54.844  1.00  0.00     0.169 HD
HETATM   23  O   UNL     1      27.862  44.377  52.005  1.00  0.00    -0.273 OA
BRANCH  21  24
HETATM   24  C   UNL     1      28.675  44.606  54.874  1.00  0.00     0.034 A 
HETATM   25  C   UNL     1      29.402  43.423  54.750  1.00  0.00     0.029 A 
HETATM   26  C   UNL     1      30.628  43.277  55.409  1.00  0.00     0.002 A 
HETATM   27  C   UNL     1      31.131  44.309  56.201  1.00  0.00     0.000 A 
HETATM   28  C   UNL     1      30.408  45.490  56.336  1.00  0.00     0.002 A 
HETATM   29  C   UNL     1      29.188  45.638  55.674  1.00  0.00     0.029 A 
ENDBRANCH  21  24
ENDBRANCH  19  20
ENDBRANCH   5  19
BRANCH   1  30
HETATM   30  C   UNL     1      23.238  47.421  49.130  1.00  0.00     0.047 A 
HETATM   31  C   UNL     1      21.889  47.360  48.756  1.00  0.00     0.033 A 
HETATM   32  C   UNL     1      21.252  48.447  48.140  1.00  0.00     0.039 A 
HETATM   33  C   UNL     1      21.944  49.626  47.877  1.00  0.00     0.068 A 
HETATM   34  C   UNL     1      23.292  49.694  48.199  1.00  0.00     0.039 A 
HETATM   35  C   UNL     1      23.928  48.605  48.815  1.00  0.00     0.033 A 
BRANCH  33  36
HETATM   36  O   UNL     1      21.206  50.621  47.300  1.00  0.00    -0.356 OA
HETATM   37  C   UNL     1      19.792  50.472  47.359  1.00  0.00     0.210 C 
ENDBRANCH  33  36
ENDBRANCH   1  30
TORSDOF 9
ENDMDL
MODEL 9
REMARK VINA RESULT:      -8.5      3.454      9.435
REMARK  9 active torsions:
REMARK  status: ('A' for Active; 'I' for Inactive)
REMARK    1  A    between atoms: O_2  and  C_3 
REMARK    2  A    between atoms: C_6  and  N_7 
REMARK    3  A    between atoms: N_10  and  C_11 
REMARK    4  A    between atoms: C_11  and  C_12 
REMARK    5  A    between atoms: C_14  and  O_15 
REMARK    6  A    between atoms: C_17  and  O_18 
REMARK    7  A    between atoms: C_22  and  C_23 
REMARK    8  A    between atoms: C_23  and  C_24 
REMARK       I    between atoms: C_24  and  N_25 
REMARK    9  A    between atoms: N_25  and  C_26 
ROOT
HETATM    1  N   UNL     1      24.916  45.486  50.606  1.00  0.00    -0.232 N 
HETATM    2  C   UNL     1      24.406  44.888  49.472  1.00  0.00     0.333 C 
HETATM    3  O   UNL     1      24.520  43.730  49.097  1.00  0.00    -0.246 OA
HETATM    4  N   UNL     1      23.692  45.843  48.756  1.00  0.00    -0.315 N 
HETATM    5  C   UNL     1      23.563  47.088  49.478  1.00  0.00     0.191 C 
HETATM    6  C   UNL     1      24.567  46.817  50.600  1.00  0.00     0.256 C 
HETATM    7  O   UNL     1      24.980  47.713  51.334  1.00  0.00    -0.270 OA
ENDROOT
BRANCH   4   8
HETATM    8  C   UNL     1      22.977  45.546  47.522  1.00  0.00     0.167 C 
BRANCH   8   9
HETATM    9  C   UNL     1      21.498  45.841  47.632  1.00  0.00    -0.037 A 
HETATM   10  C   UNL     1      20.891  46.785  46.787  1.00  0.00     0.048 A 
HETATM   11  C   UNL     1      19.518  47.051  46.872  1.00  0.00     0.102 A 
HETATM   12  C   UNL     1      18.733  46.373  47.825  1.00  0.00     0.101 A 
HETATM   13  C   UNL     1      19.339  45.449  48.681  1.00  0.00     0.040 A 
HETATM   14  C   UNL     1      20.708  45.191  48.588  1.00  0.00     0.012 A 
BRANCH  11  15
HETATM   15  O   UNL     1      18.850  47.946  46.073  1.00  0.00    -0.353 OA
HETATM   16  C   UNL     1      18.719  47.633  44.693  1.00  0.00     0.210 C 
ENDBRANCH  11  15
BRANCH  12  17
HETATM   17  O   UNL     1      17.395  46.681  47.840  1.00  0.00    -0.353 OA
HETATM   18  C   UNL     1      16.869  47.278  49.016  1.00  0.00     0.210 C 
ENDBRANCH  12  17
ENDBRANCH   8   9
ENDBRANCH   4   8
BRANCH   5  19
HETATM   19  C   UNL     1      23.927  48.354  48.719  1.00  0.00     0.138 C 
BRANCH  19  20
HETATM   20  C   UNL     1      23.014  49.492  49.140  1.00  0.00     0.224 C 
HETATM   21  N   UNL     1      21.689  49.271  48.824  1.00  0.00    -0.327 N 
HETATM   22  H   UNL     1      21.492  48.466  48.230  1.00  0.00     0.169 HD
HETATM   23  O   UNL     1      23.486  50.494  49.668  1.00  0.00    -0.273 OA
BRANCH  21  24
HETATM   24  C   UNL     1      20.580  50.100  49.078  1.00  0.00     0.034 A 
HETATM   25  C   UNL     1      19.531  49.770  49.935  1.00  0.00     0.029 A 
HETATM   26  C   UNL     1      18.470  50.663  50.126  1.00  0.00     0.002 A 
HETATM   27  C   UNL     1      18.448  51.886  49.458  1.00  0.00     0.000 A 
HETATM   28  C   UNL     1      19.487  52.220  48.596  1.00  0.00     0.002 A 
HETATM   29  C   UNL     1      20.548  51.332  48.409  1.00  0.00     0.029 A 
ENDBRANCH  21  24
ENDBRANCH  19  20
ENDBRANCH   5  19
BRANCH   1  30
HETATM   30  C   UNL     1      25.763  44.866  51.574  1.00  0.00     0.047 A 
HETATM   31  C   UNL     1      25.323  44.583  52.875  1.00  0.00     0.033 A 
HETATM   32  C   UNL     1      26.154  43.934  53.800  1.00  0.00     0.039 A 
HETATM   33  C   UNL     1      27.447  43.551  53.456  1.00  0.00     0.068 A 
HETATM   34  C   UNL     1      27.918  43.860  52.187  1.00  0.00     0.039 A 
HETATM   35  C   UNL     1      27.086  44.510  51.263  1.00  0.00     0.033 A 
BRANCH  33  36
HETATM   36  O   UNL     1      28.146  42.902  54.434  1.00  0.00    -0.356 OA
HETATM   37  C   UNL     1      29.478  43.349  54.660  1.00  0.00     0.210 C 
ENDBRANCH  33  36
ENDBRANCH   1  30
TORSDOF 9
ENDMDL
MODEL 10
REMARK VINA RESULT:      -8.5      1.920      6.894
REMARK  9 active torsions:
REMARK  status: ('A' for Active; 'I' for Inactive)
REMARK    1  A    between atoms: O_2  and  C_3 
REMARK    2  A    between atoms: C_6  and  N_7 
REMARK    3  A    between atoms: N_10  and  C_11 
REMARK    4  A    between atoms: C_11  and  C_12 
REMARK    5  A    between atoms: C_14  and  O_15 
REMARK    6  A    between atoms: C_17  and  O_18 
REMARK    7  A    between atoms: C_22  and  C_23 
REMARK    8  A    between atoms: C_23  and  C_24 
REMARK       I    between atoms: C_24  and  N_25 
REMARK    9  A    between atoms: N_25  and  C_26 
ROOT
HETATM    1  N   UNL     1      27.710  43.953  53.178  1.00  0.00    -0.232 N 
HETATM    2  C   UNL     1      27.989  43.886  51.829  1.00  0.00     0.333 C 
HETATM    3  O   UNL     1      29.074  43.813  51.272  1.00  0.00    -0.246 OA
HETATM    4  N   UNL     1      26.786  43.914  51.131  1.00  0.00    -0.315 N 
HETATM    5  C   UNL     1      25.639  43.836  52.009  1.00  0.00     0.191 C 
HETATM    6  C   UNL     1      26.348  44.062  53.346  1.00  0.00     0.256 C 
HETATM    7  O   UNL     1      25.729  44.325  54.373  1.00  0.00    -0.270 OA
ENDROOT
BRANCH   4   8
HETATM    8  C   UNL     1      26.701  43.812  49.680  1.00  0.00     0.167 C 
BRANCH   8   9
HETATM    9  C   UNL     1      26.500  42.387  49.216  1.00  0.00    -0.037 A 
HETATM   10  C   UNL     1      27.573  41.481  49.201  1.00  0.00     0.048 A 
HETATM   11  C   UNL     1      27.391  40.155  48.788  1.00  0.00     0.102 A 
HETATM   12  C   UNL     1      26.117  39.723  48.370  1.00  0.00     0.101 A 
HETATM   13  C   UNL     1      25.052  40.628  48.365  1.00  0.00     0.040 A 
HETATM   14  C   UNL     1      25.245  41.948  48.778  1.00  0.00     0.012 A 
BRANCH  11  15
HETATM   15  O   UNL     1      28.384  39.207  48.759  1.00  0.00    -0.353 OA
HETATM   16  C   UNL     1      28.883  38.732  50.002  1.00  0.00     0.210 C 
ENDBRANCH  11  15
BRANCH  12  17
HETATM   17  O   UNL     1      26.017  38.407  47.989  1.00  0.00    -0.353 OA
HETATM   18  C   UNL     1      25.199  38.105  46.868  1.00  0.00     0.210 C 
ENDBRANCH  12  17
ENDBRANCH   8   9
ENDBRANCH   4   8
BRANCH   5  19
HETATM   19  C   UNL     1      24.548  44.872  51.792  1.00  0.00     0.138 C 
BRANCH  19  20
HETATM   20  C   UNL     1      25.170  46.231  51.522  1.00  0.00     0.224 C 
HETATM   21  N   UNL     1      25.159  46.578  50.187  1.00  0.00    -0.327 N 
HETATM   22  H   UNL     1      24.884  45.848  49.530  1.00  0.00     0.169 HD
HETATM   23  O   UNL     1      25.648  46.881  52.447  1.00  0.00    -0.273 OA
BRANCH  21  24
HETATM   24  C   UNL     1      25.636  47.759  49.587  1.00  0.00     0.034 A 
HETATM   25  C   UNL     1      26.983  48.105  49.492  1.00  0.00     0.029 A 
HETATM   26  C   UNL     1      27.361  49.303  48.875  1.00  0.00     0.002 A 
HETATM   27  C   UNL     1      26.396  50.164  48.356  1.00  0.00     0.000 A 
HETATM   28  C   UNL     1      25.049  49.830  48.452  1.00  0.00     0.002 A 
HETATM   29  C   UNL     1      24.671  48.633  49.064  1.00  0.00     0.029 A 
ENDBRANCH  21  24
ENDBRANCH  19  20
ENDBRANCH   5  19
BRANCH   1  30
HETATM   30  C   UNL     1      28.671  44.017  54.233  1.00  0.00     0.047 A 
HETATM   31  C   UNL     1      29.494  42.930  54.556  1.00  0.00     0.033 A 
HETATM   32  C   UNL     1      30.463  43.024  55.566  1.00  0.00     0.039 A 
HETATM   33  C   UNL     1      30.638  44.204  56.282  1.00  0.00     0.068 A 
HETATM   34  C   UNL     1      29.805  45.280  56.008  1.00  0.00     0.039 A 
HETATM   35  C   UNL     1      28.835  45.184  54.999  1.00  0.00     0.033 A 
BRANCH  33  36
HETATM   36  O   UNL     1      31.632  44.178  57.219  1.00  0.00    -0.356 OA
HETATM   37  C   UNL     1      31.363  44.852  58.444  1.00  0.00     0.210 C 
ENDBRANCH  33  36
ENDBRANCH   1  30
TORSDOF 9
ENDMDL
