MODEL 1
REMARK VINA RESULT:      -9.3      0.000      0.000
REMARK  7 active torsions:
REMARK  status: ('A' for Active; 'I' for Inactive)
REMARK    1  A    between atoms: C_2  and  C_3 
REMARK    2  A    between atoms: C_3  and  C_4 
REMARK    3  A    between atoms: C_3  and  C_12 
REMARK    4  A    between atoms: C_7  and  O_8 
REMARK    5  A    between atoms: C_12  and  C_13 
REMARK       I    between atoms: C_13  and  N_14 
REMARK    6  A    between atoms: N_14  and  C_15 
REMARK    7  A    between atoms: C_22  and  C_23 
REMARK       I    between atoms: C_23  and  N_24 
ROOT
HETATM    1  C   UNL     1      25.891  46.558  52.712  1.00  0.00     0.222 C 
HETATM    2  N   UNL     1      25.996  46.450  51.340  1.00  0.00    -0.327 N 
HETATM    3  O   UNL     1      25.478  47.536  53.330  1.00  0.00    -0.273 OA
HETATM    4  H   UNL     1      26.372  45.589  50.974  1.00  0.00     0.169 HD
ENDROOT
BRANCH   2   5
HETATM    5  C   UNL     1      25.723  47.443  50.372  1.00  0.00     0.035 A 
HETATM    6  C   UNL     1      24.438  47.761  49.915  1.00  0.00     0.046 A 
HETATM    7  C   UNL     1      24.273  48.771  48.941  1.00  0.00     0.030 A 
HETATM    8  C   UNL     1      25.398  49.432  48.464  1.00  0.00     0.063 A 
HETATM    9  C   UNL     1      23.176  49.358  48.240  1.00  0.00     0.156 A 
HETATM   10  N   UNL     1      24.928  50.341  47.558  1.00  0.00    -0.277 N 
HETATM   11  C   UNL     1      26.693  49.144  48.896  1.00  0.00     0.034 A 
HETATM   12  H   UNL     1      25.471  51.001  47.013  1.00  0.00     0.189 HD
HETATM   13  N   UNL     1      23.596  50.325  47.392  1.00  0.00    -0.168 NA
HETATM   14  C   UNL     1      26.830  48.133  49.856  1.00  0.00     0.032 A 
BRANCH   9  15
HETATM   15  C   UNL     1      21.751  49.017  48.355  1.00  0.00     0.270 C 
HETATM   16  N   UNL     1      21.208  49.304  49.578  1.00  0.00    -0.365 N 
HETATM   17  H   UNL     1      21.800  49.716  50.288  1.00  0.00     0.159 HD
HETATM   18  H   UNL     1      20.233  49.111  49.748  1.00  0.00     0.159 HD
HETATM   19  O   UNL     1      21.072  48.527  47.461  1.00  0.00    -0.266 OA
ENDBRANCH   9  15
ENDBRANCH   2   5
BRANCH   1  20
HETATM   20  C   UNL     1      26.259  45.292  53.484  1.00  0.00     0.112 C 
BRANCH  20  21
HETATM   21  C   UNL     1      27.513  44.534  53.008  1.00  0.00     0.027 C 
BRANCH  21  22
HETATM   22  C   UNL     1      27.173  43.154  52.397  1.00  0.00     0.005 C 
HETATM   23  C   UNL     1      27.176  43.069  50.876  1.00  0.00     0.006 C 
ENDBRANCH  21  22
BRANCH  21  24
HETATM   24  C   UNL     1      28.627  44.440  54.039  1.00  0.00    -0.053 A 
HETATM   25  C   UNL     1      29.541  43.381  54.065  1.00  0.00     0.010 A 
HETATM   26  C   UNL     1      30.523  43.314  55.057  1.00  0.00     0.037 A 
HETATM   27  C   UNL     1      30.604  44.293  56.048  1.00  0.00     0.068 A 
HETATM   28  C   UNL     1      29.720  45.367  56.015  1.00  0.00     0.037 A 
HETATM   29  C   UNL     1      28.742  45.442  55.017  1.00  0.00     0.010 A 
BRANCH  27  30
HETATM   30  O   UNL     1      31.594  44.101  56.972  1.00  0.00    -0.356 OA
HETATM   31  C   UNL     1      31.362  44.653  58.263  1.00  0.00     0.210 C 
ENDBRANCH  27  30
ENDBRANCH  21  24
ENDBRANCH  20  21
ENDBRANCH   1  20
TORSDOF 7
ENDMDL
MODEL 2
REMARK VINA RESULT:      -8.7      2.166      3.970
REMARK  7 active torsions:
REMARK  status: ('A' for Active; 'I' for Inactive)
REMARK    1  A    between atoms: C_2  and  C_3 
REMARK    2  A    between atoms: C_3  and  C_4 
REMARK    3  A    between atoms: C_3  and  C_12 
REMARK    4  A    between atoms: C_7  and  O_8 
REMARK    5  A    between atoms: C_12  and  C_13 
REMARK       I    between atoms: C_13  and  N_14 
REMARK    6  A    between atoms: N_14  and  C_15 
REMARK    7  A    between atoms: C_22  and  C_23 
REMARK       I    between atoms: C_23  and  N_24 
ROOT
HETATM    1  C   UNL     1      26.803  46.631  54.135  1.00  0.00     0.222 C 
HETATM    2  N   UNL     1      26.920  46.393  52.780  1.00  0.00    -0.327 N 
HETATM    3  O   UNL     1      25.751  46.739  54.760  1.00  0.00    -0.273 OA
HETATM    4  H   UNL     1      27.854  46.347  52.401  1.00  0.00     0.169 HD
ENDROOT
BRANCH   2   5
HETATM    5  C   UNL     1      25.882  46.294  51.827  1.00  0.00     0.035 A 
HETATM    6  C   UNL     1      25.399  47.375  51.077  1.00  0.00     0.046 A 
HETATM    7  C   UNL     1      24.354  47.170  50.149  1.00  0.00     0.030 A 
HETATM    8  C   UNL     1      23.834  45.891  49.998  1.00  0.00     0.063 A 
HETATM    9  C   UNL     1      23.609  47.981  49.239  1.00  0.00     0.156 A 
HETATM   10  N   UNL     1      22.862  46.004  49.043  1.00  0.00    -0.277 N 
HETATM   11  C   UNL     1      24.289  44.791  50.725  1.00  0.00     0.034 A 
HETATM   12  H   UNL     1      22.273  45.266  48.676  1.00  0.00     0.189 HD
HETATM   13  N   UNL     1      22.695  47.247  48.564  1.00  0.00    -0.168 NA
HETATM   14  C   UNL     1      25.320  45.022  51.645  1.00  0.00     0.032 A 
BRANCH   9  15
HETATM   15  C   UNL     1      23.745  49.425  49.006  1.00  0.00     0.270 C 
HETATM   16  N   UNL     1      24.650  49.748  48.030  1.00  0.00    -0.365 N 
HETATM   17  H   UNL     1      25.139  49.000  47.555  1.00  0.00     0.159 HD
HETATM   18  H   UNL     1      24.805  50.716  47.796  1.00  0.00     0.159 HD
HETATM   19  O   UNL     1      23.121  50.294  49.602  1.00  0.00    -0.266 OA
ENDBRANCH   9  15
ENDBRANCH   2   5
BRANCH   1  20
HETATM   20  C   UNL     1      28.127  46.676  54.894  1.00  0.00     0.112 C 
BRANCH  20  21
HETATM   21  C   UNL     1      28.546  45.388  55.629  1.00  0.00     0.027 C 
BRANCH  21  22
HETATM   22  C   UNL     1      29.810  45.587  56.499  1.00  0.00     0.005 C 
HETATM   23  C   UNL     1      29.575  45.888  57.973  1.00  0.00     0.006 C 
ENDBRANCH  21  22
BRANCH  21  24
HETATM   24  C   UNL     1      28.655  44.159  54.741  1.00  0.00    -0.053 A 
HETATM   25  C   UNL     1      27.564  43.324  54.474  1.00  0.00     0.010 A 
HETATM   26  C   UNL     1      27.720  42.181  53.686  1.00  0.00     0.037 A 
HETATM   27  C   UNL     1      28.967  41.840  53.161  1.00  0.00     0.068 A 
HETATM   28  C   UNL     1      30.054  42.678  53.395  1.00  0.00     0.037 A 
HETATM   29  C   UNL     1      29.898  43.829  54.175  1.00  0.00     0.010 A 
BRANCH  27  30
HETATM   30  O   UNL     1      28.992  40.687  52.427  1.00  0.00    -0.356 OA
HETATM   31  C   UNL     1      28.262  40.705  51.205  1.00  0.00     0.210 C 
ENDBRANCH  27  30
ENDBRANCH  21  24
ENDBRANCH  20  21
ENDBRANCH   1  20
TORSDOF 7
ENDMDL
MODEL 3
REMARK VINA RESULT:      -8.4      4.573      7.867
REMARK  7 active torsions:
REMARK  status: ('A' for Active; 'I' for Inactive)
REMARK    1  A    between atoms: C_2  and  C_3 
REMARK    2  A    between atoms: C_3  and  C_4 
REMARK    3  A    between atoms: C_3  and  C_12 
REMARK    4  A    between atoms: C_7  and  O_8 
REMARK    5  A    between atoms: C_12  and  C_13 
REMARK       I    between atoms: C_13  and  N_14 
REMARK    6  A    between atoms: N_14  and  C_15 
REMARK    7  A    between atoms: C_22  and  C_23 
REMARK       I    between atoms: C_23  and  N_24 
ROOT
HETATM    1  C   UNL     1      27.258  44.094  50.876  1.00  0.00     0.222 C 
HETATM    2  N   UNL     1      27.118  42.800  51.336  1.00  0.00    -0.327 N 
HETATM    3  O   UNL     1      27.307  44.440  49.698  1.00  0.00    -0.273 OA
HETATM    4  H   UNL     1      27.112  42.666  52.336  1.00  0.00     0.169 HD
ENDROOT
BRANCH   2   5
HETATM    5  C   UNL     1      27.073  41.612  50.573  1.00  0.00     0.035 A 
HETATM    6  C   UNL     1      28.076  40.633  50.583  1.00  0.00     0.046 A 
HETATM    7  C   UNL     1      27.935  39.479  49.780  1.00  0.00     0.030 A 
HETATM    8  C   UNL     1      26.793  39.341  49.002  1.00  0.00     0.063 A 
HETATM    9  C   UNL     1      28.706  38.307  49.515  1.00  0.00     0.156 A 
HETATM   10  N   UNL     1      26.936  38.144  48.356  1.00  0.00    -0.277 N 
HETATM   11  C   UNL     1      25.773  40.293  48.966  1.00  0.00     0.034 A 
HETATM   12  H   UNL     1      26.288  37.717  47.705  1.00  0.00     0.189 HD
HETATM   13  N   UNL     1      28.076  37.493  48.637  1.00  0.00    -0.168 NA
HETATM   14  C   UNL     1      25.940  41.431  49.765  1.00  0.00     0.032 A 
BRANCH   9  15
HETATM   15  C   UNL     1      30.019  37.952  50.071  1.00  0.00     0.270 C 
HETATM   16  N   UNL     1      31.077  38.466  49.372  1.00  0.00    -0.365 N 
HETATM   17  H   UNL     1      30.889  39.035  48.555  1.00  0.00     0.159 HD
HETATM   18  H   UNL     1      32.018  38.281  49.683  1.00  0.00     0.159 HD
HETATM   19  O   UNL     1      30.196  37.267  51.071  1.00  0.00    -0.266 OA
ENDBRANCH   9  15
ENDBRANCH   2   5
BRANCH   1  20
HETATM   20  C   UNL     1      27.268  45.163  51.966  1.00  0.00     0.112 C 
BRANCH  20  21
HETATM   21  C   UNL     1      26.965  44.689  53.401  1.00  0.00     0.027 C 
BRANCH  21  22
HETATM   22  C   UNL     1      25.902  45.567  54.103  1.00  0.00     0.005 C 
HETATM   23  C   UNL     1      25.790  47.008  53.620  1.00  0.00     0.006 C 
ENDBRANCH  21  22
BRANCH  21  24
HETATM   24  C   UNL     1      28.193  44.479  54.272  1.00  0.00    -0.053 A 
HETATM   25  C   UNL     1      28.596  45.404  55.241  1.00  0.00     0.010 A 
HETATM   26  C   UNL     1      29.757  45.189  55.989  1.00  0.00     0.037 A 
HETATM   27  C   UNL     1      30.544  44.057  55.778  1.00  0.00     0.068 A 
HETATM   28  C   UNL     1      30.137  43.114  54.837  1.00  0.00     0.037 A 
HETATM   29  C   UNL     1      28.970  43.322  54.094  1.00  0.00     0.010 A 
BRANCH  27  30
HETATM   30  O   UNL     1      31.664  43.975  56.558  1.00  0.00    -0.356 OA
HETATM   31  C   UNL     1      31.504  44.335  57.925  1.00  0.00     0.210 C 
ENDBRANCH  27  30
ENDBRANCH  21  24
ENDBRANCH  20  21
ENDBRANCH   1  20
TORSDOF 7
ENDMDL
MODEL 4
REMARK VINA RESULT:      -8.1      1.945      2.862
REMARK  7 active torsions:
REMARK  status: ('A' for Active; 'I' for Inactive)
REMARK    1  A    between atoms: C_2  and  C_3 
REMARK    2  A    between atoms: C_3  and  C_4 
REMARK    3  A    between atoms: C_3  and  C_12 
REMARK    4  A    between atoms: C_7  and  O_8 
REMARK    5  A    between atoms: C_12  and  C_13 
REMARK       I    between atoms: C_13  and  N_14 
REMARK    6  A    between atoms: N_14  and  C_15 
REMARK    7  A    between atoms: C_22  and  C_23 
REMARK       I    between atoms: C_23  and  N_24 
ROOT
HETATM    1  C   UNL     1      26.571  44.841  51.221  1.00  0.00     0.222 C 
HETATM    2  N   UNL     1      25.221  45.098  51.345  1.00  0.00    -0.327 N 
HETATM    3  O   UNL     1      27.271  45.114  50.249  1.00  0.00    -0.273 OA
HETATM    4  H   UNL     1      24.773  44.800  52.198  1.00  0.00     0.169 HD
ENDROOT
BRANCH   2   5
HETATM    5  C   UNL     1      24.354  45.653  50.377  1.00  0.00     0.035 A 
HETATM    6  C   UNL     1      24.347  47.006  50.013  1.00  0.00     0.046 A 
HETATM    7  C   UNL     1      23.437  47.461  49.032  1.00  0.00     0.030 A 
HETATM    8  C   UNL     1      22.572  46.546  48.445  1.00  0.00     0.063 A 
HETATM    9  C   UNL     1      23.123  48.711  48.419  1.00  0.00     0.156 A 
HETATM   10  N   UNL     1      21.835  47.267  47.548  1.00  0.00    -0.277 N 
HETATM   11  C   UNL     1      22.551  45.192  48.781  1.00  0.00     0.034 A 
HETATM   12  H   UNL     1      21.105  46.923  46.936  1.00  0.00     0.189 HD
HETATM   13  N   UNL     1      22.134  48.576  47.505  1.00  0.00    -0.168 NA
HETATM   14  C   UNL     1      23.457  44.767  49.761  1.00  0.00     0.032 A 
BRANCH   9  15
HETATM   15  C   UNL     1      23.735  50.021  48.685  1.00  0.00     0.270 C 
HETATM   16  N   UNL     1      24.890  50.248  47.987  1.00  0.00    -0.365 N 
HETATM   17  H   UNL     1      25.227  49.528  47.360  1.00  0.00     0.159 HD
HETATM   18  H   UNL     1      25.377  51.123  48.101  1.00  0.00     0.159 HD
HETATM   19  O   UNL     1      23.282  50.865  49.449  1.00  0.00    -0.266 OA
ENDBRANCH   9  15
ENDBRANCH   2   5
BRANCH   1  20
HETATM   20  C   UNL     1      27.225  44.236  52.462  1.00  0.00     0.112 C 
BRANCH  20  21
HETATM   21  C   UNL     1      27.282  45.129  53.717  1.00  0.00     0.027 C 
BRANCH  21  22
HETATM   22  C   UNL     1      27.064  46.625  53.389  1.00  0.00     0.005 C 
HETATM   23  C   UNL     1      25.870  47.296  54.054  1.00  0.00     0.006 C 
ENDBRANCH  21  22
BRANCH  21  24
HETATM   24  C   UNL     1      28.503  44.912  54.595  1.00  0.00    -0.053 A 
HETATM   25  C   UNL     1      29.290  43.756  54.517  1.00  0.00     0.010 A 
HETATM   26  C   UNL     1      30.380  43.580  55.374  1.00  0.00     0.037 A 
HETATM   27  C   UNL     1      30.698  44.543  56.332  1.00  0.00     0.068 A 
HETATM   28  C   UNL     1      29.941  45.710  56.399  1.00  0.00     0.037 A 
HETATM   29  C   UNL     1      28.856  45.894  55.535  1.00  0.00     0.010 A 
BRANCH  27  30
HETATM   30  O   UNL     1      31.772  44.242  57.123  1.00  0.00    -0.356 OA
HETATM   31  C   UNL     1      32.083  42.860  57.260  1.00  0.00     0.210 C 
ENDBRANCH  27  30
ENDBRANCH  21  24
ENDBRANCH  20  21
ENDBRANCH   1  20
TORSDOF 7
ENDMDL
MODEL 5
REMARK VINA RESULT:      -8.1      2.278      2.924
REMARK  7 active torsions:
REMARK  status: ('A' for Active; 'I' for Inactive)
REMARK    1  A    between atoms: C_2  and  C_3 
REMARK    2  A    between atoms: C_3  and  C_4 
REMARK    3  A    between atoms: C_3  and  C_12 
REMARK    4  A    between atoms: C_7  and  O_8 
REMARK    5  A    between atoms: C_12  and  C_13 
REMARK       I    between atoms: C_13  and  N_14 
REMARK    6  A    between atoms: N_14  and  C_15 
REMARK    7  A    between atoms: C_22  and  C_23 
REMARK       I    between atoms: C_23  and  N_24 
ROOT
HETATM    1  C   UNL     1      26.591  44.144  51.562  1.00  0.00     0.222 C 
HETATM    2  N   UNL     1      25.220  44.303  51.579  1.00  0.00    -0.327 N 
HETATM    3  O   UNL     1      27.357  44.576  50.704  1.00  0.00    -0.273 OA
HETATM    4  H   UNL     1      24.717  43.875  52.342  1.00  0.00     0.169 HD
ENDROOT
BRANCH   2   5
HETATM    5  C   UNL     1      24.410  44.921  50.601  1.00  0.00     0.035 A 
HETATM    6  C   UNL     1      24.486  46.279  50.262  1.00  0.00     0.046 A 
HETATM    7  C   UNL     1      23.628  46.800  49.268  1.00  0.00     0.030 A 
HETATM    8  C   UNL     1      22.729  45.945  48.644  1.00  0.00     0.063 A 
HETATM    9  C   UNL     1      23.398  48.077  48.671  1.00  0.00     0.156 A 
HETATM   10  N   UNL     1      22.055  46.721  47.743  1.00  0.00    -0.277 N 
HETATM   11  C   UNL     1      22.625  44.588  48.953  1.00  0.00     0.034 A 
HETATM   12  H   UNL     1      21.322  46.428  47.107  1.00  0.00     0.189 HD
HETATM   13  N   UNL     1      22.427  48.011  47.731  1.00  0.00    -0.168 NA
HETATM   14  C   UNL     1      23.481  44.098  49.947  1.00  0.00     0.032 A 
BRANCH   9  15
HETATM   15  C   UNL     1      24.075  49.345  48.976  1.00  0.00     0.270 C 
HETATM   16  N   UNL     1      23.222  50.400  49.159  1.00  0.00    -0.365 N 
HETATM   17  H   UNL     1      22.225  50.239  49.078  1.00  0.00     0.159 HD
HETATM   18  H   UNL     1      23.595  51.310  49.380  1.00  0.00     0.159 HD
HETATM   19  O   UNL     1      25.287  49.489  49.073  1.00  0.00    -0.266 OA
ENDBRANCH   9  15
ENDBRANCH   2   5
BRANCH   1  20
HETATM   20  C   UNL     1      27.168  43.429  52.783  1.00  0.00     0.112 C 
BRANCH  20  21
HETATM   21  C   UNL     1      28.702  43.446  52.932  1.00  0.00     0.027 C 
BRANCH  21  22
HETATM   22  C   UNL     1      29.325  42.037  52.796  1.00  0.00     0.005 C 
HETATM   23  C   UNL     1      28.349  40.872  52.703  1.00  0.00     0.006 C 
ENDBRANCH  21  22
BRANCH  21  24
HETATM   24  C   UNL     1      29.211  44.177  54.163  1.00  0.00    -0.053 A 
HETATM   25  C   UNL     1      30.338  43.754  54.878  1.00  0.00     0.010 A 
HETATM   26  C   UNL     1      30.745  44.433  56.029  1.00  0.00     0.037 A 
HETATM   27  C   UNL     1      30.032  45.536  56.498  1.00  0.00     0.068 A 
HETATM   28  C   UNL     1      28.927  45.985  55.780  1.00  0.00     0.037 A 
HETATM   29  C   UNL     1      28.523  45.313  54.621  1.00  0.00     0.010 A 
BRANCH  27  30
HETATM   30  O   UNL     1      30.519  46.097  57.646  1.00  0.00    -0.356 OA
HETATM   31  C   UNL     1      30.680  45.220  58.755  1.00  0.00     0.210 C 
ENDBRANCH  27  30
ENDBRANCH  21  24
ENDBRANCH  20  21
ENDBRANCH   1  20
TORSDOF 7
ENDMDL
MODEL 6
REMARK VINA RESULT:      -8.0      2.117      3.416
REMARK  7 active torsions:
REMARK  status: ('A' for Active; 'I' for Inactive)
REMARK    1  A    between atoms: C_2  and  C_3 
REMARK    2  A    between atoms: C_3  and  C_4 
REMARK    3  A    between atoms: C_3  and  C_12 
REMARK    4  A    between atoms: C_7  and  O_8 
REMARK    5  A    between atoms: C_12  and  C_13 
REMARK       I    between atoms: C_13  and  N_14 
REMARK    6  A    between atoms: N_14  and  C_15 
REMARK    7  A    between atoms: C_22  and  C_23 
REMARK       I    between atoms: C_23  and  N_24 
ROOT
HETATM    1  C   UNL     1      25.343  47.444  50.124  1.00  0.00     0.222 C 
HETATM    2  N   UNL     1      24.697  47.862  48.978  1.00  0.00    -0.327 N 
HETATM    3  O   UNL     1      25.070  47.785  51.272  1.00  0.00    -0.273 OA
HETATM    4  H   UNL     1      25.045  47.509  48.099  1.00  0.00     0.169 HD
ENDROOT
BRANCH   2   5
HETATM    5  C   UNL     1      23.651  48.805  48.871  1.00  0.00     0.035 A 
HETATM    6  C   UNL     1      22.382  48.638  49.441  1.00  0.00     0.046 A 
HETATM    7  C   UNL     1      21.402  49.643  49.274  1.00  0.00     0.030 A 
HETATM    8  C   UNL     1      21.729  50.782  48.550  1.00  0.00     0.063 A 
HETATM    9  C   UNL     1      20.045  49.837  49.673  1.00  0.00     0.156 A 
HETATM   10  N   UNL     1      20.605  51.560  48.568  1.00  0.00    -0.277 N 
HETATM   11  C   UNL     1      22.982  50.985  47.969  1.00  0.00     0.034 A 
HETATM   12  H   UNL     1      20.480  52.469  48.139  1.00  0.00     0.189 HD
HETATM   13  N   UNL     1      19.568  51.023  49.232  1.00  0.00    -0.168 NA
HETATM   14  C   UNL     1      23.932  49.971  48.142  1.00  0.00     0.032 A 
BRANCH   9  15
HETATM   15  C   UNL     1      19.200  48.923  50.454  1.00  0.00     0.270 C 
HETATM   16  N   UNL     1      19.111  47.662  49.930  1.00  0.00    -0.365 N 
HETATM   17  H   UNL     1      19.616  47.454  49.076  1.00  0.00     0.159 HD
HETATM   18  H   UNL     1      18.558  46.964  50.402  1.00  0.00     0.159 HD
HETATM   19  O   UNL     1      18.617  49.219  51.490  1.00  0.00    -0.266 OA
ENDBRANCH   9  15
ENDBRANCH   2   5
BRANCH   1  20
HETATM   20  C   UNL     1      26.436  46.401  49.898  1.00  0.00     0.112 C 
BRANCH  20  21
HETATM   21  C   UNL     1      26.200  45.009  50.515  1.00  0.00     0.027 C 
BRANCH  21  22
HETATM   22  C   UNL     1      24.699  44.704  50.730  1.00  0.00     0.005 C 
HETATM   23  C   UNL     1      24.344  43.261  51.064  1.00  0.00     0.006 C 
ENDBRANCH  21  22
BRANCH  21  24
HETATM   24  C   UNL     1      27.024  44.718  51.759  1.00  0.00    -0.053 A 
HETATM   25  C   UNL     1      26.790  45.356  52.982  1.00  0.00     0.010 A 
HETATM   26  C   UNL     1      27.600  45.088  54.089  1.00  0.00     0.037 A 
HETATM   27  C   UNL     1      28.665  44.193  53.995  1.00  0.00     0.068 A 
HETATM   28  C   UNL     1      28.890  43.529  52.791  1.00  0.00     0.037 A 
HETATM   29  C   UNL     1      28.074  43.788  51.685  1.00  0.00     0.010 A 
BRANCH  27  30
HETATM   30  O   UNL     1      29.394  44.035  55.141  1.00  0.00    -0.356 OA
HETATM   31  C   UNL     1      29.703  45.225  55.857  1.00  0.00     0.210 C 
ENDBRANCH  27  30
ENDBRANCH  21  24
ENDBRANCH  20  21
ENDBRANCH   1  20
TORSDOF 7
ENDMDL
MODEL 7
REMARK VINA RESULT:      -7.9      3.439      8.980
REMARK  7 active torsions:
REMARK  status: ('A' for Active; 'I' for Inactive)
REMARK    1  A    between atoms: C_2  and  C_3 
REMARK    2  A    between atoms: C_3  and  C_4 
REMARK    3  A    between atoms: C_3  and  C_12 
REMARK    4  A    between atoms: C_7  and  O_8 
REMARK    5  A    between atoms: C_12  and  C_13 
REMARK       I    between atoms: C_13  and  N_14 
REMARK    6  A    between atoms: N_14  and  C_15 
REMARK    7  A    between atoms: C_22  and  C_23 
REMARK       I    between atoms: C_23  and  N_24 
ROOT
HETATM    1  C   UNL     1      26.719  44.181  50.355  1.00  0.00     0.222 C 
HETATM    2  N   UNL     1      26.805  43.473  51.537  1.00  0.00    -0.327 N 
HETATM    3  O   UNL     1      27.577  44.931  49.898  1.00  0.00    -0.273 OA
HETATM    4  H   UNL     1      26.010  42.908  51.793  1.00  0.00     0.169 HD
ENDROOT
BRANCH   2   5
HETATM    5  C   UNL     1      27.846  43.510  52.492  1.00  0.00     0.035 A 
HETATM    6  C   UNL     1      27.881  44.392  53.580  1.00  0.00     0.046 A 
HETATM    7  C   UNL     1      28.970  44.350  54.479  1.00  0.00     0.030 A 
HETATM    8  C   UNL     1      29.981  43.422  54.263  1.00  0.00     0.063 A 
HETATM    9  C   UNL     1      29.365  45.057  55.655  1.00  0.00     0.156 A 
HETATM   10  N   UNL     1      30.873  43.613  55.281  1.00  0.00    -0.277 N 
HETATM   11  C   UNL     1      29.980  42.528  53.192  1.00  0.00     0.034 A 
HETATM   12  H   UNL     1      31.736  43.107  55.444  1.00  0.00     0.189 HD
HETATM   13  N   UNL     1      30.539  44.590  56.138  1.00  0.00    -0.168 NA
HETATM   14  C   UNL     1      28.894  42.596  52.311  1.00  0.00     0.032 A 
BRANCH   9  15
HETATM   15  C   UNL     1      28.656  46.161  56.319  1.00  0.00     0.270 C 
HETATM   16  N   UNL     1      28.119  47.077  55.455  1.00  0.00    -0.365 N 
HETATM   17  H   UNL     1      28.239  46.934  54.459  1.00  0.00     0.159 HD
HETATM   18  H   UNL     1      27.608  47.865  55.819  1.00  0.00     0.159 HD
HETATM   19  O   UNL     1      28.529  46.285  57.530  1.00  0.00    -0.266 OA
ENDBRANCH   9  15
ENDBRANCH   2   5
BRANCH   1  20
HETATM   20  C   UNL     1      25.456  43.911  49.538  1.00  0.00     0.112 C 
BRANCH  20  21
HETATM   21  C   UNL     1      24.136  44.470  50.103  1.00  0.00     0.027 C 
BRANCH  21  22
HETATM   22  C   UNL     1      23.005  43.414  50.118  1.00  0.00     0.005 C 
HETATM   23  C   UNL     1      23.166  42.238  49.164  1.00  0.00     0.006 C 
ENDBRANCH  21  22
BRANCH  21  24
HETATM   24  C   UNL     1      23.683  45.779  49.479  1.00  0.00    -0.053 A 
HETATM   25  C   UNL     1      22.680  45.841  48.504  1.00  0.00     0.010 A 
HETATM   26  C   UNL     1      22.325  47.064  47.927  1.00  0.00     0.037 A 
HETATM   27  C   UNL     1      22.970  48.243  48.299  1.00  0.00     0.068 A 
HETATM   28  C   UNL     1      23.948  48.199  49.289  1.00  0.00     0.037 A 
HETATM   29  C   UNL     1      24.298  46.978  49.876  1.00  0.00     0.010 A 
BRANCH  27  30
HETATM   30  O   UNL     1      22.547  49.367  47.645  1.00  0.00    -0.356 OA
HETATM   31  C   UNL     1      23.293  50.554  47.889  1.00  0.00     0.210 C 
ENDBRANCH  27  30
ENDBRANCH  21  24
ENDBRANCH  20  21
ENDBRANCH   1  20
TORSDOF 7
ENDMDL
MODEL 8
REMARK VINA RESULT:      -7.8      4.766      8.214
REMARK  7 active torsions:
REMARK  status: ('A' for Active; 'I' for Inactive)
REMARK    1  A    between atoms: C_2  and  C_3 
REMARK    2  A    between atoms: C_3  and  C_4 
REMARK    3  A    between atoms: C_3  and  C_12 
REMARK    4  A    between atoms: C_7  and  O_8 
REMARK    5  A    between atoms: C_12  and  C_13 
REMARK       I    between atoms: C_13  and  N_14 
REMARK    6  A    between atoms: N_14  and  C_15 
REMARK    7  A    between atoms: C_22  and  C_23 
REMARK       I    between atoms: C_23  and  N_24 
ROOT
HETATM    1  C   UNL     1      30.138  42.867  54.034  1.00  0.00     0.222 C 
HETATM    2  N   UNL     1      29.043  42.056  53.810  1.00  0.00    -0.327 N 
HETATM    3  O   UNL     1      30.815  43.421  53.172  1.00  0.00    -0.273 OA
HETATM    4  H   UNL     1      28.595  41.654  54.619  1.00  0.00     0.169 HD
ENDROOT
BRANCH   2   5
HETATM    5  C   UNL     1      28.518  41.639  52.566  1.00  0.00     0.035 A 
HETATM    6  C   UNL     1      28.813  40.410  51.962  1.00  0.00     0.046 A 
HETATM    7  C   UNL     1      28.236  40.088  50.713  1.00  0.00     0.030 A 
HETATM    8  C   UNL     1      27.378  41.004  50.117  1.00  0.00     0.063 A 
HETATM    9  C   UNL     1      28.291  38.989  49.804  1.00  0.00     0.156 A 
HETATM   10  N   UNL     1      26.979  40.419  48.947  1.00  0.00    -0.277 N 
HETATM   11  C   UNL     1      27.059  42.236  50.688  1.00  0.00     0.034 A 
HETATM   12  H   UNL     1      26.347  40.802  48.254  1.00  0.00     0.189 HD
HETATM   13  N   UNL     1      27.510  39.207  48.721  1.00  0.00    -0.168 NA
HETATM   14  C   UNL     1      27.651  42.534  51.922  1.00  0.00     0.032 A 
BRANCH   9  15
HETATM   15  C   UNL     1      29.068  37.749  49.942  1.00  0.00     0.270 C 
HETATM   16  N   UNL     1      28.328  36.670  50.344  1.00  0.00    -0.365 N 
HETATM   17  H   UNL     1      27.337  36.796  50.509  1.00  0.00     0.159 HD
HETATM   18  H   UNL     1      28.775  35.774  50.459  1.00  0.00     0.159 HD
HETATM   19  O   UNL     1      30.268  37.644  49.719  1.00  0.00    -0.266 OA
ENDBRANCH   9  15
ENDBRANCH   2   5
BRANCH   1  20
HETATM   20  C   UNL     1      30.445  43.134  55.507  1.00  0.00     0.112 C 
BRANCH  20  21
HETATM   21  C   UNL     1      30.328  44.595  55.983  1.00  0.00     0.027 C 
BRANCH  21  22
HETATM   22  C   UNL     1      30.529  44.737  57.511  1.00  0.00     0.005 C 
HETATM   23  C   UNL     1      30.513  46.155  58.065  1.00  0.00     0.006 C 
ENDBRANCH  21  22
BRANCH  21  24
HETATM   24  C   UNL     1      29.081  45.320  55.504  1.00  0.00    -0.053 A 
HETATM   25  C   UNL     1      27.866  44.661  55.280  1.00  0.00     0.010 A 
HETATM   26  C   UNL     1      26.757  45.361  54.799  1.00  0.00     0.037 A 
HETATM   27  C   UNL     1      26.839  46.725  54.519  1.00  0.00     0.068 A 
HETATM   28  C   UNL     1      28.033  47.398  54.766  1.00  0.00     0.037 A 
HETATM   29  C   UNL     1      29.142  46.701  55.258  1.00  0.00     0.010 A 
BRANCH  27  30
HETATM   30  O   UNL     1      25.691  47.288  54.033  1.00  0.00    -0.356 OA
HETATM   31  C   UNL     1      25.399  47.034  52.663  1.00  0.00     0.210 C 
ENDBRANCH  27  30
ENDBRANCH  21  24
ENDBRANCH  20  21
ENDBRANCH   1  20
TORSDOF 7
ENDMDL
MODEL 9
REMARK VINA RESULT:      -7.7      3.140      9.501
REMARK  7 active torsions:
REMARK  status: ('A' for Active; 'I' for Inactive)
REMARK    1  A    between atoms: C_2  and  C_3 
REMARK    2  A    between atoms: C_3  and  C_4 
REMARK    3  A    between atoms: C_3  and  C_12 
REMARK    4  A    between atoms: C_7  and  O_8 
REMARK    5  A    between atoms: C_12  and  C_13 
REMARK       I    between atoms: C_13  and  N_14 
REMARK    6  A    between atoms: N_14  and  C_15 
REMARK    7  A    between atoms: C_22  and  C_23 
REMARK       I    between atoms: C_23  and  N_24 
ROOT
HETATM    1  C   UNL     1      25.527  47.736  49.815  1.00  0.00     0.222 C 
HETATM    2  N   UNL     1      25.102  47.256  51.037  1.00  0.00    -0.327 N 
HETATM    3  O   UNL     1      26.629  47.544  49.307  1.00  0.00    -0.273 OA
HETATM    4  H   UNL     1      24.173  47.513  51.333  1.00  0.00     0.169 HD
ENDROOT
BRANCH   2   5
HETATM    5  C   UNL     1      25.848  46.515  51.981  1.00  0.00     0.035 A 
HETATM    6  C   UNL     1      26.235  45.181  51.801  1.00  0.00     0.046 A 
HETATM    7  C   UNL     1      26.980  44.528  52.809  1.00  0.00     0.030 A 
HETATM    8  C   UNL     1      27.316  45.234  53.957  1.00  0.00     0.063 A 
HETATM    9  C   UNL     1      27.533  43.226  53.002  1.00  0.00     0.156 A 
HETATM   10  N   UNL     1      28.028  44.357  54.727  1.00  0.00    -0.277 N 
HETATM   11  C   UNL     1      26.949  46.563  54.171  1.00  0.00     0.034 A 
HETATM   12  H   UNL     1      28.437  44.532  55.638  1.00  0.00     0.189 HD
HETATM   13  N   UNL     1      28.178  43.137  54.188  1.00  0.00    -0.168 NA
HETATM   14  C   UNL     1      26.205  47.185  53.161  1.00  0.00     0.032 A 
BRANCH   9  15
HETATM   15  C   UNL     1      27.458  42.074  52.092  1.00  0.00     0.270 C 
HETATM   16  N   UNL     1      27.312  40.871  52.728  1.00  0.00    -0.365 N 
HETATM   17  H   UNL     1      27.265  40.859  53.739  1.00  0.00     0.159 HD
HETATM   18  H   UNL     1      27.244  40.025  52.184  1.00  0.00     0.159 HD
HETATM   19  O   UNL     1      27.509  42.141  50.870  1.00  0.00    -0.266 OA
ENDBRANCH   9  15
ENDBRANCH   2   5
BRANCH   1  20
HETATM   20  C   UNL     1      24.469  48.503  49.025  1.00  0.00     0.112 C 
BRANCH  20  21
HETATM   21  C   UNL     1      23.012  48.023  49.175  1.00  0.00     0.027 C 
BRANCH  21  22
HETATM   22  C   UNL     1      22.684  46.830  48.246  1.00  0.00     0.005 C 
HETATM   23  C   UNL     1      22.787  45.442  48.864  1.00  0.00     0.006 C 
ENDBRANCH  21  22
BRANCH  21  24
HETATM   24  C   UNL     1      21.968  49.123  49.079  1.00  0.00    -0.053 A 
HETATM   25  C   UNL     1      20.614  48.902  49.357  1.00  0.00     0.010 A 
HETATM   26  C   UNL     1      19.682  49.934  49.214  1.00  0.00     0.037 A 
HETATM   27  C   UNL     1      20.078  51.199  48.779  1.00  0.00     0.068 A 
HETATM   28  C   UNL     1      21.426  51.439  48.528  1.00  0.00     0.037 A 
HETATM   29  C   UNL     1      22.363  50.411  48.681  1.00  0.00     0.010 A 
BRANCH  27  30
HETATM   30  O   UNL     1      19.068  52.113  48.659  1.00  0.00    -0.356 OA
HETATM   31  C   UNL     1      18.181  52.218  49.767  1.00  0.00     0.210 C 
ENDBRANCH  27  30
ENDBRANCH  21  24
ENDBRANCH  20  21
ENDBRANCH   1  20
TORSDOF 7
ENDMDL
MODEL 10
REMARK VINA RESULT:      -7.7      4.961      9.698
REMARK  7 active torsions:
REMARK  status: ('A' for Active; 'I' for Inactive)
REMARK    1  A    between atoms: C_2  and  C_3 
REMARK    2  A    between atoms: C_3  and  C_4 
REMARK    3  A    between atoms: C_3  and  C_12 
REMARK    4  A    between atoms: C_7  and  O_8 
REMARK    5  A    between atoms: C_12  and  C_13 
REMARK       I    between atoms: C_13  and  N_14 
REMARK    6  A    between atoms: N_14  and  C_15 
REMARK    7  A    between atoms: C_22  and  C_23 
REMARK       I    between atoms: C_23  and  N_24 
ROOT
HETATM    1  C   UNL     1      22.967  49.334  48.825  1.00  0.00     0.222 C 
HETATM    2  N   UNL     1      23.247  48.395  49.797  1.00  0.00    -0.327 N 
HETATM    3  O   UNL     1      23.330  49.289  47.652  1.00  0.00    -0.273 OA
HETATM    4  H   UNL     1      22.895  48.576  50.725  1.00  0.00     0.169 HD
ENDROOT
BRANCH   2   5
HETATM    5  C   UNL     1      24.052  47.240  49.677  1.00  0.00     0.035 A 
HETATM    6  C   UNL     1      23.573  45.990  49.264  1.00  0.00     0.046 A 
HETATM    7  C   UNL     1      24.462  44.895  49.178  1.00  0.00     0.030 A 
HETATM    8  C   UNL     1      25.798  45.091  49.501  1.00  0.00     0.063 A 
HETATM    9  C   UNL     1      24.367  43.515  48.823  1.00  0.00     0.156 A 
HETATM   10  N   UNL     1      26.398  43.876  49.317  1.00  0.00    -0.277 N 
HETATM   11  C   UNL     1      26.312  46.320  49.915  1.00  0.00     0.034 A 
HETATM   12  H   UNL     1      27.375  43.647  49.456  1.00  0.00     0.189 HD
HETATM   13  N   UNL     1      25.569  42.901  48.912  1.00  0.00    -0.168 NA
HETATM   14  C   UNL     1      25.409  47.387  49.999  1.00  0.00     0.032 A 
BRANCH   9  15
HETATM   15  C   UNL     1      23.166  42.775  48.410  1.00  0.00     0.270 C 
HETATM   16  N   UNL     1      22.807  42.980  47.105  1.00  0.00    -0.365 N 
HETATM   17  H   UNL     1      23.374  43.599  46.538  1.00  0.00     0.159 HD
HETATM   18  H   UNL     1      22.000  42.508  46.730  1.00  0.00     0.159 HD
HETATM   19  O   UNL     1      22.519  42.027  49.133  1.00  0.00    -0.266 OA
ENDBRANCH   9  15
ENDBRANCH   2   5
BRANCH   1  20
HETATM   20  C   UNL     1      22.054  50.472  49.277  1.00  0.00     0.112 C 
BRANCH  20  21
HETATM   21  C   UNL     1      20.728  50.640  48.509  1.00  0.00     0.027 C 
BRANCH  21  22
HETATM   22  C   UNL     1      19.905  51.852  49.007  1.00  0.00     0.005 C 
HETATM   23  C   UNL     1      18.788  52.333  48.090  1.00  0.00     0.006 C 
ENDBRANCH  21  22
BRANCH  21  24
HETATM   24  C   UNL     1      19.885  49.379  48.416  1.00  0.00    -0.053 A 
HETATM   25  C   UNL     1      19.711  48.676  47.218  1.00  0.00     0.010 A 
HETATM   26  C   UNL     1      18.892  47.545  47.171  1.00  0.00     0.037 A 
HETATM   27  C   UNL     1      18.220  47.101  48.310  1.00  0.00     0.068 A 
HETATM   28  C   UNL     1      18.408  47.774  49.514  1.00  0.00     0.037 A 
HETATM   29  C   UNL     1      19.236  48.901  49.567  1.00  0.00     0.010 A 
BRANCH  27  30
HETATM   30  O   UNL     1      17.433  45.998  48.127  1.00  0.00    -0.356 OA
HETATM   31  C   UNL     1      17.614  45.294  46.904  1.00  0.00     0.210 C 
ENDBRANCH  27  30
ENDBRANCH  21  24
ENDBRANCH  20  21
ENDBRANCH   1  20
TORSDOF 7
ENDMDL
