MODEL 1
REMARK VINA RESULT:      -9.6      0.000      0.000
REMARK  8 active torsions:
REMARK  status: ('A' for Active; 'I' for Inactive)
REMARK    1  A    between atoms: O_2  and  C_3 
REMARK    2  A    between atoms: C_5  and  C_6 
REMARK    3  A    between atoms: C_6  and  N_7 
REMARK    4  A    between atoms: C_16  and  C_17 
REMARK    5  A    between atoms: C_17  and  N_18 
REMARK    6  A    between atoms: C_22  and  O_23 
REMARK    7  A    between atoms: C_22  and  C_24 
REMARK    8  A    between atoms: C_34  and  O_35 
ROOT
HETATM    1  N   UNL     1      27.582  43.393  54.151  1.00  0.00    -0.061 N 
HETATM    2  H   UNL     1      27.402  43.192  55.141  1.00  0.00     0.280 HD
HETATM    3  C   UNL     1      26.231  43.755  53.580  1.00  0.00     0.276 C 
HETATM    4  C   UNL     1      26.256  44.312  52.188  1.00  0.00     0.002 A 
HETATM    5  C   UNL     1      26.697  43.519  51.131  1.00  0.00     0.076 A 
HETATM    6  O   UNL     1      27.059  42.218  51.341  1.00  0.00    -0.349 OA
HETATM    7  C   UNL     1      28.305  42.116  52.043  1.00  0.00     0.203 C 
HETATM    8  C   UNL     1      28.111  42.083  53.569  1.00  0.00     0.262 C 
HETATM    9  C   UNL     1      25.828  45.626  51.918  1.00  0.00     0.020 A 
HETATM   10  C   UNL     1      25.860  46.150  50.613  1.00  0.00    -0.032 A 
HETATM   11  C   UNL     1      26.309  45.323  49.573  1.00  0.00     0.011 A 
HETATM   12  C   UNL     1      26.706  44.007  49.828  1.00  0.00     0.038 A 
ENDROOT
BRANCH  10  13
HETATM   13  C   UNL     1      25.427  47.573  50.345  1.00  0.00     0.273 C 
BRANCH  13  14
HETATM   14  N   UNL     1      24.409  47.774  49.236  1.00  0.00    -0.067 N 
HETATM   15  H   UNL     1      24.926  47.560  48.372  1.00  0.00     0.280 HD
HETATM   16  C   UNL     1      23.272  46.784  49.286  1.00  0.00     0.238 C 
HETATM   17  C   UNL     1      22.379  46.956  48.064  1.00  0.00     0.071 C 
HETATM   18  C   UNL     1      21.839  48.394  47.915  1.00  0.00     0.089 C 
HETATM   19  C   UNL     1      23.068  49.328  47.862  1.00  0.00     0.071 C 
HETATM   20  C   UNL     1      23.932  49.198  49.104  1.00  0.00     0.238 C 
BRANCH  18  21
HETATM   21  O   UNL     1      21.235  48.460  46.622  1.00  0.00    -0.385 OA
HETATM   22  H   UNL     1      20.282  48.659  46.704  1.00  0.00     0.211 HD
ENDBRANCH  18  21
BRANCH  18  23
HETATM   23  C   UNL     1      20.805  48.830  48.947  1.00  0.00    -0.006 A 
HETATM   24  C   UNL     1      19.824  47.978  49.454  1.00  0.00     0.126 A 
HETATM   25  N   UNL     1      18.934  48.311  50.414  1.00  0.00    -0.272 NA
HETATM   26  C   UNL     1      18.946  49.584  50.853  1.00  0.00     0.116 A 
HETATM   27  C   UNL     1      19.830  50.535  50.382  1.00  0.00     0.020 A 
HETATM   28  C   UNL     1      20.763  50.151  49.420  1.00  0.00     0.013 A 
ENDBRANCH  18  23
ENDBRANCH  13  14
ENDBRANCH  10  13
BRANCH   1  29
HETATM   29  C   UNL     1      28.646  44.486  54.165  1.00  0.00     0.276 C 
BRANCH  29  30
HETATM   30  C   UNL     1      29.100  44.987  55.514  1.00  0.00     0.004 A 
HETATM   31  C   UNL     1      30.244  44.453  56.131  1.00  0.00     0.048 A 
HETATM   32  C   UNL     1      30.648  44.879  57.399  1.00  0.00     0.069 A 
HETATM   33  C   UNL     1      29.941  45.892  58.038  1.00  0.00     0.039 A 
HETATM   34  C   UNL     1      28.828  46.472  57.417  1.00  0.00     0.040 A 
HETATM   35  C   UNL     1      28.403  46.026  56.164  1.00  0.00     0.076 A 
BRANCH  32  36
HETATM   36  O   UNL     1      31.727  44.209  57.901  1.00  0.00    -0.356 OA
HETATM   37  C   UNL     1      32.156  43.048  57.195  1.00  0.00     0.210 C 
ENDBRANCH  32  36
BRANCH  35  38
HETATM   38  O   UNL     1      27.298  46.506  55.512  1.00  0.00    -0.355 OA
HETATM   39  C   UNL     1      27.308  47.880  55.126  1.00  0.00     0.210 C 
ENDBRANCH  35  38
ENDBRANCH  29  30
ENDBRANCH   1  29
TORSDOF 8
ENDMDL
MODEL 2
REMARK VINA RESULT:      -9.2      2.412      5.418
REMARK  8 active torsions:
REMARK  status: ('A' for Active; 'I' for Inactive)
REMARK    1  A    between atoms: O_2  and  C_3 
REMARK    2  A    between atoms: C_5  and  C_6 
REMARK    3  A    between atoms: C_6  and  N_7 
REMARK    4  A    between atoms: C_16  and  C_17 
REMARK    5  A    between atoms: C_17  and  N_18 
REMARK    6  A    between atoms: C_22  and  O_23 
REMARK    7  A    between atoms: C_22  and  C_24 
REMARK    8  A    between atoms: C_34  and  O_35 
ROOT
HETATM    1  N   UNL     1      25.302  46.650  50.251  1.00  0.00    -0.061 N 
HETATM    2  H   UNL     1      25.330  45.627  50.330  1.00  0.00     0.280 HD
HETATM    3  C   UNL     1      24.185  46.929  49.273  1.00  0.00     0.276 C 
HETATM    4  C   UNL     1      23.788  48.370  49.153  1.00  0.00     0.002 A 
HETATM    5  C   UNL     1      24.700  49.302  48.663  1.00  0.00     0.076 A 
HETATM    6  O   UNL     1      25.938  48.909  48.239  1.00  0.00    -0.349 OA
HETATM    7  C   UNL     1      26.784  48.537  49.335  1.00  0.00     0.203 C 
HETATM    8  C   UNL     1      26.664  47.043  49.680  1.00  0.00     0.262 C 
HETATM    9  C   UNL     1      22.500  48.807  49.515  1.00  0.00     0.020 A 
HETATM   10  C   UNL     1      22.132  50.161  49.410  1.00  0.00    -0.032 A 
HETATM   11  C   UNL     1      23.074  51.071  48.911  1.00  0.00     0.011 A 
HETATM   12  C   UNL     1      24.345  50.640  48.520  1.00  0.00     0.038 A 
ENDROOT
BRANCH  10  13
HETATM   13  C   UNL     1      20.755  50.619  49.834  1.00  0.00     0.273 C 
BRANCH  13  14
HETATM   14  N   UNL     1      19.581  50.033  49.067  1.00  0.00    -0.067 N 
HETATM   15  H   UNL     1      18.862  50.770  49.101  1.00  0.00     0.280 HD
HETATM   16  C   UNL     1      19.874  49.816  47.604  1.00  0.00     0.238 C 
HETATM   17  C   UNL     1      18.610  49.370  46.881  1.00  0.00     0.071 C 
HETATM   18  C   UNL     1      17.980  48.105  47.502  1.00  0.00     0.089 C 
HETATM   19  C   UNL     1      17.708  48.426  48.987  1.00  0.00     0.071 C 
HETATM   20  C   UNL     1      18.976  48.819  49.724  1.00  0.00     0.238 C 
BRANCH  18  21
HETATM   21  O   UNL     1      16.700  47.955  46.887  1.00  0.00    -0.385 OA
HETATM   22  H   UNL     1      16.002  47.905  47.568  1.00  0.00     0.211 HD
ENDBRANCH  18  21
BRANCH  18  23
HETATM   23  C   UNL     1      18.757  46.808  47.306  1.00  0.00    -0.006 A 
HETATM   24  C   UNL     1      18.414  45.608  47.929  1.00  0.00     0.126 A 
HETATM   25  N   UNL     1      19.039  44.429  47.729  1.00  0.00    -0.272 NA
HETATM   26  C   UNL     1      20.124  44.431  46.931  1.00  0.00     0.116 A 
HETATM   27  C   UNL     1      20.597  45.569  46.308  1.00  0.00     0.020 A 
HETATM   28  C   UNL     1      19.907  46.765  46.501  1.00  0.00     0.013 A 
ENDBRANCH  18  23
ENDBRANCH  13  14
ENDBRANCH  10  13
BRANCH   1  29
HETATM   29  C   UNL     1      25.114  47.145  51.681  1.00  0.00     0.276 C 
BRANCH  29  30
HETATM   30  C   UNL     1      25.730  46.317  52.782  1.00  0.00     0.004 A 
HETATM   31  C   UNL     1      26.667  46.879  53.665  1.00  0.00     0.048 A 
HETATM   32  C   UNL     1      27.276  46.110  54.661  1.00  0.00     0.069 A 
HETATM   33  C   UNL     1      26.906  44.779  54.819  1.00  0.00     0.039 A 
HETATM   34  C   UNL     1      25.938  44.215  53.981  1.00  0.00     0.040 A 
HETATM   35  C   UNL     1      25.350  44.972  52.965  1.00  0.00     0.076 A 
BRANCH  32  36
HETATM   36  O   UNL     1      28.225  46.775  55.384  1.00  0.00    -0.356 OA
HETATM   37  C   UNL     1      28.813  46.078  56.479  1.00  0.00     0.210 C 
ENDBRANCH  32  36
BRANCH  35  38
HETATM   38  O   UNL     1      24.433  44.481  52.074  1.00  0.00    -0.355 OA
HETATM   39  C   UNL     1      24.785  43.303  51.350  1.00  0.00     0.210 C 
ENDBRANCH  35  38
ENDBRANCH  29  30
ENDBRANCH   1  29
TORSDOF 8
ENDMDL
MODEL 3
REMARK VINA RESULT:      -9.1      3.086      5.733
REMARK  8 active torsions:
REMARK  status: ('A' for Active; 'I' for Inactive)
REMARK    1  A    between atoms: O_2  and  C_3 
REMARK    2  A    between atoms: C_5  and  C_6 
REMARK    3  A    between atoms: C_6  and  N_7 
REMARK    4  A    between atoms: C_16  and  C_17 
REMARK    5  A    between atoms: C_17  and  N_18 
REMARK    6  A    between atoms: C_22  and  O_23 
REMARK    7  A    between atoms: C_22  and  C_24 
REMARK    8  A    between atoms: C_34  and  O_35 
ROOT
HETATM    1  N   UNL     1      25.290  46.695  50.166  1.00  0.00    -0.061 N 
HETATM    2  H   UNL     1      25.327  45.673  50.247  1.00  0.00     0.280 HD
HETATM    3  C   UNL     1      24.175  46.964  49.182  1.00  0.00     0.276 C 
HETATM    4  C   UNL     1      23.766  48.401  49.058  1.00  0.00     0.002 A 
HETATM    5  C   UNL     1      24.673  49.340  48.572  1.00  0.00     0.076 A 
HETATM    6  O   UNL     1      25.916  48.957  48.155  1.00  0.00    -0.349 OA
HETATM    7  C   UNL     1      26.760  48.594  49.257  1.00  0.00     0.203 C 
HETATM    8  C   UNL     1      26.652  47.100  49.603  1.00  0.00     0.262 C 
HETATM    9  C   UNL     1      22.472  48.827  49.413  1.00  0.00     0.020 A 
HETATM   10  C   UNL     1      22.093  50.177  49.304  1.00  0.00    -0.032 A 
HETATM   11  C   UNL     1      23.030  51.095  48.809  1.00  0.00     0.011 A 
HETATM   12  C   UNL     1      24.307  50.675  48.425  1.00  0.00     0.038 A 
ENDROOT
BRANCH  10  13
HETATM   13  C   UNL     1      20.709  50.623  49.719  1.00  0.00     0.273 C 
BRANCH  13  14
HETATM   14  N   UNL     1      19.557  50.158  48.845  1.00  0.00    -0.067 N 
HETATM   15  H   UNL     1      19.902  49.291  48.409  1.00  0.00     0.280 HD
HETATM   16  C   UNL     1      18.335  49.758  49.634  1.00  0.00     0.238 C 
HETATM   17  C   UNL     1      17.285  49.167  48.702  1.00  0.00     0.071 C 
HETATM   18  C   UNL     1      16.900  50.123  47.552  1.00  0.00     0.089 C 
HETATM   19  C   UNL     1      18.205  50.464  46.801  1.00  0.00     0.071 C 
HETATM   20  C   UNL     1      19.235  51.103  47.716  1.00  0.00     0.238 C 
BRANCH  18  21
HETATM   21  O   UNL     1      16.110  49.353  46.644  1.00  0.00    -0.385 OA
HETATM   22  H   UNL     1      16.675  48.971  45.945  1.00  0.00     0.211 HD
ENDBRANCH  18  21
BRANCH  18  23
HETATM   23  C   UNL     1      16.101  51.359  47.950  1.00  0.00    -0.006 A 
HETATM   24  C   UNL     1      15.648  52.305  47.032  1.00  0.00     0.126 A 
HETATM   25  N   UNL     1      14.885  53.375  47.341  1.00  0.00    -0.272 NA
HETATM   26  C   UNL     1      14.612  53.585  48.643  1.00  0.00     0.116 A 
HETATM   27  C   UNL     1      15.058  52.752  49.649  1.00  0.00     0.020 A 
HETATM   28  C   UNL     1      15.810  51.633  49.296  1.00  0.00     0.013 A 
ENDBRANCH  18  23
ENDBRANCH  13  14
ENDBRANCH  10  13
BRANCH   1  29
HETATM   29  C   UNL     1      25.089  47.190  51.595  1.00  0.00     0.276 C 
BRANCH  29  30
HETATM   30  C   UNL     1      25.669  46.346  52.703  1.00  0.00     0.004 A 
HETATM   31  C   UNL     1      26.557  46.900  53.639  1.00  0.00     0.048 A 
HETATM   32  C   UNL     1      27.133  46.116  54.643  1.00  0.00     0.069 A 
HETATM   33  C   UNL     1      26.775  44.777  54.755  1.00  0.00     0.039 A 
HETATM   34  C   UNL     1      25.853  44.219  53.863  1.00  0.00     0.040 A 
HETATM   35  C   UNL     1      25.299  44.992  52.839  1.00  0.00     0.076 A 
BRANCH  32  36
HETATM   36  O   UNL     1      28.040  46.776  55.422  1.00  0.00    -0.356 OA
HETATM   37  C   UNL     1      29.166  46.033  55.880  1.00  0.00     0.210 C 
ENDBRANCH  32  36
BRANCH  35  38
HETATM   38  O   UNL     1      24.429  44.509  51.898  1.00  0.00    -0.355 OA
HETATM   39  C   UNL     1      24.790  43.304  51.226  1.00  0.00     0.210 C 
ENDBRANCH  35  38
ENDBRANCH  29  30
ENDBRANCH   1  29
TORSDOF 8
ENDMDL
MODEL 4
REMARK VINA RESULT:      -9.0      0.867      2.408
REMARK  8 active torsions:
REMARK  status: ('A' for Active; 'I' for Inactive)
REMARK    1  A    between atoms: O_2  and  C_3 
REMARK    2  A    between atoms: C_5  and  C_6 
REMARK    3  A    between atoms: C_6  and  N_7 
REMARK    4  A    between atoms: C_16  and  C_17 
REMARK    5  A    between atoms: C_17  and  N_18 
REMARK    6  A    between atoms: C_22  and  O_23 
REMARK    7  A    between atoms: C_22  and  C_24 
REMARK    8  A    between atoms: C_34  and  O_35 
ROOT
HETATM    1  N   UNL     1      28.178  42.417  53.762  1.00  0.00    -0.061 N 
HETATM    2  H   UNL     1      28.184  42.125  54.745  1.00  0.00     0.280 HD
HETATM    3  C   UNL     1      26.730  42.723  53.459  1.00  0.00     0.276 C 
HETATM    4  C   UNL     1      26.481  43.390  52.139  1.00  0.00     0.002 A 
HETATM    5  C   UNL     1      26.780  42.718  50.956  1.00  0.00     0.076 A 
HETATM    6  O   UNL     1      27.248  41.435  50.982  1.00  0.00    -0.349 OA
HETATM    7  C   UNL     1      28.601  41.370  51.455  1.00  0.00     0.203 C 
HETATM    8  C   UNL     1      28.675  41.200  52.982  1.00  0.00     0.262 C 
HETATM    9  C   UNL     1      25.937  44.686  52.065  1.00  0.00     0.020 A 
HETATM   10  C   UNL     1      25.712  45.313  50.826  1.00  0.00    -0.032 A 
HETATM   11  C   UNL     1      26.022  44.607  49.655  1.00  0.00     0.011 A 
HETATM   12  C   UNL     1      26.534  43.308  49.720  1.00  0.00     0.038 A 
ENDROOT
BRANCH  10  13
HETATM   13  C   UNL     1      25.156  46.718  50.765  1.00  0.00     0.273 C 
BRANCH  13  14
HETATM   14  N   UNL     1      24.279  47.048  49.570  1.00  0.00    -0.067 N 
HETATM   15  H   UNL     1      24.850  46.783  48.754  1.00  0.00     0.280 HD
HETATM   16  C   UNL     1      23.037  46.197  49.489  1.00  0.00     0.238 C 
HETATM   17  C   UNL     1      22.292  46.485  48.192  1.00  0.00     0.071 C 
HETATM   18  C   UNL     1      21.939  47.978  48.023  1.00  0.00     0.089 C 
HETATM   19  C   UNL     1      23.267  48.762  48.107  1.00  0.00     0.071 C 
HETATM   20  C   UNL     1      23.985  48.519  49.423  1.00  0.00     0.238 C 
BRANCH  18  21
HETATM   21  O   UNL     1      21.475  48.128  46.680  1.00  0.00    -0.385 OA
HETATM   22  H   UNL     1      22.232  48.203  46.068  1.00  0.00     0.211 HD
ENDBRANCH  18  21
BRANCH  18  23
HETATM   23  C   UNL     1      20.867  48.522  48.961  1.00  0.00    -0.006 A 
HETATM   24  C   UNL     1      19.776  47.769  49.394  1.00  0.00     0.126 A 
HETATM   25  N   UNL     1      18.844  48.197  50.273  1.00  0.00    -0.272 NA
HETATM   26  C   UNL     1      18.934  49.471  50.698  1.00  0.00     0.116 A 
HETATM   27  C   UNL     1      19.934  50.332  50.292  1.00  0.00     0.020 A 
HETATM   28  C   UNL     1      20.905  49.850  49.414  1.00  0.00     0.013 A 
ENDBRANCH  18  23
ENDBRANCH  13  14
ENDBRANCH  10  13
BRANCH   1  29
HETATM   29  C   UNL     1      29.162  43.581  53.697  1.00  0.00     0.276 C 
BRANCH  29  30
HETATM   30  C   UNL     1      29.130  44.573  54.834  1.00  0.00     0.004 A 
HETATM   31  C   UNL     1      28.165  45.594  54.870  1.00  0.00     0.048 A 
HETATM   32  C   UNL     1      28.153  46.543  55.896  1.00  0.00     0.069 A 
HETATM   33  C   UNL     1      29.076  46.442  56.932  1.00  0.00     0.039 A 
HETATM   34  C   UNL     1      30.013  45.402  56.940  1.00  0.00     0.040 A 
HETATM   35  C   UNL     1      30.047  44.470  55.900  1.00  0.00     0.076 A 
BRANCH  32  36
HETATM   36  O   UNL     1      27.211  47.520  55.748  1.00  0.00    -0.356 OA
HETATM   37  C   UNL     1      26.421  47.486  54.563  1.00  0.00     0.210 C 
ENDBRANCH  32  36
BRANCH  35  38
HETATM   38  O   UNL     1      30.962  43.455  55.809  1.00  0.00    -0.355 OA
HETATM   39  C   UNL     1      31.725  43.151  56.976  1.00  0.00     0.210 C 
ENDBRANCH  35  38
ENDBRANCH  29  30
ENDBRANCH   1  29
TORSDOF 8
ENDMDL
MODEL 5
REMARK VINA RESULT:      -8.8      2.340     10.618
REMARK  8 active torsions:
REMARK  status: ('A' for Active; 'I' for Inactive)
REMARK    1  A    between atoms: O_2  and  C_3 
REMARK    2  A    between atoms: C_5  and  C_6 
REMARK    3  A    between atoms: C_6  and  N_7 
REMARK    4  A    between atoms: C_16  and  C_17 
REMARK    5  A    between atoms: C_17  and  N_18 
REMARK    6  A    between atoms: C_22  and  O_23 
REMARK    7  A    between atoms: C_22  and  C_24 
REMARK    8  A    between atoms: C_34  and  O_35 
ROOT
HETATM    1  N   UNL     1      20.876  47.172  47.660  1.00  0.00    -0.061 N 
HETATM    2  H   UNL     1      20.795  47.893  46.934  1.00  0.00     0.280 HD
HETATM    3  C   UNL     1      22.278  46.629  47.510  1.00  0.00     0.276 C 
HETATM    4  C   UNL     1      22.727  45.711  48.607  1.00  0.00     0.002 A 
HETATM    5  C   UNL     1      22.077  44.494  48.803  1.00  0.00     0.076 A 
HETATM    6  O   UNL     1      21.067  44.103  47.970  1.00  0.00    -0.349 OA
HETATM    7  C   UNL     1      19.872  44.867  48.184  1.00  0.00     0.203 C 
HETATM    8  C   UNL     1      19.822  46.125  47.301  1.00  0.00     0.262 C 
HETATM    9  C   UNL     1      23.807  46.046  49.445  1.00  0.00     0.020 A 
HETATM   10  C   UNL     1      24.222  45.187  50.480  1.00  0.00    -0.032 A 
HETATM   11  C   UNL     1      23.546  43.970  50.647  1.00  0.00     0.011 A 
HETATM   12  C   UNL     1      22.492  43.616  49.799  1.00  0.00     0.038 A 
ENDROOT
BRANCH  10  13
HETATM   13  C   UNL     1      25.363  45.576  51.391  1.00  0.00     0.273 C 
BRANCH  13  14
HETATM   14  N   UNL     1      26.172  44.437  51.987  1.00  0.00    -0.067 N 
HETATM   15  H   UNL     1      25.801  43.593  51.528  1.00  0.00     0.280 HD
HETATM   16  C   UNL     1      27.634  44.489  51.621  1.00  0.00     0.238 C 
HETATM   17  C   UNL     1      28.343  43.241  52.129  1.00  0.00     0.071 C 
HETATM   18  C   UNL     1      28.172  43.033  53.650  1.00  0.00     0.089 C 
HETATM   19  C   UNL     1      26.653  42.981  53.924  1.00  0.00     0.071 C 
HETATM   20  C   UNL     1      25.952  44.248  53.466  1.00  0.00     0.238 C 
BRANCH  18  21
HETATM   21  O   UNL     1      28.670  41.724  53.930  1.00  0.00    -0.385 OA
HETATM   22  H   UNL     1      29.629  41.760  54.113  1.00  0.00     0.211 HD
ENDBRANCH  18  21
BRANCH  18  23
HETATM   23  C   UNL     1      28.905  44.025  54.546  1.00  0.00    -0.006 A 
HETATM   24  C   UNL     1      28.439  45.313  54.804  1.00  0.00     0.126 A 
HETATM   25  N   UNL     1      29.028  46.194  55.641  1.00  0.00    -0.272 NA
HETATM   26  C   UNL     1      30.194  45.825  56.205  1.00  0.00     0.116 A 
HETATM   27  C   UNL     1      30.787  44.599  55.977  1.00  0.00     0.020 A 
HETATM   28  C   UNL     1      30.135  43.696  55.139  1.00  0.00     0.013 A 
ENDBRANCH  18  23
ENDBRANCH  13  14
ENDBRANCH  10  13
BRANCH   1  29
HETATM   29  C   UNL     1      20.546  47.896  48.962  1.00  0.00     0.276 C 
BRANCH  29  30
HETATM   30  C   UNL     1      20.175  49.355  48.863  1.00  0.00     0.004 A 
HETATM   31  C   UNL     1      18.829  49.757  48.880  1.00  0.00     0.048 A 
HETATM   32  C   UNL     1      18.473  51.102  48.746  1.00  0.00     0.069 A 
HETATM   33  C   UNL     1      19.470  52.067  48.653  1.00  0.00     0.039 A 
HETATM   34  C   UNL     1      20.818  51.691  48.685  1.00  0.00     0.040 A 
HETATM   35  C   UNL     1      21.176  50.345  48.788  1.00  0.00     0.076 A 
BRANCH  32  36
HETATM   36  O   UNL     1      17.127  51.326  48.696  1.00  0.00    -0.356 OA
HETATM   37  C   UNL     1      16.536  51.986  49.811  1.00  0.00     0.210 C 
ENDBRANCH  32  36
BRANCH  35  38
HETATM   38  O   UNL     1      22.469  49.892  48.777  1.00  0.00    -0.355 OA
HETATM   39  C   UNL     1      23.311  50.332  47.713  1.00  0.00     0.210 C 
ENDBRANCH  35  38
ENDBRANCH  29  30
ENDBRANCH   1  29
TORSDOF 8
ENDMDL
MODEL 6
REMARK VINA RESULT:      -8.6      3.643      8.658
REMARK  8 active torsions:
REMARK  status: ('A' for Active; 'I' for Inactive)
REMARK    1  A    between atoms: O_2  and  C_3 
REMARK    2  A    between atoms: C_5  and  C_6 
REMARK    3  A    between atoms: C_6  and  N_7 
REMARK    4  A    between atoms: C_16  and  C_17 
REMARK    5  A    between atoms: C_17  and  N_18 
REMARK    6  A    between atoms: C_22  and  O_23 
REMARK    7  A    between atoms: C_22  and  C_24 
REMARK    8  A    between atoms: C_34  and  O_35 
ROOT
HETATM    1  N   UNL     1      25.786  46.376  53.807  1.00  0.00    -0.061 N 
HETATM    2  H   UNL     1      24.822  46.723  53.854  1.00  0.00     0.280 HD
HETATM    3  C   UNL     1      25.721  44.977  54.373  1.00  0.00     0.276 C 
HETATM    4  C   UNL     1      26.970  44.163  54.210  1.00  0.00     0.002 A 
HETATM    5  C   UNL     1      28.146  44.563  54.841  1.00  0.00     0.076 A 
HETATM    6  O   UNL     1      28.161  45.662  55.653  1.00  0.00    -0.349 OA
HETATM    7  C   UNL     1      28.053  46.881  54.904  1.00  0.00     0.203 C 
HETATM    8  C   UNL     1      26.591  47.313  54.708  1.00  0.00     0.262 C 
HETATM    9  C   UNL     1      26.981  42.987  53.437  1.00  0.00     0.020 A 
HETATM   10  C   UNL     1      28.155  42.229  53.277  1.00  0.00    -0.032 A 
HETATM   11  C   UNL     1      29.320  42.660  53.928  1.00  0.00     0.011 A 
HETATM   12  C   UNL     1      29.310  43.810  54.723  1.00  0.00     0.038 A 
ENDROOT
BRANCH  10  13
HETATM   13  C   UNL     1      28.158  40.986  52.417  1.00  0.00     0.273 C 
BRANCH  13  14
HETATM   14  N   UNL     1      27.819  41.178  50.949  1.00  0.00    -0.067 N 
HETATM   15  H   UNL     1      28.015  42.173  50.770  1.00  0.00     0.280 HD
HETATM   16  C   UNL     1      28.730  40.411  50.023  1.00  0.00     0.238 C 
HETATM   17  C   UNL     1      28.421  40.770  48.576  1.00  0.00     0.071 C 
HETATM   18  C   UNL     1      26.942  40.533  48.202  1.00  0.00     0.089 C 
HETATM   19  C   UNL     1      26.095  41.362  49.191  1.00  0.00     0.071 C 
HETATM   20  C   UNL     1      26.360  40.968  50.633  1.00  0.00     0.238 C 
BRANCH  18  21
HETATM   21  O   UNL     1      26.755  41.133  46.919  1.00  0.00    -0.385 OA
HETATM   22  H   UNL     1      27.589  41.540  46.612  1.00  0.00     0.211 HD
ENDBRANCH  18  21
BRANCH  18  23
HETATM   23  C   UNL     1      26.501  39.076  48.115  1.00  0.00    -0.006 A 
HETATM   24  C   UNL     1      25.577  38.611  47.181  1.00  0.00     0.126 A 
HETATM   25  N   UNL     1      25.212  37.319  47.034  1.00  0.00    -0.272 NA
HETATM   26  C   UNL     1      25.719  36.430  47.909  1.00  0.00     0.116 A 
HETATM   27  C   UNL     1      26.595  36.781  48.917  1.00  0.00     0.020 A 
HETATM   28  C   UNL     1      26.984  38.116  49.019  1.00  0.00     0.013 A 
ENDBRANCH  18  23
ENDBRANCH  13  14
ENDBRANCH  10  13
BRANCH   1  29
HETATM   29  C   UNL     1      26.178  46.514  52.339  1.00  0.00     0.276 C 
BRANCH  29  30
HETATM   30  C   UNL     1      25.144  46.120  51.313  1.00  0.00     0.004 A 
HETATM   31  C   UNL     1      24.521  44.863  51.366  1.00  0.00     0.048 A 
HETATM   32  C   UNL     1      23.594  44.472  50.395  1.00  0.00     0.069 A 
HETATM   33  C   UNL     1      23.238  45.366  49.391  1.00  0.00     0.039 A 
HETATM   34  C   UNL     1      23.811  46.641  49.350  1.00  0.00     0.040 A 
HETATM   35  C   UNL     1      24.760  47.024  50.300  1.00  0.00     0.076 A 
BRANCH  32  36
HETATM   36  O   UNL     1      23.139  43.192  50.534  1.00  0.00    -0.356 OA
HETATM   37  C   UNL     1      22.807  42.487  49.341  1.00  0.00     0.210 C 
ENDBRANCH  32  36
BRANCH  35  38
HETATM   38  O   UNL     1      25.402  48.234  50.301  1.00  0.00    -0.355 OA
HETATM   39  C   UNL     1      26.438  48.429  49.339  1.00  0.00     0.210 C 
ENDBRANCH  35  38
ENDBRANCH  29  30
ENDBRANCH   1  29
TORSDOF 8
ENDMDL
MODEL 7
REMARK VINA RESULT:      -8.4      3.308      5.464
REMARK  8 active torsions:
REMARK  status: ('A' for Active; 'I' for Inactive)
REMARK    1  A    between atoms: O_2  and  C_3 
REMARK    2  A    between atoms: C_5  and  C_6 
REMARK    3  A    between atoms: C_6  and  N_7 
REMARK    4  A    between atoms: C_16  and  C_17 
REMARK    5  A    between atoms: C_17  and  N_18 
REMARK    6  A    between atoms: C_22  and  O_23 
REMARK    7  A    between atoms: C_22  and  C_24 
REMARK    8  A    between atoms: C_34  and  O_35 
ROOT
HETATM    1  N   UNL     1      24.882  42.543  50.171  1.00  0.00    -0.061 N 
HETATM    2  H   UNL     1      25.045  42.444  51.179  1.00  0.00     0.280 HD
HETATM    3  C   UNL     1      23.421  42.911  50.052  1.00  0.00     0.276 C 
HETATM    4  C   UNL     1      22.980  43.335  48.683  1.00  0.00     0.002 A 
HETATM    5  C   UNL     1      23.029  42.427  47.627  1.00  0.00     0.076 A 
HETATM    6  O   UNL     1      23.426  41.137  47.836  1.00  0.00    -0.349 OA
HETATM    7  C   UNL     1      24.835  41.045  48.086  1.00  0.00     0.203 C 
HETATM    8  C   UNL     1      25.167  41.162  49.583  1.00  0.00     0.262 C 
HETATM    9  C   UNL     1      22.501  44.636  48.438  1.00  0.00     0.020 A 
HETATM   10  C   UNL     1      22.096  45.034  47.151  1.00  0.00    -0.032 A 
HETATM   11  C   UNL     1      22.157  44.095  46.112  1.00  0.00     0.011 A 
HETATM   12  C   UNL     1      22.602  42.791  46.354  1.00  0.00     0.038 A 
ENDROOT
BRANCH  10  13
HETATM   13  C   UNL     1      21.614  46.445  46.899  1.00  0.00     0.273 C 
BRANCH  13  14
HETATM   14  N   UNL     1      21.154  47.230  48.114  1.00  0.00    -0.067 N 
HETATM   15  H   UNL     1      21.577  46.736  48.913  1.00  0.00     0.280 HD
HETATM   16  C   UNL     1      21.709  48.632  48.163  1.00  0.00     0.238 C 
HETATM   17  C   UNL     1      21.324  49.299  49.477  1.00  0.00     0.071 C 
HETATM   18  C   UNL     1      19.799  49.311  49.718  1.00  0.00     0.089 C 
HETATM   19  C   UNL     1      19.328  47.841  49.662  1.00  0.00     0.071 C 
HETATM   20  C   UNL     1      19.662  47.190  48.332  1.00  0.00     0.238 C 
BRANCH  18  21
HETATM   21  O   UNL     1      19.614  49.735  51.069  1.00  0.00    -0.385 OA
HETATM   22  H   UNL     1      20.479  49.846  51.510  1.00  0.00     0.211 HD
ENDBRANCH  18  21
BRANCH  18  23
HETATM   23  C   UNL     1      18.987  50.231  48.813  1.00  0.00    -0.006 A 
HETATM   24  C   UNL     1      17.778  49.857  48.228  1.00  0.00     0.126 A 
HETATM   25  N   UNL     1      17.003  50.667  47.476  1.00  0.00    -0.272 NA
HETATM   26  C   UNL     1      17.474  51.899  47.207  1.00  0.00     0.116 A 
HETATM   27  C   UNL     1      18.686  52.362  47.679  1.00  0.00     0.020 A 
HETATM   28  C   UNL     1      19.447  51.517  48.486  1.00  0.00     0.013 A 
ENDBRANCH  18  23
ENDBRANCH  13  14
ENDBRANCH  10  13
BRANCH   1  29
HETATM   29  C   UNL     1      25.900  43.583  49.715  1.00  0.00     0.276 C 
BRANCH  29  30
HETATM   30  C   UNL     1      25.985  44.860  50.515  1.00  0.00     0.004 A 
HETATM   31  C   UNL     1      25.902  46.111  49.883  1.00  0.00     0.048 A 
HETATM   32  C   UNL     1      26.023  47.300  50.609  1.00  0.00     0.069 A 
HETATM   33  C   UNL     1      26.168  47.244  51.991  1.00  0.00     0.039 A 
HETATM   34  C   UNL     1      26.203  46.007  52.645  1.00  0.00     0.040 A 
HETATM   35  C   UNL     1      26.114  44.818  51.918  1.00  0.00     0.076 A 
BRANCH  32  36
HETATM   36  O   UNL     1      26.006  48.431  49.845  1.00  0.00    -0.356 OA
HETATM   37  C   UNL     1      27.239  48.835  49.256  1.00  0.00     0.210 C 
ENDBRANCH  32  36
BRANCH  35  38
HETATM   38  O   UNL     1      26.188  43.569  52.477  1.00  0.00    -0.355 OA
HETATM   39  C   UNL     1      27.425  43.191  53.080  1.00  0.00     0.210 C 
ENDBRANCH  35  38
ENDBRANCH  29  30
ENDBRANCH   1  29
TORSDOF 8
ENDMDL
MODEL 8
REMARK VINA RESULT:      -8.4      2.506     10.331
REMARK  8 active torsions:
REMARK  status: ('A' for Active; 'I' for Inactive)
REMARK    1  A    between atoms: O_2  and  C_3 
REMARK    2  A    between atoms: C_5  and  C_6 
REMARK    3  A    between atoms: C_6  and  N_7 
REMARK    4  A    between atoms: C_16  and  C_17 
REMARK    5  A    between atoms: C_17  and  N_18 
REMARK    6  A    between atoms: C_22  and  O_23 
REMARK    7  A    between atoms: C_22  and  C_24 
REMARK    8  A    between atoms: C_34  and  O_35 
ROOT
HETATM    1  N   UNL     1      21.751  48.513  48.272  1.00  0.00    -0.061 N 
HETATM    2  H   UNL     1      20.766  48.356  48.513  1.00  0.00     0.280 HD
HETATM    3  C   UNL     1      22.500  48.327  49.571  1.00  0.00     0.276 C 
HETATM    4  C   UNL     1      23.994  48.283  49.446  1.00  0.00     0.002 A 
HETATM    5  C   UNL     1      24.685  49.405  48.993  1.00  0.00     0.076 A 
HETATM    6  O   UNL     1      24.020  50.565  48.711  1.00  0.00    -0.349 OA
HETATM    7  C   UNL     1      23.244  50.458  47.510  1.00  0.00     0.203 C 
HETATM    8  C   UNL     1      21.815  49.960  47.784  1.00  0.00     0.262 C 
HETATM    9  C   UNL     1      24.723  47.129  49.789  1.00  0.00     0.020 A 
HETATM   10  C   UNL     1      26.124  47.087  49.662  1.00  0.00    -0.032 A 
HETATM   11  C   UNL     1      26.787  48.234  49.205  1.00  0.00     0.011 A 
HETATM   12  C   UNL     1      26.072  49.395  48.892  1.00  0.00     0.038 A 
ENDROOT
BRANCH  10  13
HETATM   13  C   UNL     1      26.889  45.829  50.005  1.00  0.00     0.273 C 
BRANCH  13  14
HETATM   14  N   UNL     1      26.462  45.099  51.266  1.00  0.00    -0.067 N 
HETATM   15  H   UNL     1      25.476  44.853  51.097  1.00  0.00     0.280 HD
HETATM   16  C   UNL     1      27.179  43.788  51.468  1.00  0.00     0.238 C 
HETATM   17  C   UNL     1      26.592  43.052  52.665  1.00  0.00     0.071 C 
HETATM   18  C   UNL     1      26.626  43.893  53.959  1.00  0.00     0.089 C 
HETATM   19  C   UNL     1      25.862  45.201  53.660  1.00  0.00     0.071 C 
HETATM   20  C   UNL     1      26.477  45.964  52.501  1.00  0.00     0.238 C 
BRANCH  18  21
HETATM   21  O   UNL     1      25.836  43.183  54.915  1.00  0.00    -0.385 OA
HETATM   22  H   UNL     1      26.014  42.225  54.855  1.00  0.00     0.211 HD
ENDBRANCH  18  21
BRANCH  18  23
HETATM   23  C   UNL     1      28.004  44.134  54.564  1.00  0.00    -0.006 A 
HETATM   24  C   UNL     1      28.335  45.284  55.281  1.00  0.00     0.126 A 
HETATM   25  N   UNL     1      29.524  45.501  55.884  1.00  0.00    -0.272 NA
HETATM   26  C   UNL     1      30.484  44.573  55.710  1.00  0.00     0.116 A 
HETATM   27  C   UNL     1      30.295  43.423  54.970  1.00  0.00     0.020 A 
HETATM   28  C   UNL     1      29.045  43.207  54.392  1.00  0.00     0.013 A 
ENDBRANCH  18  23
ENDBRANCH  13  14
ENDBRANCH  10  13
BRANCH   1  29
HETATM   29  C   UNL     1      22.041  47.516  47.154  1.00  0.00     0.276 C 
BRANCH  29  30
HETATM   30  C   UNL     1      21.054  46.390  46.964  1.00  0.00     0.004 A 
HETATM   31  C   UNL     1      21.463  45.051  47.073  1.00  0.00     0.048 A 
HETATM   32  C   UNL     1      20.567  44.000  46.856  1.00  0.00     0.069 A 
HETATM   33  C   UNL     1      19.233  44.284  46.587  1.00  0.00     0.039 A 
HETATM   34  C   UNL     1      18.795  45.612  46.524  1.00  0.00     0.040 A 
HETATM   35  C   UNL     1      19.695  46.664  46.710  1.00  0.00     0.076 A 
BRANCH  32  36
HETATM   36  O   UNL     1      21.132  42.758  46.914  1.00  0.00    -0.356 OA
HETATM   37  C   UNL     1      22.491  42.681  47.335  1.00  0.00     0.210 C 
ENDBRANCH  32  36
BRANCH  35  38
HETATM   38  O   UNL     1      19.357  47.988  46.617  1.00  0.00    -0.355 OA
HETATM   39  C   UNL     1      17.973  48.322  46.717  1.00  0.00     0.210 C 
ENDBRANCH  35  38
ENDBRANCH  29  30
ENDBRANCH   1  29
TORSDOF 8
ENDMDL
MODEL 9
REMARK VINA RESULT:      -8.4      3.701      9.009
REMARK  8 active torsions:
REMARK  status: ('A' for Active; 'I' for Inactive)
REMARK    1  A    between atoms: O_2  and  C_3 
REMARK    2  A    between atoms: C_5  and  C_6 
REMARK    3  A    between atoms: C_6  and  N_7 
REMARK    4  A    between atoms: C_16  and  C_17 
REMARK    5  A    between atoms: C_17  and  N_18 
REMARK    6  A    between atoms: C_22  and  O_23 
REMARK    7  A    between atoms: C_22  and  C_24 
REMARK    8  A    between atoms: C_34  and  O_35 
ROOT
HETATM    1  N   UNL     1      25.586  45.536  53.137  1.00  0.00    -0.061 N 
HETATM    2  H   UNL     1      24.578  45.722  53.132  1.00  0.00     0.280 HD
HETATM    3  C   UNL     1      25.707  44.082  53.531  1.00  0.00     0.276 C 
HETATM    4  C   UNL     1      27.081  43.496  53.394  1.00  0.00     0.002 A 
HETATM    5  C   UNL     1      28.124  43.987  54.176  1.00  0.00     0.076 A 
HETATM    6  O   UNL     1      27.899  44.962  55.106  1.00  0.00    -0.349 OA
HETATM    7  C   UNL     1      27.651  46.236  54.495  1.00  0.00     0.203 C 
HETATM    8  C   UNL     1      26.156  46.462  54.211  1.00  0.00     0.262 C 
HETATM    9  C   UNL     1      27.342  42.445  52.496  1.00  0.00     0.020 A 
HETATM   10  C   UNL     1      28.633  41.902  52.363  1.00  0.00    -0.032 A 
HETATM   11  C   UNL     1      29.659  42.418  53.167  1.00  0.00     0.011 A 
HETATM   12  C   UNL     1      29.401  43.442  54.084  1.00  0.00     0.038 A 
ENDROOT
BRANCH  10  13
HETATM   13  C   UNL     1      28.903  40.794  51.370  1.00  0.00     0.273 C 
BRANCH  13  14
HETATM   14  N   UNL     1      27.726  40.340  50.526  1.00  0.00    -0.067 N 
HETATM   15  H   UNL     1      26.958  40.221  51.202  1.00  0.00     0.280 HD
HETATM   16  C   UNL     1      27.252  41.388  49.551  1.00  0.00     0.238 C 
HETATM   17  C   UNL     1      25.985  40.914  48.852  1.00  0.00     0.071 C 
HETATM   18  C   UNL     1      26.166  39.556  48.141  1.00  0.00     0.089 C 
HETATM   19  C   UNL     1      26.638  38.551  49.215  1.00  0.00     0.071 C 
HETATM   20  C   UNL     1      27.931  38.995  49.876  1.00  0.00     0.238 C 
BRANCH  18  21
HETATM   21  O   UNL     1      24.858  39.133  47.751  1.00  0.00    -0.385 OA
HETATM   22  H   UNL     1      24.900  38.258  47.321  1.00  0.00     0.211 HD
ENDBRANCH  18  21
BRANCH  18  23
HETATM   23  C   UNL     1      27.054  39.563  46.902  1.00  0.00    -0.006 A 
HETATM   24  C   UNL     1      27.639  38.414  46.372  1.00  0.00     0.126 A 
HETATM   25  N   UNL     1      28.376  38.375  45.242  1.00  0.00    -0.272 NA
HETATM   26  C   UNL     1      28.631  39.546  44.628  1.00  0.00     0.116 A 
HETATM   27  C   UNL     1      28.158  40.758  45.093  1.00  0.00     0.020 A 
HETATM   28  C   UNL     1      27.366  40.762  46.240  1.00  0.00     0.013 A 
ENDBRANCH  18  23
ENDBRANCH  13  14
ENDBRANCH  10  13
BRANCH   1  29
HETATM   29  C   UNL     1      26.059  45.919  51.739  1.00  0.00     0.276 C 
BRANCH  29  30
HETATM   30  C   UNL     1      25.002  46.331  50.744  1.00  0.00     0.004 A 
HETATM   31  C   UNL     1      24.814  47.683  50.413  1.00  0.00     0.048 A 
HETATM   32  C   UNL     1      23.810  48.079  49.526  1.00  0.00     0.069 A 
HETATM   33  C   UNL     1      23.019  47.112  48.913  1.00  0.00     0.039 A 
HETATM   34  C   UNL     1      23.224  45.756  49.191  1.00  0.00     0.040 A 
HETATM   35  C   UNL     1      24.207  45.360  50.101  1.00  0.00     0.076 A 
BRANCH  32  36
HETATM   36  O   UNL     1      23.697  49.431  49.370  1.00  0.00    -0.356 OA
HETATM   37  C   UNL     1      24.611  50.060  48.477  1.00  0.00     0.210 C 
ENDBRANCH  32  36
BRANCH  35  38
HETATM   38  O   UNL     1      24.437  44.059  50.464  1.00  0.00    -0.355 OA
HETATM   39  C   UNL     1      23.391  43.117  50.232  1.00  0.00     0.210 C 
ENDBRANCH  35  38
ENDBRANCH  29  30
ENDBRANCH   1  29
TORSDOF 8
ENDMDL
MODEL 10
REMARK VINA RESULT:      -8.3      4.507      9.606
REMARK  8 active torsions:
REMARK  status: ('A' for Active; 'I' for Inactive)
REMARK    1  A    between atoms: O_2  and  C_3 
REMARK    2  A    between atoms: C_5  and  C_6 
REMARK    3  A    between atoms: C_6  and  N_7 
REMARK    4  A    between atoms: C_16  and  C_17 
REMARK    5  A    between atoms: C_17  and  N_18 
REMARK    6  A    between atoms: C_22  and  O_23 
REMARK    7  A    between atoms: C_22  and  C_24 
REMARK    8  A    between atoms: C_34  and  O_35 
ROOT
HETATM    1  N   UNL     1      26.473  40.346  47.005  1.00  0.00    -0.061 N 
HETATM    2  H   UNL     1      26.133  41.104  46.404  1.00  0.00     0.280 HD
HETATM    3  C   UNL     1      27.735  40.888  47.633  1.00  0.00     0.276 C 
HETATM    4  C   UNL     1      28.311  40.049  48.735  1.00  0.00     0.002 A 
HETATM    5  C   UNL     1      28.778  38.766  48.458  1.00  0.00     0.076 A 
HETATM    6  O   UNL     1      28.767  38.282  47.180  1.00  0.00    -0.349 OA
HETATM    7  C   UNL     1      27.437  37.981  46.734  1.00  0.00     0.203 C 
HETATM    8  C   UNL     1      26.767  39.186  46.054  1.00  0.00     0.262 C 
HETATM    9  C   UNL     1      28.402  40.535  50.053  1.00  0.00     0.020 A 
HETATM   10  C   UNL     1      28.935  39.744  51.087  1.00  0.00    -0.032 A 
HETATM   11  C   UNL     1      29.397  38.458  50.772  1.00  0.00     0.011 A 
HETATM   12  C   UNL     1      29.338  37.980  49.459  1.00  0.00     0.038 A 
ENDROOT
BRANCH  10  13
HETATM   13  C   UNL     1      28.997  40.269  52.503  1.00  0.00     0.273 C 
BRANCH  13  14
HETATM   14  N   UNL     1      28.436  41.661  52.734  1.00  0.00    -0.067 N 
HETATM   15  H   UNL     1      27.710  41.767  52.010  1.00  0.00     0.280 HD
HETATM   16  C   UNL     1      27.718  41.803  54.053  1.00  0.00     0.238 C 
HETATM   17  C   UNL     1      27.061  43.174  54.142  1.00  0.00     0.071 C 
HETATM   18  C   UNL     1      28.063  44.332  53.943  1.00  0.00     0.089 C 
HETATM   19  C   UNL     1      28.734  44.107  52.571  1.00  0.00     0.071 C 
HETATM   20  C   UNL     1      29.437  42.763  52.497  1.00  0.00     0.238 C 
BRANCH  18  21
HETATM   21  O   UNL     1      27.277  45.518  53.810  1.00  0.00    -0.385 OA
HETATM   22  H   UNL     1      26.583  45.542  54.497  1.00  0.00     0.211 HD
ENDBRANCH  18  21
BRANCH  18  23
HETATM   23  C   UNL     1      29.067  44.548  55.069  1.00  0.00    -0.006 A 
HETATM   24  C   UNL     1      28.963  45.581  55.999  1.00  0.00     0.126 A 
HETATM   25  N   UNL     1      29.797  45.764  57.046  1.00  0.00    -0.272 NA
HETATM   26  C   UNL     1      30.852  44.933  57.148  1.00  0.00     0.116 A 
HETATM   27  C   UNL     1      31.095  43.911  56.252  1.00  0.00     0.020 A 
HETATM   28  C   UNL     1      30.195  43.722  55.204  1.00  0.00     0.013 A 
ENDBRANCH  18  23
ENDBRANCH  13  14
ENDBRANCH  10  13
BRANCH   1  29
HETATM   29  C   UNL     1      25.307  40.040  47.940  1.00  0.00     0.276 C 
BRANCH  29  30
HETATM   30  C   UNL     1      24.489  41.212  48.425  1.00  0.00     0.004 A 
HETATM   31  C   UNL     1      24.720  41.776  49.690  1.00  0.00     0.048 A 
HETATM   32  C   UNL     1      23.940  42.833  50.166  1.00  0.00     0.069 A 
HETATM   33  C   UNL     1      22.954  43.376  49.349  1.00  0.00     0.039 A 
HETATM   34  C   UNL     1      22.742  42.861  48.065  1.00  0.00     0.040 A 
HETATM   35  C   UNL     1      23.500  41.784  47.599  1.00  0.00     0.076 A 
BRANCH  32  36
HETATM   36  O   UNL     1      24.229  43.216  51.444  1.00  0.00    -0.356 OA
HETATM   37  C   UNL     1      24.598  44.577  51.647  1.00  0.00     0.210 C 
ENDBRANCH  32  36
BRANCH  35  38
HETATM   38  O   UNL     1      23.321  41.192  46.377  1.00  0.00    -0.355 OA
HETATM   39  C   UNL     1      23.693  41.943  45.222  1.00  0.00     0.210 C 
ENDBRANCH  35  38
ENDBRANCH  29  30
ENDBRANCH   1  29
TORSDOF 8
ENDMDL
