MODEL 1
REMARK VINA RESULT:      -9.6      0.000      0.000
REMARK  5 active torsions:
REMARK  status: ('A' for Active; 'I' for Inactive)
REMARK    1  A    between atoms: O_2  and  C_3 
REMARK    2  A    between atoms: C_5  and  C_23 
REMARK    3  A    between atoms: C_11  and  C_14 
REMARK    4  A    between atoms: C_14  and  N_15 
REMARK    5  A    between atoms: C_14  and  C_16 
ROOT
HETATM    1  C   UNL     1      28.673  43.767  53.468  1.00  0.00     0.098 A 
HETATM    2  C   UNL     1      29.557  43.773  54.560  1.00  0.00     0.051 A 
HETATM    3  C   UNL     1      29.412  44.698  55.606  1.00  0.00    -0.019 A 
HETATM    4  C   UNL     1      28.367  45.622  55.548  1.00  0.00     0.032 A 
HETATM    5  C   UNL     1      27.481  45.608  54.466  1.00  0.00     0.064 A 
HETATM    6  C   UNL     1      26.391  46.596  54.385  1.00  0.00     0.259 A 
HETATM    7  O   UNL     1      26.223  47.450  55.246  1.00  0.00    -0.267 OA
HETATM    8  N   UNL     1      25.592  46.500  53.281  1.00  0.00    -0.309 N 
HETATM    9  C   UNL     1      25.764  45.558  52.301  1.00  0.00     0.145 A 
HETATM   10  N   UNL     1      26.711  44.677  52.328  1.00  0.00    -0.229 NA
HETATM   11  C   UNL     1      27.607  44.686  53.421  1.00  0.00     0.108 A 
HETATM   12  H   UNL     1      24.863  47.193  53.170  1.00  0.00     0.170 HD
ENDROOT
BRANCH   9  13
HETATM   13  C   UNL     1      24.767  45.613  51.132  1.00  0.00     0.320 C 
BRANCH  13  14
HETATM   14  N   UNL     1      24.895  44.362  50.357  1.00  0.00     0.094 N 
HETATM   15  H   UNL     1      25.456  43.713  50.911  1.00  0.00     0.314 HD
HETATM   16  H   UNL     1      25.461  44.565  49.532  1.00  0.00     0.314 HD
ENDBRANCH  13  14
BRANCH  13  17
HETATM   17  C   UNL     1      24.976  46.856  50.281  1.00  0.00    -0.018 A 
HETATM   18  C   UNL     1      23.854  47.507  49.738  1.00  0.00     0.011 A 
HETATM   19  C   UNL     1      24.002  48.662  48.964  1.00  0.00     0.024 A 
HETATM   20  C   UNL     1      25.272  49.181  48.729  1.00  0.00     0.034 A 
HETATM   21 CL   UNL     1      25.456  50.601  47.775  1.00  0.00    -0.084 Cl
HETATM   22  C   UNL     1      26.396  48.559  49.266  1.00  0.00     0.024 A 
HETATM   23  C   UNL     1      26.248  47.405  50.040  1.00  0.00     0.011 A 
ENDBRANCH  13  17
ENDBRANCH   9  13
BRANCH   1  24
HETATM   24  O   UNL     1      28.758  42.885  52.418  1.00  0.00    -0.354 OA
HETATM   25  C   UNL     1      28.692  41.499  52.730  1.00  0.00     0.210 C 
ENDBRANCH   1  24
BRANCH   3  26
HETATM   26  C   UNL     1      30.347  44.692  56.719  1.00  0.00     0.010 A 
HETATM   27  C   UNL     1      31.404  43.806  57.039  1.00  0.00     0.152 A 
HETATM   28  N   UNL     1      32.035  44.136  58.169  1.00  0.00    -0.187 NA
HETATM   29  N   UNL     1      31.386  45.238  58.579  1.00  0.00    -0.289 N 
HETATM   30  H   UNL     1      31.691  45.684  59.438  1.00  0.00     0.188 HD
HETATM   31  C   UNL     1      30.368  45.609  57.749  1.00  0.00     0.123 A 
ENDBRANCH   3  26
TORSDOF 5
ENDMDL
MODEL 2
REMARK VINA RESULT:      -9.5      0.959      2.742
REMARK  5 active torsions:
REMARK  status: ('A' for Active; 'I' for Inactive)
REMARK    1  A    between atoms: O_2  and  C_3 
REMARK    2  A    between atoms: C_5  and  C_23 
REMARK    3  A    between atoms: C_11  and  C_14 
REMARK    4  A    between atoms: C_14  and  N_15 
REMARK    5  A    between atoms: C_14  and  C_16 
ROOT
HETATM    1  C   UNL     1      27.353  46.100  54.662  1.00  0.00     0.098 A 
HETATM    2  C   UNL     1      28.277  45.986  55.713  1.00  0.00     0.051 A 
HETATM    3  C   UNL     1      29.291  45.015  55.687  1.00  0.00    -0.019 A 
HETATM    4  C   UNL     1      29.370  44.154  54.590  1.00  0.00     0.032 A 
HETATM    5  C   UNL     1      28.456  44.277  53.538  1.00  0.00     0.064 A 
HETATM    6  C   UNL     1      28.518  43.356  52.389  1.00  0.00     0.259 A 
HETATM    7  O   UNL     1      29.356  42.467  52.313  1.00  0.00    -0.267 OA
HETATM    8  N   UNL     1      27.570  43.556  51.425  1.00  0.00    -0.309 N 
HETATM    9  C   UNL     1      26.618  44.539  51.490  1.00  0.00     0.145 A 
HETATM   10  N   UNL     1      26.523  45.364  52.483  1.00  0.00    -0.229 NA
HETATM   11  C   UNL     1      27.446  45.245  53.547  1.00  0.00     0.108 A 
HETATM   12  H   UNL     1      27.555  42.912  50.645  1.00  0.00     0.170 HD
ENDROOT
BRANCH   9  13
HETATM   13  C   UNL     1      25.635  44.603  50.312  1.00  0.00     0.320 C 
BRANCH  13  14
HETATM   14  N   UNL     1      26.183  43.786  49.209  1.00  0.00     0.094 N 
HETATM   15  H   UNL     1      25.777  44.133  48.338  1.00  0.00     0.314 HD
HETATM   16  H   UNL     1      25.816  42.838  49.314  1.00  0.00     0.314 HD
ENDBRANCH  13  14
BRANCH  13  17
HETATM   17  C   UNL     1      25.355  46.039  49.897  1.00  0.00    -0.018 A 
HETATM   18  C   UNL     1      24.023  46.448  49.707  1.00  0.00     0.011 A 
HETATM   19  C   UNL     1      23.723  47.763  49.343  1.00  0.00     0.024 A 
HETATM   20  C   UNL     1      24.751  48.686  49.169  1.00  0.00     0.034 A 
HETATM   21 CL   UNL     1      24.383  50.305  48.718  1.00  0.00    -0.084 Cl
HETATM   22  C   UNL     1      26.076  48.307  49.363  1.00  0.00     0.024 A 
HETATM   23  C   UNL     1      26.376  46.991  49.727  1.00  0.00     0.011 A 
ENDBRANCH  13  17
ENDBRANCH   9  13
BRANCH   1  24
HETATM   24  O   UNL     1      26.343  47.032  54.626  1.00  0.00    -0.354 OA
HETATM   25  C   UNL     1      26.513  48.200  55.420  1.00  0.00     0.210 C 
ENDBRANCH   1  24
BRANCH   3  26
HETATM   26  C   UNL     1      30.227  44.908  56.793  1.00  0.00     0.010 A 
HETATM   27  C   UNL     1      31.278  43.991  57.034  1.00  0.00     0.152 A 
HETATM   28  N   UNL     1      31.913  44.219  58.187  1.00  0.00    -0.187 NA
HETATM   29  N   UNL     1      31.274  45.286  58.691  1.00  0.00    -0.289 N 
HETATM   30  H   UNL     1      31.583  45.655  59.584  1.00  0.00     0.188 HD
HETATM   31  C   UNL     1      30.257  45.734  57.898  1.00  0.00     0.123 A 
ENDBRANCH   3  26
TORSDOF 5
ENDMDL
MODEL 3
REMARK VINA RESULT:      -8.4      4.076      8.479
REMARK  5 active torsions:
REMARK  status: ('A' for Active; 'I' for Inactive)
REMARK    1  A    between atoms: O_2  and  C_3 
REMARK    2  A    between atoms: C_5  and  C_23 
REMARK    3  A    between atoms: C_11  and  C_14 
REMARK    4  A    between atoms: C_14  and  N_15 
REMARK    5  A    between atoms: C_14  and  C_16 
ROOT
HETATM    1  C   UNL     1      26.280  47.556  49.519  1.00  0.00     0.098 A 
HETATM    2  C   UNL     1      25.240  48.457  49.239  1.00  0.00     0.051 A 
HETATM    3  C   UNL     1      23.897  48.100  49.437  1.00  0.00    -0.019 A 
HETATM    4  C   UNL     1      23.604  46.824  49.922  1.00  0.00     0.032 A 
HETATM    5  C   UNL     1      24.641  45.931  50.211  1.00  0.00     0.064 A 
HETATM    6  C   UNL     1      24.339  44.574  50.698  1.00  0.00     0.259 A 
HETATM    7  O   UNL     1      23.191  44.185  50.866  1.00  0.00    -0.267 OA
HETATM    8  N   UNL     1      25.426  43.780  50.937  1.00  0.00    -0.309 N 
HETATM    9  C   UNL     1      26.720  44.191  50.751  1.00  0.00     0.145 A 
HETATM   10  N   UNL     1      27.030  45.370  50.318  1.00  0.00    -0.229 NA
HETATM   11  C   UNL     1      25.985  46.276  50.027  1.00  0.00     0.108 A 
HETATM   12  H   UNL     1      25.253  42.827  51.228  1.00  0.00     0.170 HD
ENDROOT
BRANCH   9  13
HETATM   13  C   UNL     1      27.807  43.153  51.068  1.00  0.00     0.320 C 
BRANCH  13  14
HETATM   14  N   UNL     1      27.196  41.809  51.005  1.00  0.00     0.094 N 
HETATM   15  H   UNL     1      27.941  41.125  51.147  1.00  0.00     0.314 HD
HETATM   16  H   UNL     1      26.877  41.659  50.046  1.00  0.00     0.314 HD
ENDBRANCH  13  14
BRANCH  13  17
HETATM   17  C   UNL     1      28.471  43.434  52.407  1.00  0.00    -0.018 A 
HETATM   18  C   UNL     1      29.704  42.824  52.700  1.00  0.00     0.011 A 
HETATM   19  C   UNL     1      30.355  43.070  53.912  1.00  0.00     0.024 A 
HETATM   20  C   UNL     1      29.783  43.932  54.843  1.00  0.00     0.034 A 
HETATM   21 CL   UNL     1      30.582  44.233  56.337  1.00  0.00    -0.084 Cl
HETATM   22  C   UNL     1      28.569  44.556  54.571  1.00  0.00     0.024 A 
HETATM   23  C   UNL     1      27.918  44.310  53.359  1.00  0.00     0.011 A 
ENDBRANCH  13  17
ENDBRANCH   9  13
BRANCH   1  24
HETATM   24  O   UNL     1      27.613  47.847  49.352  1.00  0.00    -0.354 OA
HETATM   25  C   UNL     1      27.955  49.211  49.143  1.00  0.00     0.210 C 
ENDBRANCH   1  24
BRANCH   3  26
HETATM   26  C   UNL     1      22.837  49.046  49.128  1.00  0.00     0.010 A 
HETATM   27  C   UNL     1      21.492  48.839  48.742  1.00  0.00     0.152 A 
HETATM   28  N   UNL     1      20.829  49.980  48.533  1.00  0.00    -0.187 NA
HETATM   29  N   UNL     1      21.747  50.926  48.786  1.00  0.00    -0.289 N 
HETATM   30  H   UNL     1      21.475  51.899  48.692  1.00  0.00     0.188 HD
HETATM   31  C   UNL     1      22.964  50.420  49.143  1.00  0.00     0.123 A 
ENDBRANCH   3  26
TORSDOF 5
ENDMDL
MODEL 4
REMARK VINA RESULT:      -8.4      2.946      3.750
REMARK  5 active torsions:
REMARK  status: ('A' for Active; 'I' for Inactive)
REMARK    1  A    between atoms: O_2  and  C_3 
REMARK    2  A    between atoms: C_5  and  C_23 
REMARK    3  A    between atoms: C_11  and  C_14 
REMARK    4  A    between atoms: C_14  and  N_15 
REMARK    5  A    between atoms: C_14  and  C_16 
ROOT
HETATM    1  C   UNL     1      29.087  43.343  53.299  1.00  0.00     0.098 A 
HETATM    2  C   UNL     1      29.873  43.467  54.457  1.00  0.00     0.051 A 
HETATM    3  C   UNL     1      29.593  44.447  55.422  1.00  0.00    -0.019 A 
HETATM    4  C   UNL     1      28.511  45.306  55.216  1.00  0.00     0.032 A 
HETATM    5  C   UNL     1      27.723  45.174  54.068  1.00  0.00     0.064 A 
HETATM    6  C   UNL     1      26.595  46.092  53.831  1.00  0.00     0.259 A 
HETATM    7  O   UNL     1      26.311  46.988  54.615  1.00  0.00    -0.267 OA
HETATM    8  N   UNL     1      25.900  45.882  52.673  1.00  0.00    -0.309 N 
HETATM    9  C   UNL     1      26.202  44.891  51.777  1.00  0.00     0.145 A 
HETATM   10  N   UNL     1      27.187  44.067  51.942  1.00  0.00    -0.229 NA
HETATM   11  C   UNL     1      27.985  44.196  53.102  1.00  0.00     0.108 A 
HETATM   12  H   UNL     1      25.149  46.524  52.456  1.00  0.00     0.170 HD
ENDROOT
BRANCH   9  13
HETATM   13  C   UNL     1      25.309  44.815  50.530  1.00  0.00     0.320 C 
BRANCH  13  14
HETATM   14  N   UNL     1      23.923  45.133  50.935  1.00  0.00     0.094 N 
HETATM   15  H   UNL     1      23.435  44.248  51.080  1.00  0.00     0.314 HD
HETATM   16  H   UNL     1      23.458  45.565  50.134  1.00  0.00     0.314 HD
ENDBRANCH  13  14
BRANCH  13  17
HETATM   17  C   UNL     1      25.425  43.464  49.842  1.00  0.00    -0.018 A 
HETATM   18  C   UNL     1      26.675  43.059  49.341  1.00  0.00     0.011 A 
HETATM   19  C   UNL     1      26.827  41.817  48.718  1.00  0.00     0.024 A 
HETATM   20  C   UNL     1      25.734  40.965  48.594  1.00  0.00     0.034 A 
HETATM   21 CL   UNL     1      25.920  39.437  47.824  1.00  0.00    -0.084 Cl
HETATM   22  C   UNL     1      24.489  41.340  49.093  1.00  0.00     0.024 A 
HETATM   23  C   UNL     1      24.337  42.582  49.715  1.00  0.00     0.011 A 
ENDBRANCH  13  17
ENDBRANCH   9  13
BRANCH   1  24
HETATM   24  O   UNL     1      29.307  42.402  52.321  1.00  0.00    -0.354 OA
HETATM   25  C   UNL     1      28.921  41.065  52.613  1.00  0.00     0.210 C 
ENDBRANCH   1  24
BRANCH   3  26
HETATM   26  C   UNL     1      30.428  44.565  56.606  1.00  0.00     0.010 A 
HETATM   27  C   UNL     1      31.500  43.766  57.068  1.00  0.00     0.152 A 
HETATM   28  N   UNL     1      32.013  44.199  58.223  1.00  0.00    -0.187 NA
HETATM   29  N   UNL     1      31.271  45.282  58.507  1.00  0.00    -0.289 N 
HETATM   30  H   UNL     1      31.476  45.796  59.357  1.00  0.00     0.188 HD
HETATM   31  C   UNL     1      30.309  45.541  57.574  1.00  0.00     0.123 A 
ENDBRANCH   3  26
TORSDOF 5
ENDMDL
MODEL 5
REMARK VINA RESULT:      -8.3      3.350      8.264
REMARK  5 active torsions:
REMARK  status: ('A' for Active; 'I' for Inactive)
REMARK    1  A    between atoms: O_2  and  C_3 
REMARK    2  A    between atoms: C_5  and  C_23 
REMARK    3  A    between atoms: C_11  and  C_14 
REMARK    4  A    between atoms: C_14  and  N_15 
REMARK    5  A    between atoms: C_14  and  C_16 
ROOT
HETATM    1  C   UNL     1      25.800  46.444  52.574  1.00  0.00     0.098 A 
HETATM    2  C   UNL     1      24.983  47.143  51.671  1.00  0.00     0.051 A 
HETATM    3  C   UNL     1      24.882  46.749  50.327  1.00  0.00    -0.019 A 
HETATM    4  C   UNL     1      25.612  45.639  49.895  1.00  0.00     0.032 A 
HETATM    5  C   UNL     1      26.416  44.937  50.798  1.00  0.00     0.064 A 
HETATM    6  C   UNL     1      27.209  43.781  50.344  1.00  0.00     0.259 A 
HETATM    7  O   UNL     1      27.192  43.398  49.180  1.00  0.00    -0.267 OA
HETATM    8  N   UNL     1      27.969  43.175  51.304  1.00  0.00    -0.309 N 
HETATM    9  C   UNL     1      28.009  43.588  52.610  1.00  0.00     0.145 A 
HETATM   10  N   UNL     1      27.336  44.602  53.051  1.00  0.00    -0.229 NA
HETATM   11  C   UNL     1      26.520  45.313  52.142  1.00  0.00     0.108 A 
HETATM   12  H   UNL     1      28.561  42.407  51.016  1.00  0.00     0.170 HD
ENDROOT
BRANCH   9  13
HETATM   13  C   UNL     1      28.929  42.784  53.542  1.00  0.00     0.320 C 
BRANCH  13  14
HETATM   14  N   UNL     1      28.204  41.569  53.970  1.00  0.00     0.094 N 
HETATM   15  H   UNL     1      27.233  41.835  54.141  1.00  0.00     0.314 HD
HETATM   16  H   UNL     1      28.569  41.297  54.884  1.00  0.00     0.314 HD
ENDBRANCH  13  14
BRANCH  13  17
HETATM   17  C   UNL     1      29.407  43.626  54.714  1.00  0.00    -0.018 A 
HETATM   18  C   UNL     1      30.556  43.224  55.419  1.00  0.00     0.011 A 
HETATM   19  C   UNL     1      31.039  43.980  56.491  1.00  0.00     0.024 A 
HETATM   20  C   UNL     1      30.382  45.148  56.867  1.00  0.00     0.034 A 
HETATM   21 CL   UNL     1      30.974  46.078  58.189  1.00  0.00    -0.084 Cl
HETATM   22  C   UNL     1      29.250  45.571  56.177  1.00  0.00     0.024 A 
HETATM   23  C   UNL     1      28.767  44.816  55.105  1.00  0.00     0.011 A 
ENDBRANCH  13  17
ENDBRANCH   9  13
BRANCH   1  24
HETATM   24  O   UNL     1      25.937  46.777  53.900  1.00  0.00    -0.354 OA
HETATM   25  C   UNL     1      26.795  47.868  54.208  1.00  0.00     0.210 C 
ENDBRANCH   1  24
BRANCH   3  26
HETATM   26  C   UNL     1      24.040  47.497  49.409  1.00  0.00     0.010 A 
HETATM   27  C   UNL     1      24.175  48.801  48.878  1.00  0.00     0.152 A 
HETATM   28  N   UNL     1      23.172  49.139  48.063  1.00  0.00    -0.187 NA
HETATM   29  N   UNL     1      22.387  48.050  48.067  1.00  0.00    -0.289 N 
HETATM   30  H   UNL     1      21.540  48.065  47.508  1.00  0.00     0.188 HD
HETATM   31  C   UNL     1      22.859  47.042  48.857  1.00  0.00     0.123 A 
ENDBRANCH   3  26
TORSDOF 5
ENDMDL
MODEL 6
REMARK VINA RESULT:      -8.0      4.145      6.428
REMARK  5 active torsions:
REMARK  status: ('A' for Active; 'I' for Inactive)
REMARK    1  A    between atoms: O_2  and  C_3 
REMARK    2  A    between atoms: C_5  and  C_23 
REMARK    3  A    between atoms: C_11  and  C_14 
REMARK    4  A    between atoms: C_14  and  N_15 
REMARK    5  A    between atoms: C_14  and  C_16 
ROOT
HETATM    1  C   UNL     1      25.733  43.537  51.946  1.00  0.00     0.098 A 
HETATM    2  C   UNL     1      25.710  44.693  52.743  1.00  0.00     0.051 A 
HETATM    3  C   UNL     1      26.838  45.091  53.478  1.00  0.00    -0.019 A 
HETATM    4  C   UNL     1      27.997  44.315  53.406  1.00  0.00     0.032 A 
HETATM    5  C   UNL     1      28.022  43.170  52.602  1.00  0.00     0.064 A 
HETATM    6  C   UNL     1      29.232  42.332  52.541  1.00  0.00     0.259 A 
HETATM    7  O   UNL     1      30.243  42.603  53.177  1.00  0.00    -0.267 OA
HETATM    8  N   UNL     1      29.144  41.232  51.736  1.00  0.00    -0.309 N 
HETATM    9  C   UNL     1      28.023  40.905  51.019  1.00  0.00     0.145 A 
HETATM   10  N   UNL     1      26.937  41.607  51.049  1.00  0.00    -0.229 NA
HETATM   11  C   UNL     1      26.908  42.767  51.858  1.00  0.00     0.108 A 
HETATM   12  H   UNL     1      29.941  40.609  51.706  1.00  0.00     0.170 HD
ENDROOT
BRANCH   9  13
HETATM   13  C   UNL     1      28.114  39.624  50.174  1.00  0.00     0.320 C 
BRANCH  13  14
HETATM   14  N   UNL     1      29.499  39.115  50.256  1.00  0.00     0.094 N 
HETATM   15  H   UNL     1      29.677  38.572  49.410  1.00  0.00     0.314 HD
HETATM   16  H   UNL     1      29.535  38.437  51.019  1.00  0.00     0.314 HD
ENDBRANCH  13  14
BRANCH  13  17
HETATM   17  C   UNL     1      27.661  39.868  48.744  1.00  0.00    -0.018 A 
HETATM   18  C   UNL     1      28.475  40.635  47.891  1.00  0.00     0.011 A 
HETATM   19  C   UNL     1      28.103  40.867  46.564  1.00  0.00     0.024 A 
HETATM   20  C   UNL     1      26.916  40.331  46.073  1.00  0.00     0.034 A 
HETATM   21 CL   UNL     1      26.455  40.618  44.440  1.00  0.00    -0.084 Cl
HETATM   22  C   UNL     1      26.100  39.558  46.895  1.00  0.00     0.024 A 
HETATM   23  C   UNL     1      26.472  39.326  48.222  1.00  0.00     0.011 A 
ENDBRANCH  13  17
ENDBRANCH   9  13
BRANCH   1  24
HETATM   24  O   UNL     1      24.665  43.099  51.200  1.00  0.00    -0.354 OA
HETATM   25  C   UNL     1      23.906  44.087  50.516  1.00  0.00     0.210 C 
ENDBRANCH   1  24
BRANCH   3  26
HETATM   26  C   UNL     1      26.786  46.285  54.306  1.00  0.00     0.010 A 
HETATM   27  C   UNL     1      25.882  47.373  54.309  1.00  0.00     0.152 A 
HETATM   28  N   UNL     1      26.180  48.295  55.227  1.00  0.00    -0.187 NA
HETATM   29  N   UNL     1      27.279  47.802  55.821  1.00  0.00    -0.289 N 
HETATM   30  H   UNL     1      27.704  48.338  56.570  1.00  0.00     0.188 HD
HETATM   31  C   UNL     1      27.683  46.604  55.305  1.00  0.00     0.123 A 
ENDBRANCH   3  26
TORSDOF 5
ENDMDL
MODEL 7
REMARK VINA RESULT:      -7.9      3.707      7.898
REMARK  5 active torsions:
REMARK  status: ('A' for Active; 'I' for Inactive)
REMARK    1  A    between atoms: O_2  and  C_3 
REMARK    2  A    between atoms: C_5  and  C_23 
REMARK    3  A    between atoms: C_11  and  C_14 
REMARK    4  A    between atoms: C_14  and  N_15 
REMARK    5  A    between atoms: C_14  and  C_16 
ROOT
HETATM    1  C   UNL     1      26.545  43.061  51.896  1.00  0.00     0.098 A 
HETATM    2  C   UNL     1      25.949  42.629  50.700  1.00  0.00     0.051 A 
HETATM    3  C   UNL     1      25.210  43.513  49.898  1.00  0.00    -0.019 A 
HETATM    4  C   UNL     1      25.074  44.841  50.307  1.00  0.00     0.032 A 
HETATM    5  C   UNL     1      25.679  45.272  51.492  1.00  0.00     0.064 A 
HETATM    6  C   UNL     1      25.519  46.665  51.944  1.00  0.00     0.259 A 
HETATM    7  O   UNL     1      24.865  47.483  51.309  1.00  0.00    -0.267 OA
HETATM    8  N   UNL     1      26.141  46.976  53.121  1.00  0.00    -0.309 N 
HETATM    9  C   UNL     1      26.873  46.078  53.852  1.00  0.00     0.145 A 
HETATM   10  N   UNL     1      27.032  44.844  53.497  1.00  0.00    -0.229 NA
HETATM   11  C   UNL     1      26.425  44.405  52.298  1.00  0.00     0.108 A 
HETATM   12  H   UNL     1      26.013  47.912  53.483  1.00  0.00     0.170 HD
ENDROOT
BRANCH   9  13
HETATM   13  C   UNL     1      27.491  46.613  55.152  1.00  0.00     0.320 C 
BRANCH  13  14
HETATM   14  N   UNL     1      27.859  48.029  54.939  1.00  0.00     0.094 N 
HETATM   15  H   UNL     1      28.875  48.096  55.008  1.00  0.00     0.314 HD
HETATM   16  H   UNL     1      27.503  48.564  55.733  1.00  0.00     0.314 HD
ENDBRANCH  13  14
BRANCH  13  17
HETATM   17  C   UNL     1      28.668  45.762  55.601  1.00  0.00    -0.018 A 
HETATM   18  C   UNL     1      29.289  46.049  56.830  1.00  0.00     0.011 A 
HETATM   19  C   UNL     1      30.362  45.279  57.287  1.00  0.00     0.024 A 
HETATM   20  C   UNL     1      30.823  44.210  56.523  1.00  0.00     0.034 A 
HETATM   21 CL   UNL     1      32.146  43.263  57.083  1.00  0.00    -0.084 Cl
HETATM   22  C   UNL     1      30.216  43.900  55.309  1.00  0.00     0.024 A 
HETATM   23  C   UNL     1      29.143  44.670  54.852  1.00  0.00     0.011 A 
ENDBRANCH  13  17
ENDBRANCH   9  13
BRANCH   1  24
HETATM   24  O   UNL     1      27.284  42.247  52.721  1.00  0.00    -0.354 OA
HETATM   25  C   UNL     1      28.433  41.627  52.158  1.00  0.00     0.210 C 
ENDBRANCH   1  24
BRANCH   3  26
HETATM   26  C   UNL     1      24.591  43.039  48.671  1.00  0.00     0.010 A 
HETATM   27  C   UNL     1      24.745  41.824  47.962  1.00  0.00     0.152 A 
HETATM   28  N   UNL     1      24.001  41.769  46.855  1.00  0.00    -0.187 NA
HETATM   29  N   UNL     1      23.364  42.951  46.847  1.00  0.00    -0.289 N 
HETATM   30  H   UNL     1      22.726  43.149  46.084  1.00  0.00     0.188 HD
HETATM   31  C   UNL     1      23.684  43.747  47.909  1.00  0.00     0.123 A 
ENDBRANCH   3  26
TORSDOF 5
ENDMDL
MODEL 8
REMARK VINA RESULT:      -7.9      5.620     10.028
REMARK  5 active torsions:
REMARK  status: ('A' for Active; 'I' for Inactive)
REMARK    1  A    between atoms: O_2  and  C_3 
REMARK    2  A    between atoms: C_5  and  C_23 
REMARK    3  A    between atoms: C_11  and  C_14 
REMARK    4  A    between atoms: C_14  and  N_15 
REMARK    5  A    between atoms: C_14  and  C_16 
ROOT
HETATM    1  C   UNL     1      22.621  49.375  49.127  1.00  0.00     0.098 A 
HETATM    2  C   UNL     1      21.642  50.379  49.200  1.00  0.00     0.051 A 
HETATM    3  C   UNL     1      20.276  50.069  49.104  1.00  0.00    -0.019 A 
HETATM    4  C   UNL     1      19.898  48.736  48.933  1.00  0.00     0.032 A 
HETATM    5  C   UNL     1      20.874  47.736  48.872  1.00  0.00     0.064 A 
HETATM    6  C   UNL     1      20.485  46.330  48.666  1.00  0.00     0.259 A 
HETATM    7  O   UNL     1      19.315  45.990  48.545  1.00  0.00    -0.267 OA
HETATM    8  N   UNL     1      21.518  45.436  48.610  1.00  0.00    -0.309 N 
HETATM    9  C   UNL     1      22.835  45.792  48.736  1.00  0.00     0.145 A 
HETATM   10  N   UNL     1      23.222  47.015  48.911  1.00  0.00    -0.229 NA
HETATM   11  C   UNL     1      22.238  48.028  48.976  1.00  0.00     0.108 A 
HETATM   12  H   UNL     1      21.289  44.469  48.423  1.00  0.00     0.170 HD
ENDROOT
BRANCH   9  13
HETATM   13  C   UNL     1      23.854  44.646  48.639  1.00  0.00     0.320 C 
BRANCH  13  14
HETATM   14  N   UNL     1      23.109  43.374  48.536  1.00  0.00     0.094 N 
HETATM   15  H   UNL     1      22.715  43.324  47.595  1.00  0.00     0.314 HD
HETATM   16  H   UNL     1      22.302  43.436  49.159  1.00  0.00     0.314 HD
ENDBRANCH  13  14
BRANCH  13  17
HETATM   17  C   UNL     1      24.826  44.665  49.808  1.00  0.00    -0.018 A 
HETATM   18  C   UNL     1      24.328  44.498  51.113  1.00  0.00     0.011 A 
HETATM   19  C   UNL     1      25.190  44.492  52.213  1.00  0.00     0.024 A 
HETATM   20  C   UNL     1      26.560  44.647  52.021  1.00  0.00     0.034 A 
HETATM   21 CL   UNL     1      27.622  44.642  53.375  1.00  0.00    -0.084 Cl
HETATM   22  C   UNL     1      27.077  44.801  50.738  1.00  0.00     0.024 A 
HETATM   23  C   UNL     1      26.215  44.808  49.638  1.00  0.00     0.011 A 
ENDBRANCH  13  17
ENDBRANCH   9  13
BRANCH   1  24
HETATM   24  O   UNL     1      23.971  49.613  49.221  1.00  0.00    -0.354 OA
HETATM   25  C   UNL     1      24.610  50.172  48.080  1.00  0.00     0.210 C 
ENDBRANCH   1  24
BRANCH   3  26
HETATM   26  C   UNL     1      19.282  51.128  49.170  1.00  0.00     0.010 A 
HETATM   27  C   UNL     1      18.090  51.236  49.925  1.00  0.00     0.152 A 
HETATM   28  N   UNL     1      17.431  52.374  49.697  1.00  0.00    -0.187 NA
HETATM   29  N   UNL     1      18.198  53.005  48.793  1.00  0.00    -0.289 N 
HETATM   30  H   UNL     1      17.897  53.913  48.456  1.00  0.00     0.188 HD
HETATM   31  C   UNL     1      19.314  52.300  48.443  1.00  0.00     0.123 A 
ENDBRANCH   3  26
TORSDOF 5
ENDMDL
MODEL 9
REMARK VINA RESULT:      -7.8      3.282      5.548
REMARK  5 active torsions:
REMARK  status: ('A' for Active; 'I' for Inactive)
REMARK    1  A    between atoms: O_2  and  C_3 
REMARK    2  A    between atoms: C_5  and  C_23 
REMARK    3  A    between atoms: C_11  and  C_14 
REMARK    4  A    between atoms: C_14  and  N_15 
REMARK    5  A    between atoms: C_14  and  C_16 
ROOT
HETATM    1  C   UNL     1      25.313  47.068  50.525  1.00  0.00     0.098 A 
HETATM    2  C   UNL     1      26.276  46.598  51.433  1.00  0.00     0.051 A 
HETATM    3  C   UNL     1      26.206  45.298  51.958  1.00  0.00    -0.019 A 
HETATM    4  C   UNL     1      25.155  44.468  51.561  1.00  0.00     0.032 A 
HETATM    5  C   UNL     1      24.203  44.933  50.648  1.00  0.00     0.064 A 
HETATM    6  C   UNL     1      23.078  44.073  50.244  1.00  0.00     0.259 A 
HETATM    7  O   UNL     1      22.937  42.939  50.683  1.00  0.00    -0.267 OA
HETATM    8  N   UNL     1      22.200  44.631  49.358  1.00  0.00    -0.309 N 
HETATM    9  C   UNL     1      22.332  45.899  48.857  1.00  0.00     0.145 A 
HETATM   10  N   UNL     1      23.300  46.692  49.190  1.00  0.00    -0.229 NA
HETATM   11  C   UNL     1      24.265  46.224  50.110  1.00  0.00     0.108 A 
HETATM   12  H   UNL     1      21.390  44.084  49.095  1.00  0.00     0.170 HD
ENDROOT
BRANCH   9  13
HETATM   13  C   UNL     1      21.240  46.353  47.876  1.00  0.00     0.320 C 
BRANCH  13  14
HETATM   14  N   UNL     1      21.745  46.156  46.501  1.00  0.00     0.094 N 
HETATM   15  H   UNL     1      21.158  46.710  45.875  1.00  0.00     0.314 HD
HETATM   16  H   UNL     1      21.567  45.185  46.241  1.00  0.00     0.314 HD
ENDBRANCH  13  14
BRANCH  13  17
HETATM   17  C   UNL     1      20.811  47.786  48.144  1.00  0.00    -0.018 A 
HETATM   18  C   UNL     1      19.865  48.038  49.155  1.00  0.00     0.011 A 
HETATM   19  C   UNL     1      19.457  49.342  49.445  1.00  0.00     0.024 A 
HETATM   20  C   UNL     1      19.993  50.411  48.732  1.00  0.00     0.034 A 
HETATM   21 CL   UNL     1      19.489  52.018  49.086  1.00  0.00    -0.084 Cl
HETATM   22  C   UNL     1      20.939  50.187  47.735  1.00  0.00     0.024 A 
HETATM   23  C   UNL     1      21.347  48.882  47.445  1.00  0.00     0.011 A 
ENDBRANCH  13  17
ENDBRANCH   9  13
BRANCH   1  24
HETATM   24  O   UNL     1      25.330  48.327  49.973  1.00  0.00    -0.354 OA
HETATM   25  C   UNL     1      26.500  48.704  49.259  1.00  0.00     0.210 C 
ENDBRANCH   1  24
BRANCH   3  26
HETATM   26  C   UNL     1      27.207  44.839  52.905  1.00  0.00     0.010 A 
HETATM   27  C   UNL     1      27.499  45.260  54.225  1.00  0.00     0.152 A 
HETATM   28  N   UNL     1      28.516  44.590  54.772  1.00  0.00    -0.187 NA
HETATM   29  N   UNL     1      28.883  43.733  53.805  1.00  0.00    -0.289 N 
HETATM   30  H   UNL     1      29.656  43.102  53.988  1.00  0.00     0.188 HD
HETATM   31  C   UNL     1      28.134  43.844  52.669  1.00  0.00     0.123 A 
ENDBRANCH   3  26
TORSDOF 5
ENDMDL
MODEL 10
REMARK VINA RESULT:      -7.8      3.394      8.233
REMARK  5 active torsions:
REMARK  status: ('A' for Active; 'I' for Inactive)
REMARK    1  A    between atoms: O_2  and  C_3 
REMARK    2  A    between atoms: C_5  and  C_23 
REMARK    3  A    between atoms: C_11  and  C_14 
REMARK    4  A    between atoms: C_14  and  N_15 
REMARK    5  A    between atoms: C_14  and  C_16 
ROOT
HETATM    1  C   UNL     1      25.135  44.548  49.796  1.00  0.00     0.098 A 
HETATM    2  C   UNL     1      24.296  45.440  49.109  1.00  0.00     0.051 A 
HETATM    3  C   UNL     1      24.044  46.729  49.606  1.00  0.00    -0.019 A 
HETATM    4  C   UNL     1      24.645  47.117  50.806  1.00  0.00     0.032 A 
HETATM    5  C   UNL     1      25.490  46.231  51.483  1.00  0.00     0.064 A 
HETATM    6  C   UNL     1      26.107  46.623  52.761  1.00  0.00     0.259 A 
HETATM    7  O   UNL     1      25.909  47.720  53.269  1.00  0.00    -0.267 OA
HETATM    8  N   UNL     1      26.904  45.678  53.344  1.00  0.00    -0.309 N 
HETATM    9  C   UNL     1      27.136  44.443  52.799  1.00  0.00     0.145 A 
HETATM   10  N   UNL     1      26.609  44.054  51.683  1.00  0.00    -0.229 NA
HETATM   11  C   UNL     1      25.757  44.947  50.994  1.00  0.00     0.108 A 
HETATM   12  H   UNL     1      27.306  45.898  54.246  1.00  0.00     0.170 HD
ENDROOT
BRANCH   9  13
HETATM   13  C   UNL     1      28.056  43.514  53.606  1.00  0.00     0.320 C 
BRANCH  13  14
HETATM   14  N   UNL     1      27.268  42.339  54.031  1.00  0.00     0.094 N 
HETATM   15  H   UNL     1      27.788  41.503  53.759  1.00  0.00     0.314 HD
HETATM   16  H   UNL     1      26.416  42.316  53.468  1.00  0.00     0.314 HD
ENDBRANCH  13  14
BRANCH  13  17
HETATM   17  C   UNL     1      28.700  44.244  54.774  1.00  0.00    -0.018 A 
HETATM   18  C   UNL     1      30.008  43.900  55.157  1.00  0.00     0.011 A 
HETATM   19  C   UNL     1      30.642  44.559  56.214  1.00  0.00     0.024 A 
HETATM   20  C   UNL     1      29.976  45.574  56.896  1.00  0.00     0.034 A 
HETATM   21 CL   UNL     1      30.754  46.385  58.199  1.00  0.00    -0.084 Cl
HETATM   22  C   UNL     1      28.685  45.940  56.526  1.00  0.00     0.024 A 
HETATM   23  C   UNL     1      28.052  45.280  55.469  1.00  0.00     0.011 A 
ENDBRANCH  13  17
ENDBRANCH   9  13
BRANCH   1  24
HETATM   24  O   UNL     1      25.425  43.277  49.358  1.00  0.00    -0.354 OA
HETATM   25  C   UNL     1      24.442  42.628  48.562  1.00  0.00     0.210 C 
ENDBRANCH   1  24
BRANCH   3  26
HETATM   26  C   UNL     1      23.162  47.630  48.884  1.00  0.00     0.010 A 
HETATM   27  C   UNL     1      23.233  49.027  48.673  1.00  0.00     0.152 A 
HETATM   28  N   UNL     1      22.210  49.498  47.956  1.00  0.00    -0.187 NA
HETATM   29  N   UNL     1      21.476  48.403  47.701  1.00  0.00    -0.289 N 
HETATM   30  H   UNL     1      20.626  48.509  47.157  1.00  0.00     0.188 HD
HETATM   31  C   UNL     1      22.000  47.262  48.236  1.00  0.00     0.123 A 
ENDBRANCH   3  26
TORSDOF 5
ENDMDL
