MODEL 1
REMARK VINA RESULT:      -9.6      0.000      0.000
REMARK  6 active torsions:
REMARK  status: ('A' for Active; 'I' for Inactive)
REMARK    1  A    between atoms: O_2  and  C_3 
REMARK    2  A    between atoms: C_6  and  C_7 
REMARK    3  A    between atoms: C_11  and  C_12 
REMARK       I    between atoms: C_12  and  N_13 
REMARK    4  A    between atoms: N_13  and  N_14 
REMARK       I    between atoms: N_14  and  C_15 
REMARK    5  A    between atoms: C_15  and  C_16 
REMARK    6  A    between atoms: C_16  and  C_17 
ROOT
HETATM    1  C   UNL     1      24.540  46.316  50.521  1.00  0.00     0.288 C 
HETATM    2  N   UNL     1      23.913  47.541  50.435  1.00  0.00    -0.262 N 
HETATM    3  O   UNL     1      24.337  45.420  49.704  1.00  0.00    -0.264 OA
HETATM    4  H   UNL     1      23.968  48.246  51.167  1.00  0.00     0.190 HD
ENDROOT
BRANCH   1   5
HETATM    5  C   UNL     1      25.437  46.163  51.634  1.00  0.00     0.121 A 
HETATM    6  N   UNL     1      25.385  46.987  52.722  1.00  0.00    -0.272 N 
HETATM    7  N   UNL     1      26.281  46.697  53.677  1.00  0.00    -0.174 NA
HETATM    8  H   UNL     1      24.748  47.766  52.868  1.00  0.00     0.189 HD
HETATM    9  C   UNL     1      26.969  45.650  53.192  1.00  0.00     0.089 A 
HETATM   10  C   UNL     1      26.462  45.282  51.912  1.00  0.00     0.071 A 
BRANCH   9  11
HETATM   11  C   UNL     1      28.059  45.023  53.944  1.00  0.00    -0.005 A 
HETATM   12  C   UNL     1      28.645  45.685  55.033  1.00  0.00     0.016 A 
HETATM   13  C   UNL     1      29.672  45.086  55.776  1.00  0.00     0.037 A 
HETATM   14  C   UNL     1      30.131  43.816  55.436  1.00  0.00     0.068 A 
HETATM   15  C   UNL     1      29.566  43.159  54.342  1.00  0.00     0.037 A 
HETATM   16  C   UNL     1      28.539  43.752  53.602  1.00  0.00     0.016 A 
BRANCH  14  17
HETATM   17  O   UNL     1      31.117  43.117  56.076  1.00  0.00    -0.356 OA
HETATM   18  C   UNL     1      31.608  43.669  57.291  1.00  0.00     0.210 C 
ENDBRANCH  14  17
ENDBRANCH   9  11
ENDBRANCH   1   5
BRANCH   2  19
HETATM   19  N   UNL     1      22.898  47.722  49.489  1.00  0.00    -0.267 N 
HETATM   20  C   UNL     1      22.446  49.003  49.265  1.00  0.00     0.240 C 
HETATM   21  O   UNL     1      22.962  49.987  49.798  1.00  0.00    -0.272 OA
HETATM   22  H   UNL     1      22.460  46.883  49.108  1.00  0.00     0.190 HD
BRANCH  20  23
HETATM   23  C   UNL     1      21.276  49.103  48.309  1.00  0.00     0.144 C 
BRANCH  23  24
HETATM   24  C   UNL     1      20.254  50.119  48.758  1.00  0.00    -0.028 A 
HETATM   25  C   UNL     1      19.226  49.815  49.664  1.00  0.00     0.040 A 
HETATM   26 CL   UNL     1      19.057  48.241  50.356  1.00  0.00    -0.084 Cl
HETATM   27  C   UNL     1      18.296  50.790  50.036  1.00  0.00     0.024 A 
HETATM   28  C   UNL     1      18.372  52.076  49.502  1.00  0.00     0.002 A 
HETATM   29  C   UNL     1      19.376  52.387  48.590  1.00  0.00     0.001 A 
HETATM   30  C   UNL     1      20.308  51.416  48.218  1.00  0.00     0.009 A 
ENDBRANCH  23  24
ENDBRANCH  20  23
ENDBRANCH   2  19
TORSDOF 6
ENDMDL
MODEL 2
REMARK VINA RESULT:      -9.2      1.766      2.092
REMARK  6 active torsions:
REMARK  status: ('A' for Active; 'I' for Inactive)
REMARK    1  A    between atoms: O_2  and  C_3 
REMARK    2  A    between atoms: C_6  and  C_7 
REMARK    3  A    between atoms: C_11  and  C_12 
REMARK       I    between atoms: C_12  and  N_13 
REMARK    4  A    between atoms: N_13  and  N_14 
REMARK       I    between atoms: N_14  and  C_15 
REMARK    5  A    between atoms: C_15  and  C_16 
REMARK    6  A    between atoms: C_16  and  C_17 
ROOT
HETATM    1  C   UNL     1      25.091  45.082  50.165  1.00  0.00     0.288 C 
HETATM    2  N   UNL     1      24.203  46.081  50.504  1.00  0.00    -0.262 N 
HETATM    3  O   UNL     1      25.162  44.632  49.023  1.00  0.00    -0.264 OA
HETATM    4  H   UNL     1      24.039  46.377  51.463  1.00  0.00     0.190 HD
ENDROOT
BRANCH   1   5
HETATM    5  C   UNL     1      25.917  44.605  51.240  1.00  0.00     0.121 A 
HETATM    6  N   UNL     1      25.862  43.310  51.671  1.00  0.00    -0.272 N 
HETATM    7  N   UNL     1      26.710  43.026  52.672  1.00  0.00    -0.174 NA
HETATM    8  H   UNL     1      25.265  42.571  51.311  1.00  0.00     0.189 HD
HETATM    9  C   UNL     1      27.336  44.186  52.927  1.00  0.00     0.089 A 
HETATM   10  C   UNL     1      26.868  45.201  52.043  1.00  0.00     0.071 A 
BRANCH   9  11
HETATM   11  C   UNL     1      28.356  44.302  53.973  1.00  0.00    -0.005 A 
HETATM   12  C   UNL     1      28.413  45.442  54.789  1.00  0.00     0.016 A 
HETATM   13  C   UNL     1      29.367  45.555  55.808  1.00  0.00     0.037 A 
HETATM   14  C   UNL     1      30.284  44.529  56.024  1.00  0.00     0.068 A 
HETATM   15  C   UNL     1      30.247  43.400  55.205  1.00  0.00     0.037 A 
HETATM   16  C   UNL     1      29.292  43.283  54.190  1.00  0.00     0.016 A 
BRANCH  14  17
HETATM   17  O   UNL     1      31.260  44.508  56.983  1.00  0.00    -0.356 OA
HETATM   18  C   UNL     1      31.929  43.271  57.189  1.00  0.00     0.210 C 
ENDBRANCH  14  17
ENDBRANCH   9  11
ENDBRANCH   1   5
BRANCH   2  19
HETATM   19  N   UNL     1      23.245  46.486  49.569  1.00  0.00    -0.267 N 
HETATM   20  C   UNL     1      23.188  47.823  49.240  1.00  0.00     0.240 C 
HETATM   21  O   UNL     1      24.001  48.642  49.671  1.00  0.00    -0.272 OA
HETATM   22  H   UNL     1      22.557  45.793  49.274  1.00  0.00     0.190 HD
BRANCH  20  23
HETATM   23  C   UNL     1      22.057  48.198  48.306  1.00  0.00     0.144 C 
BRANCH  23  24
HETATM   24  C   UNL     1      21.010  49.047  48.985  1.00  0.00    -0.028 A 
HETATM   25  C   UNL     1      21.121  50.441  49.104  1.00  0.00     0.040 A 
HETATM   26 CL   UNL     1      22.471  51.306  48.460  1.00  0.00    -0.084 Cl
HETATM   27  C   UNL     1      20.129  51.180  49.756  1.00  0.00     0.024 A 
HETATM   28  C   UNL     1      19.021  50.538  50.307  1.00  0.00     0.002 A 
HETATM   29  C   UNL     1      18.906  49.154  50.211  1.00  0.00     0.001 A 
HETATM   30  C   UNL     1      19.894  48.413  49.559  1.00  0.00     0.009 A 
ENDBRANCH  23  24
ENDBRANCH  20  23
ENDBRANCH   2  19
TORSDOF 6
ENDMDL
MODEL 3
REMARK VINA RESULT:      -9.0      1.746      2.189
REMARK  6 active torsions:
REMARK  status: ('A' for Active; 'I' for Inactive)
REMARK    1  A    between atoms: O_2  and  C_3 
REMARK    2  A    between atoms: C_6  and  C_7 
REMARK    3  A    between atoms: C_11  and  C_12 
REMARK       I    between atoms: C_12  and  N_13 
REMARK    4  A    between atoms: N_13  and  N_14 
REMARK       I    between atoms: N_14  and  C_15 
REMARK    5  A    between atoms: C_15  and  C_16 
REMARK    6  A    between atoms: C_16  and  C_17 
ROOT
HETATM    1  C   UNL     1      23.898  45.190  48.990  1.00  0.00     0.288 C 
HETATM    2  N   UNL     1      23.277  46.317  49.484  1.00  0.00    -0.262 N 
HETATM    3  O   UNL     1      23.460  44.577  48.017  1.00  0.00    -0.264 OA
HETATM    4  H   UNL     1      23.547  46.761  50.359  1.00  0.00     0.190 HD
ENDROOT
BRANCH   1   5
HETATM    5  C   UNL     1      25.082  44.781  49.695  1.00  0.00     0.121 A 
HETATM    6  N   UNL     1      26.101  44.120  49.071  1.00  0.00    -0.272 N 
HETATM    7  N   UNL     1      27.138  43.826  49.870  1.00  0.00    -0.174 NA
HETATM    8  H   UNL     1      26.143  43.847  48.093  1.00  0.00     0.189 HD
HETATM    9  C   UNL     1      26.781  44.295  51.077  1.00  0.00     0.089 A 
HETATM   10  C   UNL     1      25.497  44.908  51.005  1.00  0.00     0.071 A 
BRANCH   9  11
HETATM   11  C   UNL     1      27.655  44.168  52.247  1.00  0.00    -0.005 A 
HETATM   12  C   UNL     1      28.739  43.278  52.233  1.00  0.00     0.016 A 
HETATM   13  C   UNL     1      29.597  43.166  53.335  1.00  0.00     0.037 A 
HETATM   14  C   UNL     1      29.379  43.940  54.472  1.00  0.00     0.068 A 
HETATM   15  C   UNL     1      28.291  44.814  54.502  1.00  0.00     0.037 A 
HETATM   16  C   UNL     1      27.436  44.932  53.401  1.00  0.00     0.016 A 
BRANCH  14  17
HETATM   17  O   UNL     1      30.138  43.934  55.610  1.00  0.00    -0.356 OA
HETATM   18  C   UNL     1      30.256  45.167  56.308  1.00  0.00     0.210 C 
ENDBRANCH  14  17
ENDBRANCH   9  11
ENDBRANCH   1   5
BRANCH   2  19
HETATM   19  N   UNL     1      22.030  46.688  48.971  1.00  0.00    -0.267 N 
HETATM   20  C   UNL     1      21.967  47.813  48.178  1.00  0.00     0.240 C 
HETATM   21  O   UNL     1      22.973  48.438  47.840  1.00  0.00    -0.272 OA
HETATM   22  H   UNL     1      21.214  46.181  49.313  1.00  0.00     0.190 HD
BRANCH  20  23
HETATM   23  C   UNL     1      20.569  48.209  47.752  1.00  0.00     0.144 C 
BRANCH  23  24
HETATM   24  C   UNL     1      20.101  49.474  48.428  1.00  0.00    -0.028 A 
HETATM   25  C   UNL     1      19.263  49.468  49.555  1.00  0.00     0.040 A 
HETATM   26 CL   UNL     1      18.711  47.997  50.273  1.00  0.00    -0.084 Cl
HETATM   27  C   UNL     1      18.846  50.669  50.136  1.00  0.00     0.024 A 
HETATM   28  C   UNL     1      19.248  51.890  49.595  1.00  0.00     0.002 A 
HETATM   29  C   UNL     1      20.065  51.911  48.468  1.00  0.00     0.001 A 
HETATM   30  C   UNL     1      20.485  50.713  47.887  1.00  0.00     0.009 A 
ENDBRANCH  23  24
ENDBRANCH  20  23
ENDBRANCH   2  19
TORSDOF 6
ENDMDL
MODEL 4
REMARK VINA RESULT:      -9.0      3.326     10.646
REMARK  6 active torsions:
REMARK  status: ('A' for Active; 'I' for Inactive)
REMARK    1  A    between atoms: O_2  and  C_3 
REMARK    2  A    between atoms: C_6  and  C_7 
REMARK    3  A    between atoms: C_11  and  C_12 
REMARK       I    between atoms: C_12  and  N_13 
REMARK    4  A    between atoms: N_13  and  N_14 
REMARK       I    between atoms: N_14  and  C_15 
REMARK    5  A    between atoms: C_15  and  C_16 
REMARK    6  A    between atoms: C_16  and  C_17 
ROOT
HETATM    1  C   UNL     1      25.941  46.484  50.116  1.00  0.00     0.288 C 
HETATM    2  N   UNL     1      25.737  45.997  51.390  1.00  0.00    -0.262 N 
HETATM    3  O   UNL     1      26.826  46.045  49.384  1.00  0.00    -0.264 OA
HETATM    4  H   UNL     1      25.099  46.431  52.054  1.00  0.00     0.190 HD
ENDROOT
BRANCH   1   5
HETATM    5  C   UNL     1      25.054  47.540  49.713  1.00  0.00     0.121 A 
HETATM    6  N   UNL     1      25.521  48.744  49.266  1.00  0.00    -0.272 N 
HETATM    7  N   UNL     1      24.560  49.612  48.915  1.00  0.00    -0.174 NA
HETATM    8  H   UNL     1      26.493  49.025  49.174  1.00  0.00     0.189 HD
HETATM    9  C   UNL     1      23.409  48.964  49.160  1.00  0.00     0.089 A 
HETATM   10  C   UNL     1      23.679  47.656  49.656  1.00  0.00     0.071 A 
BRANCH   9  11
HETATM   11  C   UNL     1      22.104  49.580  48.907  1.00  0.00    -0.005 A 
HETATM   12  C   UNL     1      20.947  48.791  48.832  1.00  0.00     0.016 A 
HETATM   13  C   UNL     1      19.689  49.370  48.616  1.00  0.00     0.037 A 
HETATM   14  C   UNL     1      19.571  50.750  48.466  1.00  0.00     0.068 A 
HETATM   15  C   UNL     1      20.720  51.540  48.522  1.00  0.00     0.037 A 
HETATM   16  C   UNL     1      21.976  50.965  48.742  1.00  0.00     0.016 A 
BRANCH  14  17
HETATM   17  O   UNL     1      18.410  51.442  48.258  1.00  0.00    -0.356 OA
HETATM   18  C   UNL     1      18.090  52.455  49.202  1.00  0.00     0.210 C 
ENDBRANCH  14  17
ENDBRANCH   9  11
ENDBRANCH   1   5
BRANCH   2  19
HETATM   19  N   UNL     1      26.657  45.093  51.929  1.00  0.00    -0.267 N 
HETATM   20  C   UNL     1      26.214  44.226  52.904  1.00  0.00     0.240 C 
HETATM   21  O   UNL     1      25.032  44.165  53.244  1.00  0.00    -0.272 OA
HETATM   22  H   UNL     1      27.635  45.206  51.663  1.00  0.00     0.190 HD
BRANCH  20  23
HETATM   23  C   UNL     1      27.292  43.354  53.512  1.00  0.00     0.144 C 
BRANCH  23  24
HETATM   24  C   UNL     1      28.199  44.126  54.438  1.00  0.00    -0.028 A 
HETATM   25  C   UNL     1      29.571  43.852  54.564  1.00  0.00     0.040 A 
HETATM   26 CL   UNL     1      30.338  42.605  53.647  1.00  0.00    -0.084 Cl
HETATM   27  C   UNL     1      30.365  44.588  55.449  1.00  0.00     0.024 A 
HETATM   28  C   UNL     1      29.801  45.599  56.226  1.00  0.00     0.002 A 
HETATM   29  C   UNL     1      28.439  45.871  56.123  1.00  0.00     0.001 A 
HETATM   30  C   UNL     1      27.644  45.139  55.240  1.00  0.00     0.009 A 
ENDBRANCH  23  24
ENDBRANCH  20  23
ENDBRANCH   2  19
TORSDOF 6
ENDMDL
MODEL 5
REMARK VINA RESULT:      -8.2      1.929      2.521
REMARK  6 active torsions:
REMARK  status: ('A' for Active; 'I' for Inactive)
REMARK    1  A    between atoms: O_2  and  C_3 
REMARK    2  A    between atoms: C_6  and  C_7 
REMARK    3  A    between atoms: C_11  and  C_12 
REMARK       I    between atoms: C_12  and  N_13 
REMARK    4  A    between atoms: N_13  and  N_14 
REMARK       I    between atoms: N_14  and  C_15 
REMARK    5  A    between atoms: C_15  and  C_16 
REMARK    6  A    between atoms: C_16  and  C_17 
ROOT
HETATM    1  C   UNL     1      23.806  47.808  49.456  1.00  0.00     0.288 C 
HETATM    2  N   UNL     1      22.473  47.516  49.259  1.00  0.00    -0.262 N 
HETATM    3  O   UNL     1      24.380  48.696  48.828  1.00  0.00    -0.264 OA
HETATM    4  H   UNL     1      22.015  46.707  49.672  1.00  0.00     0.190 HD
ENDROOT
BRANCH   1   5
HETATM    5  C   UNL     1      24.474  46.997  50.437  1.00  0.00     0.121 A 
HETATM    6  N   UNL     1      24.055  45.731  50.732  1.00  0.00    -0.272 N 
HETATM    7  N   UNL     1      24.798  45.107  51.659  1.00  0.00    -0.174 NA
HETATM    8  H   UNL     1      23.266  45.238  50.324  1.00  0.00     0.189 HD
HETATM    9  C   UNL     1      25.734  46.004  52.007  1.00  0.00     0.089 A 
HETATM   10  C   UNL     1      25.567  47.203  51.255  1.00  0.00     0.071 A 
BRANCH   9  11
HETATM   11  C   UNL     1      26.758  45.707  53.012  1.00  0.00    -0.005 A 
HETATM   12  C   UNL     1      27.062  46.639  54.016  1.00  0.00     0.016 A 
HETATM   13  C   UNL     1      28.021  46.358  54.998  1.00  0.00     0.037 A 
HETATM   14  C   UNL     1      28.695  45.139  54.987  1.00  0.00     0.068 A 
HETATM   15  C   UNL     1      28.412  44.213  53.982  1.00  0.00     0.037 A 
HETATM   16  C   UNL     1      27.452  44.490  53.003  1.00  0.00     0.016 A 
BRANCH  14  17
HETATM   17  O   UNL     1      29.645  44.735  55.885  1.00  0.00    -0.356 OA
HETATM   18  C   UNL     1      30.321  45.757  56.605  1.00  0.00     0.210 C 
ENDBRANCH  14  17
ENDBRANCH   9  11
ENDBRANCH   1   5
BRANCH   2  19
HETATM   19  N   UNL     1      21.789  48.134  48.208  1.00  0.00    -0.267 N 
HETATM   20  C   UNL     1      20.996  49.221  48.504  1.00  0.00     0.240 C 
HETATM   21  O   UNL     1      20.944  49.710  49.633  1.00  0.00    -0.272 OA
HETATM   22  H   UNL     1      21.814  47.672  47.298  1.00  0.00     0.190 HD
BRANCH  20  23
HETATM   23  C   UNL     1      20.206  49.766  47.333  1.00  0.00     0.144 C 
BRANCH  23  24
HETATM   24  C   UNL     1      18.744  49.943  47.660  1.00  0.00    -0.028 A 
HETATM   25  C   UNL     1      18.208  51.156  48.121  1.00  0.00     0.040 A 
HETATM   26 CL   UNL     1      19.190  52.561  48.337  1.00  0.00    -0.084 Cl
HETATM   27  C   UNL     1      16.848  51.263  48.425  1.00  0.00     0.024 A 
HETATM   28  C   UNL     1      16.007  50.160  48.283  1.00  0.00     0.002 A 
HETATM   29  C   UNL     1      16.526  48.946  47.843  1.00  0.00     0.001 A 
HETATM   30  C   UNL     1      17.884  48.837  47.536  1.00  0.00     0.009 A 
ENDBRANCH  23  24
ENDBRANCH  20  23
ENDBRANCH   2  19
TORSDOF 6
ENDMDL
MODEL 6
REMARK VINA RESULT:      -8.0      8.200     10.009
REMARK  6 active torsions:
REMARK  status: ('A' for Active; 'I' for Inactive)
REMARK    1  A    between atoms: O_2  and  C_3 
REMARK    2  A    between atoms: C_6  and  C_7 
REMARK    3  A    between atoms: C_11  and  C_12 
REMARK       I    between atoms: C_12  and  N_13 
REMARK    4  A    between atoms: N_13  and  N_14 
REMARK       I    between atoms: N_14  and  C_15 
REMARK    5  A    between atoms: C_15  and  C_16 
REMARK    6  A    between atoms: C_16  and  C_17 
ROOT
HETATM    1  C   UNL     1      27.549  41.119  49.571  1.00  0.00     0.288 C 
HETATM    2  N   UNL     1      27.247  39.784  49.406  1.00  0.00    -0.262 N 
HETATM    3  O   UNL     1      27.368  41.945  48.678  1.00  0.00    -0.264 OA
HETATM    4  H   UNL     1      27.507  39.069  50.081  1.00  0.00     0.190 HD
ENDROOT
BRANCH   1   5
HETATM    5  C   UNL     1      28.095  41.471  50.853  1.00  0.00     0.121 A 
HETATM    6  N   UNL     1      28.670  40.542  51.673  1.00  0.00    -0.272 N 
HETATM    7  N   UNL     1      29.143  41.040  52.825  1.00  0.00    -0.174 NA
HETATM    8  H   UNL     1      28.771  39.547  51.491  1.00  0.00     0.189 HD
HETATM    9  C   UNL     1      28.851  42.350  52.775  1.00  0.00     0.089 A 
HETATM   10  C   UNL     1      28.198  42.660  51.547  1.00  0.00     0.071 A 
BRANCH   9  11
HETATM   11  C   UNL     1      29.205  43.265  53.864  1.00  0.00    -0.005 A 
HETATM   12  C   UNL     1      30.346  43.033  54.646  1.00  0.00     0.016 A 
HETATM   13  C   UNL     1      30.709  43.913  55.674  1.00  0.00     0.037 A 
HETATM   14  C   UNL     1      29.932  45.039  55.937  1.00  0.00     0.068 A 
HETATM   15  C   UNL     1      28.786  45.268  55.175  1.00  0.00     0.037 A 
HETATM   16  C   UNL     1      28.423  44.392  54.146  1.00  0.00     0.016 A 
BRANCH  14  17
HETATM   17  O   UNL     1      30.175  45.979  56.901  1.00  0.00    -0.356 OA
HETATM   18  C   UNL     1      30.597  45.499  58.171  1.00  0.00     0.210 C 
ENDBRANCH  14  17
ENDBRANCH   9  11
ENDBRANCH   1   5
BRANCH   2  19
HETATM   19  N   UNL     1      26.874  39.322  48.140  1.00  0.00    -0.267 N 
HETATM   20  C   UNL     1      27.811  38.630  47.404  1.00  0.00     0.240 C 
HETATM   21  O   UNL     1      28.918  38.336  47.857  1.00  0.00    -0.272 OA
HETATM   22  H   UNL     1      25.971  39.629  47.777  1.00  0.00     0.190 HD
BRANCH  20  23
HETATM   23  C   UNL     1      27.368  38.258  46.005  1.00  0.00     0.144 C 
BRANCH  23  24
HETATM   24  C   UNL     1      28.211  38.918  44.942  1.00  0.00    -0.028 A 
HETATM   25  C   UNL     1      29.062  38.198  44.089  1.00  0.00     0.040 A 
HETATM   26 CL   UNL     1      29.201  36.478  44.181  1.00  0.00    -0.084 Cl
HETATM   27  C   UNL     1      29.834  38.860  43.130  1.00  0.00     0.024 A 
HETATM   28  C   UNL     1      29.775  40.248  43.015  1.00  0.00     0.002 A 
HETATM   29  C   UNL     1      28.947  40.977  43.864  1.00  0.00     0.001 A 
HETATM   30  C   UNL     1      28.174  40.319  44.822  1.00  0.00     0.009 A 
ENDBRANCH  23  24
ENDBRANCH  20  23
ENDBRANCH   2  19
TORSDOF 6
ENDMDL
MODEL 7
REMARK VINA RESULT:      -8.0      2.295      2.965
REMARK  6 active torsions:
REMARK  status: ('A' for Active; 'I' for Inactive)
REMARK    1  A    between atoms: O_2  and  C_3 
REMARK    2  A    between atoms: C_6  and  C_7 
REMARK    3  A    between atoms: C_11  and  C_12 
REMARK       I    between atoms: C_12  and  N_13 
REMARK    4  A    between atoms: N_13  and  N_14 
REMARK       I    between atoms: N_14  and  C_15 
REMARK    5  A    between atoms: C_15  and  C_16 
REMARK    6  A    between atoms: C_16  and  C_17 
ROOT
HETATM    1  C   UNL     1      23.746  45.426  49.667  1.00  0.00     0.288 C 
HETATM    2  N   UNL     1      23.531  46.783  49.545  1.00  0.00    -0.262 N 
HETATM    3  O   UNL     1      22.895  44.599  49.345  1.00  0.00    -0.264 OA
HETATM    4  H   UNL     1      24.167  47.481  49.922  1.00  0.00     0.190 HD
ENDROOT
BRANCH   1   5
HETATM    5  C   UNL     1      25.028  45.053  50.200  1.00  0.00     0.121 A 
HETATM    6  N   UNL     1      26.120  44.881  49.398  1.00  0.00    -0.272 N 
HETATM    7  N   UNL     1      27.241  44.549  50.058  1.00  0.00    -0.174 NA
HETATM    8  H   UNL     1      26.159  44.984  48.388  1.00  0.00     0.189 HD
HETATM    9  C   UNL     1      26.869  44.479  51.346  1.00  0.00     0.089 A 
HETATM   10  C   UNL     1      25.486  44.796  51.476  1.00  0.00     0.071 A 
BRANCH   9  11
HETATM   11  C   UNL     1      27.819  44.136  52.409  1.00  0.00    -0.005 A 
HETATM   12  C   UNL     1      27.714  44.729  53.676  1.00  0.00     0.016 A 
HETATM   13  C   UNL     1      28.600  44.391  54.708  1.00  0.00     0.037 A 
HETATM   14  C   UNL     1      29.609  43.456  54.485  1.00  0.00     0.068 A 
HETATM   15  C   UNL     1      29.731  42.875  53.222  1.00  0.00     0.037 A 
HETATM   16  C   UNL     1      28.845  43.207  52.191  1.00  0.00     0.016 A 
BRANCH  14  17
HETATM   17  O   UNL     1      30.532  43.032  55.401  1.00  0.00    -0.356 OA
HETATM   18  C   UNL     1      31.018  44.005  56.317  1.00  0.00     0.210 C 
ENDBRANCH  14  17
ENDBRANCH   9  11
ENDBRANCH   1   5
BRANCH   2  19
HETATM   19  N   UNL     1      22.256  47.241  49.199  1.00  0.00    -0.267 N 
HETATM   20  C   UNL     1      22.165  48.264  48.280  1.00  0.00     0.240 C 
HETATM   21  O   UNL     1      23.153  48.717  47.699  1.00  0.00    -0.272 OA
HETATM   22  H   UNL     1      21.467  46.882  49.737  1.00  0.00     0.190 HD
BRANCH  20  23
HETATM   23  C   UNL     1      20.761  48.777  48.040  1.00  0.00     0.144 C 
BRANCH  23  24
HETATM   24  C   UNL     1      19.801  47.670  47.677  1.00  0.00    -0.028 A 
HETATM   25  C   UNL     1      18.696  47.330  48.474  1.00  0.00     0.040 A 
HETATM   26 CL   UNL     1      18.337  48.171  49.940  1.00  0.00    -0.084 Cl
HETATM   27  C   UNL     1      17.845  46.286  48.100  1.00  0.00     0.024 A 
HETATM   28  C   UNL     1      18.090  45.561  46.935  1.00  0.00     0.002 A 
HETATM   29  C   UNL     1      19.191  45.877  46.143  1.00  0.00     0.001 A 
HETATM   30  C   UNL     1      20.042  46.921  46.513  1.00  0.00     0.009 A 
ENDBRANCH  23  24
ENDBRANCH  20  23
ENDBRANCH   2  19
TORSDOF 6
ENDMDL
MODEL 8
REMARK VINA RESULT:      -8.0      7.085      9.593
REMARK  6 active torsions:
REMARK  status: ('A' for Active; 'I' for Inactive)
REMARK    1  A    between atoms: O_2  and  C_3 
REMARK    2  A    between atoms: C_6  and  C_7 
REMARK    3  A    between atoms: C_11  and  C_12 
REMARK       I    between atoms: C_12  and  N_13 
REMARK    4  A    between atoms: N_13  and  N_14 
REMARK       I    between atoms: N_14  and  C_15 
REMARK    5  A    between atoms: C_15  and  C_16 
REMARK    6  A    between atoms: C_16  and  C_17 
ROOT
HETATM    1  C   UNL     1      26.339  41.268  50.686  1.00  0.00     0.288 C 
HETATM    2  N   UNL     1      26.763  40.004  51.036  1.00  0.00    -0.262 N 
HETATM    3  O   UNL     1      25.583  41.464  49.736  1.00  0.00    -0.264 OA
HETATM    4  H   UNL     1      27.484  39.833  51.733  1.00  0.00     0.190 HD
ENDROOT
BRANCH   1   5
HETATM    5  C   UNL     1      26.848  42.335  51.505  1.00  0.00     0.121 A 
HETATM    6  N   UNL     1      26.606  43.647  51.213  1.00  0.00    -0.272 N 
HETATM    7  N   UNL     1      27.140  44.513  52.087  1.00  0.00    -0.174 NA
HETATM    8  H   UNL     1      26.074  44.009  50.427  1.00  0.00     0.189 HD
HETATM    9  C   UNL     1      27.779  43.744  52.983  1.00  0.00     0.089 A 
HETATM   10  C   UNL     1      27.612  42.367  52.654  1.00  0.00     0.071 A 
BRANCH   9  11
HETATM   11  C   UNL     1      28.505  44.317  54.119  1.00  0.00    -0.005 A 
HETATM   12  C   UNL     1      28.038  45.479  54.750  1.00  0.00     0.016 A 
HETATM   13  C   UNL     1      28.710  46.024  55.853  1.00  0.00     0.037 A 
HETATM   14  C   UNL     1      29.864  45.414  56.339  1.00  0.00     0.068 A 
HETATM   15  C   UNL     1      30.346  44.268  55.706  1.00  0.00     0.037 A 
HETATM   16  C   UNL     1      29.675  43.720  54.607  1.00  0.00     0.016 A 
BRANCH  14  17
HETATM   17  O   UNL     1      30.610  45.834  57.406  1.00  0.00    -0.356 OA
HETATM   18  C   UNL     1      31.108  44.826  58.276  1.00  0.00     0.210 C 
ENDBRANCH  14  17
ENDBRANCH   9  11
ENDBRANCH   1   5
BRANCH   2  19
HETATM   19  N   UNL     1      26.459  38.928  50.196  1.00  0.00    -0.267 N 
HETATM   20  C   UNL     1      27.505  38.269  49.587  1.00  0.00     0.240 C 
HETATM   21  O   UNL     1      28.683  38.539  49.826  1.00  0.00    -0.272 OA
HETATM   22  H   UNL     1      25.475  38.766  49.981  1.00  0.00     0.190 HD
BRANCH  20  23
HETATM   23  C   UNL     1      27.089  37.188  48.612  1.00  0.00     0.144 C 
BRANCH  23  24
HETATM   24  C   UNL     1      27.452  37.530  47.188  1.00  0.00    -0.028 A 
HETATM   25  C   UNL     1      26.630  38.311  46.360  1.00  0.00     0.040 A 
HETATM   26 CL   UNL     1      25.130  38.962  46.918  1.00  0.00    -0.084 Cl
HETATM   27  C   UNL     1      27.005  38.587  45.042  1.00  0.00     0.024 A 
HETATM   28  C   UNL     1      28.199  38.079  44.529  1.00  0.00     0.002 A 
HETATM   29  C   UNL     1      29.016  37.290  45.333  1.00  0.00     0.001 A 
HETATM   30  C   UNL     1      28.645  37.014  46.651  1.00  0.00     0.009 A 
ENDBRANCH  23  24
ENDBRANCH  20  23
ENDBRANCH   2  19
TORSDOF 6
ENDMDL
MODEL 9
REMARK VINA RESULT:      -7.8     18.304     20.439
REMARK  6 active torsions:
REMARK  status: ('A' for Active; 'I' for Inactive)
REMARK    1  A    between atoms: O_2  and  C_3 
REMARK    2  A    between atoms: C_6  and  C_7 
REMARK    3  A    between atoms: C_11  and  C_12 
REMARK       I    between atoms: C_12  and  N_13 
REMARK    4  A    between atoms: N_13  and  N_14 
REMARK       I    between atoms: N_14  and  C_15 
REMARK    5  A    between atoms: C_15  and  C_16 
REMARK    6  A    between atoms: C_16  and  C_17 
ROOT
HETATM    1  C   UNL     1      38.609  42.943  63.150  1.00  0.00     0.288 C 
HETATM    2  N   UNL     1      37.543  43.272  63.959  1.00  0.00    -0.262 N 
HETATM    3  O   UNL     1      39.101  43.746  62.359  1.00  0.00    -0.264 OA
HETATM    4  H   UNL     1      37.042  42.588  64.522  1.00  0.00     0.190 HD
ENDROOT
BRANCH   1   5
HETATM    5  C   UNL     1      39.095  41.597  63.291  1.00  0.00     0.121 A 
HETATM    6  N   UNL     1      39.179  40.744  62.228  1.00  0.00    -0.272 N 
HETATM    7  N   UNL     1      39.668  39.532  62.530  1.00  0.00    -0.174 NA
HETATM    8  H   UNL     1      38.919  40.941  61.265  1.00  0.00     0.189 HD
HETATM    9  C   UNL     1      39.899  39.579  63.852  1.00  0.00     0.089 A 
HETATM   10  C   UNL     1      39.557  40.863  64.365  1.00  0.00     0.071 A 
BRANCH   9  11
HETATM   11  C   UNL     1      40.444  38.432  64.585  1.00  0.00    -0.005 A 
HETATM   12  C   UNL     1      39.838  37.992  65.771  1.00  0.00     0.016 A 
HETATM   13  C   UNL     1      40.334  36.882  66.468  1.00  0.00     0.037 A 
HETATM   14  C   UNL     1      41.448  36.197  65.989  1.00  0.00     0.068 A 
HETATM   15  C   UNL     1      42.068  36.639  64.820  1.00  0.00     0.037 A 
HETATM   16  C   UNL     1      41.573  37.745  64.120  1.00  0.00     0.016 A 
BRANCH  14  17
HETATM   17  O   UNL     1      42.029  35.100  66.564  1.00  0.00    -0.356 OA
HETATM   18  C   UNL     1      41.413  33.844  66.313  1.00  0.00     0.210 C 
ENDBRANCH  14  17
ENDBRANCH   9  11
ENDBRANCH   1   5
BRANCH   2  19
HETATM   19  N   UNL     1      36.896  44.497  63.769  1.00  0.00    -0.267 N 
HETATM   20  C   UNL     1      37.175  45.518  64.651  1.00  0.00     0.240 C 
HETATM   21  O   UNL     1      38.029  45.412  65.532  1.00  0.00    -0.272 OA
HETATM   22  H   UNL     1      36.159  44.532  63.064  1.00  0.00     0.190 HD
BRANCH  20  23
HETATM   23  C   UNL     1      36.356  46.774  64.444  1.00  0.00     0.144 C 
BRANCH  23  24
HETATM   24  C   UNL     1      36.886  47.942  65.239  1.00  0.00    -0.028 A 
HETATM   25  C   UNL     1      36.489  48.206  66.559  1.00  0.00     0.040 A 
HETATM   26 CL   UNL     1      35.361  47.196  67.391  1.00  0.00    -0.084 Cl
HETATM   27  C   UNL     1      37.000  49.311  67.248  1.00  0.00     0.024 A 
HETATM   28  C   UNL     1      37.904  50.171  66.625  1.00  0.00     0.002 A 
HETATM   29  C   UNL     1      38.294  49.930  65.311  1.00  0.00     0.001 A 
HETATM   30  C   UNL     1      37.788  48.827  64.622  1.00  0.00     0.009 A 
ENDBRANCH  23  24
ENDBRANCH  20  23
ENDBRANCH   2  19
TORSDOF 6
ENDMDL
MODEL 10
REMARK VINA RESULT:      -7.8      7.352     11.161
REMARK  6 active torsions:
REMARK  status: ('A' for Active; 'I' for Inactive)
REMARK    1  A    between atoms: O_2  and  C_3 
REMARK    2  A    between atoms: C_6  and  C_7 
REMARK    3  A    between atoms: C_11  and  C_12 
REMARK       I    between atoms: C_12  and  N_13 
REMARK    4  A    between atoms: N_13  and  N_14 
REMARK       I    between atoms: N_14  and  C_15 
REMARK    5  A    between atoms: C_15  and  C_16 
REMARK    6  A    between atoms: C_16  and  C_17 
ROOT
HETATM    1  C   UNL     1      26.464  41.031  50.710  1.00  0.00     0.288 C 
HETATM    2  N   UNL     1      27.459  41.272  51.634  1.00  0.00    -0.262 N 
HETATM    3  O   UNL     1      25.398  41.643  50.723  1.00  0.00    -0.264 OA
HETATM    4  H   UNL     1      28.290  40.692  51.719  1.00  0.00     0.190 HD
ENDROOT
BRANCH   1   5
HETATM    5  C   UNL     1      26.761  40.012  49.741  1.00  0.00     0.121 A 
HETATM    6  N   UNL     1      26.421  38.704  49.941  1.00  0.00    -0.272 N 
HETATM    7  N   UNL     1      26.756  37.886  48.932  1.00  0.00    -0.174 NA
HETATM    8  H   UNL     1      25.949  38.313  50.753  1.00  0.00     0.189 HD
HETATM    9  C   UNL     1      27.362  38.682  48.036  1.00  0.00     0.089 A 
HETATM   10  C   UNL     1      27.378  40.027  48.506  1.00  0.00     0.071 A 
BRANCH   9  11
HETATM   11  C   UNL     1      27.888  38.164  46.770  1.00  0.00    -0.005 A 
HETATM   12  C   UNL     1      28.398  36.859  46.691  1.00  0.00     0.016 A 
HETATM   13  C   UNL     1      28.881  36.343  45.481  1.00  0.00     0.037 A 
HETATM   14  C   UNL     1      28.865  37.128  44.331  1.00  0.00     0.068 A 
HETATM   15  C   UNL     1      28.376  38.433  44.404  1.00  0.00     0.037 A 
HETATM   16  C   UNL     1      27.889  38.949  45.610  1.00  0.00     0.016 A 
BRANCH  14  17
HETATM   17  O   UNL     1      29.298  36.749  43.090  1.00  0.00    -0.356 OA
HETATM   18  C   UNL     1      28.939  37.590  42.001  1.00  0.00     0.210 C 
ENDBRANCH  14  17
ENDBRANCH   9  11
ENDBRANCH   1   5
BRANCH   2  19
HETATM   19  N   UNL     1      27.194  42.120  52.714  1.00  0.00    -0.267 N 
HETATM   20  C   UNL     1      27.721  43.392  52.680  1.00  0.00     0.240 C 
HETATM   21  O   UNL     1      28.334  43.826  51.703  1.00  0.00    -0.272 OA
HETATM   22  H   UNL     1      26.730  41.712  53.526  1.00  0.00     0.190 HD
BRANCH  20  23
HETATM   23  C   UNL     1      27.481  44.211  53.931  1.00  0.00     0.144 C 
BRANCH  23  24
HETATM   24  C   UNL     1      28.721  44.335  54.782  1.00  0.00    -0.028 A 
HETATM   25  C   UNL     1      29.066  45.517  55.455  1.00  0.00     0.040 A 
HETATM   26 CL   UNL     1      28.080  46.933  55.375  1.00  0.00    -0.084 Cl
HETATM   27  C   UNL     1      30.235  45.585  56.219  1.00  0.00     0.024 A 
HETATM   28  C   UNL     1      31.079  44.479  56.313  1.00  0.00     0.002 A 
HETATM   29  C   UNL     1      30.758  43.305  55.637  1.00  0.00     0.001 A 
HETATM   30  C   UNL     1      29.590  43.234  54.875  1.00  0.00     0.009 A 
ENDBRANCH  23  24
ENDBRANCH  20  23
ENDBRANCH   2  19
TORSDOF 6
ENDMDL
