MODEL 1
REMARK VINA RESULT:      -8.6      0.000      0.000
REMARK  6 active torsions:
REMARK  status: ('A' for Active; 'I' for Inactive)
REMARK    1  A    between atoms: C_6  and  C_7 
REMARK       I    between atoms: C_7  and  N_8 
REMARK    2  A    between atoms: N_8  and  C_9 
REMARK    3  A    between atoms: C_9  and  C_10 
REMARK    4  A    between atoms: C_10  and  O_11 
REMARK    5  A    between atoms: C_10  and  C_12 
REMARK    6  A    between atoms: C_15  and  O_16 
ROOT
HETATM    1  C   UNL     1      25.535  47.253  50.709  1.00  0.00     0.258 C 
HETATM    2  N   UNL     1      25.475  45.953  50.258  1.00  0.00    -0.350 N 
HETATM    3  O   UNL     1      25.713  47.540  51.887  1.00  0.00    -0.267 OA
HETATM    4  H   UNL     1      25.310  45.815  49.262  1.00  0.00     0.163 HD
ENDROOT
BRANCH   2   5
HETATM    5  C   UNL     1      25.586  44.771  51.123  1.00  0.00     0.114 C 
HETATM    6  C   UNL     1      24.357  43.868  50.989  1.00  0.00     0.035 C 
BRANCH   5   7
HETATM    7  C   UNL     1      26.931  44.027  50.889  1.00  0.00     0.173 C 
BRANCH   7   8
HETATM    8  O   UNL     1      27.668  44.728  49.871  1.00  0.00    -0.389 OA
HETATM    9  H   UNL     1      28.222  44.051  49.443  1.00  0.00     0.210 HD
ENDBRANCH   7   8
BRANCH   7  10
HETATM   10  C   UNL     1      27.807  43.934  52.119  1.00  0.00    -0.028 A 
HETATM   11  C   UNL     1      28.931  43.097  52.114  1.00  0.00     0.012 A 
HETATM   12  C   UNL     1      29.747  42.996  53.243  1.00  0.00     0.037 A 
HETATM   13  C   UNL     1      29.463  43.731  54.395  1.00  0.00     0.068 A 
HETATM   14  C   UNL     1      28.340  44.558  54.415  1.00  0.00     0.037 A 
HETATM   15  C   UNL     1      27.518  44.657  53.286  1.00  0.00     0.012 A 
BRANCH  13  16
HETATM   16  O   UNL     1      30.349  43.551  55.422  1.00  0.00    -0.356 OA
HETATM   17  C   UNL     1      30.638  44.690  56.222  1.00  0.00     0.210 C 
ENDBRANCH  13  16
ENDBRANCH   7  10
ENDBRANCH   5   7
ENDBRANCH   2   5
BRANCH   1  18
HETATM   18  C   UNL     1      25.343  48.267  49.686  1.00  0.00     0.105 A 
HETATM   19  C   UNL     1      26.341  49.002  48.990  1.00  0.00     0.071 A 
HETATM   20  C   UNL     1      27.816  48.895  49.133  1.00  0.00     0.073 C 
HETATM   21  N   UNL     1      25.818  49.873  48.119  1.00  0.00    -0.170 NA
HETATM   22  N   UNL     1      24.481  49.726  48.242  1.00  0.00    -0.225 N 
HETATM   23  C   UNL     1      24.146  48.749  49.184  1.00  0.00     0.168 A 
HETATM   24  C   UNL     1      23.488  50.422  47.561  1.00  0.00     0.122 A 
HETATM   25  N   UNL     1      22.838  48.433  49.471  1.00  0.00    -0.240 NA
HETATM   26  C   UNL     1      21.939  49.107  48.814  1.00  0.00     0.120 A 
HETATM   27  C   UNL     1      22.195  50.165  47.799  1.00  0.00     0.038 A 
ENDBRANCH   1  18
TORSDOF 6
ENDMDL
MODEL 2
REMARK VINA RESULT:      -8.5      3.648      7.944
REMARK  6 active torsions:
REMARK  status: ('A' for Active; 'I' for Inactive)
REMARK    1  A    between atoms: C_6  and  C_7 
REMARK       I    between atoms: C_7  and  N_8 
REMARK    2  A    between atoms: N_8  and  C_9 
REMARK    3  A    between atoms: C_9  and  C_10 
REMARK    4  A    between atoms: C_10  and  O_11 
REMARK    5  A    between atoms: C_10  and  C_12 
REMARK    6  A    between atoms: C_15  and  O_16 
ROOT
HETATM    1  C   UNL     1      28.928  43.828  53.358  1.00  0.00     0.258 C 
HETATM    2  N   UNL     1      27.625  43.546  53.013  1.00  0.00    -0.350 N 
HETATM    3  O   UNL     1      29.887  43.456  52.691  1.00  0.00    -0.267 OA
HETATM    4  H   UNL     1      26.895  43.888  53.638  1.00  0.00     0.163 HD
ENDROOT
BRANCH   2   5
HETATM    5  C   UNL     1      27.231  42.753  51.840  1.00  0.00     0.114 C 
HETATM    6  C   UNL     1      27.229  41.256  52.159  1.00  0.00     0.035 C 
BRANCH   5   7
HETATM    7  C   UNL     1      25.889  43.263  51.242  1.00  0.00     0.173 C 
BRANCH   7   8
HETATM    8  O   UNL     1      24.852  43.070  52.220  1.00  0.00    -0.389 OA
HETATM    9  H   UNL     1      24.681  42.112  52.227  1.00  0.00     0.210 HD
ENDBRANCH   7   8
BRANCH   7  10
HETATM   10  C   UNL     1      25.901  44.726  50.856  1.00  0.00    -0.028 A 
HETATM   11  C   UNL     1      26.840  45.194  49.926  1.00  0.00     0.012 A 
HETATM   12  C   UNL     1      26.866  46.543  49.562  1.00  0.00     0.037 A 
HETATM   13  C   UNL     1      25.956  47.447  50.112  1.00  0.00     0.068 A 
HETATM   14  C   UNL     1      25.027  46.993  51.047  1.00  0.00     0.037 A 
HETATM   15  C   UNL     1      25.001  45.643  51.417  1.00  0.00     0.012 A 
BRANCH  13  16
HETATM   16  O   UNL     1      26.083  48.732  49.661  1.00  0.00    -0.356 OA
HETATM   17  C   UNL     1      27.349  49.100  49.130  1.00  0.00     0.210 C 
ENDBRANCH  13  16
ENDBRANCH   7  10
ENDBRANCH   5   7
ENDBRANCH   2   5
BRANCH   1  18
HETATM   18  C   UNL     1      29.088  44.580  54.591  1.00  0.00     0.105 A 
HETATM   19  C   UNL     1      28.396  45.755  54.991  1.00  0.00     0.071 A 
HETATM   20  C   UNL     1      27.333  46.482  54.250  1.00  0.00     0.073 C 
HETATM   21  N   UNL     1      28.798  46.202  56.186  1.00  0.00    -0.170 NA
HETATM   22  N   UNL     1      29.759  45.335  56.574  1.00  0.00    -0.225 N 
HETATM   23  C   UNL     1      29.964  44.324  55.632  1.00  0.00     0.168 A 
HETATM   24  C   UNL     1      30.508  45.373  57.746  1.00  0.00     0.122 A 
HETATM   25  N   UNL     1      30.897  43.331  55.821  1.00  0.00    -0.240 NA
HETATM   26  C   UNL     1      31.578  43.402  56.929  1.00  0.00     0.120 A 
HETATM   27  C   UNL     1      31.436  44.439  57.987  1.00  0.00     0.038 A 
ENDBRANCH   1  18
TORSDOF 6
ENDMDL
MODEL 3
REMARK VINA RESULT:      -8.0      3.533      9.330
REMARK  6 active torsions:
REMARK  status: ('A' for Active; 'I' for Inactive)
REMARK    1  A    between atoms: C_6  and  C_7 
REMARK       I    between atoms: C_7  and  N_8 
REMARK    2  A    between atoms: N_8  and  C_9 
REMARK    3  A    between atoms: C_9  and  C_10 
REMARK    4  A    between atoms: C_10  and  O_11 
REMARK    5  A    between atoms: C_10  and  C_12 
REMARK    6  A    between atoms: C_15  and  O_16 
ROOT
HETATM    1  C   UNL     1      24.322  47.792  49.946  1.00  0.00     0.258 C 
HETATM    2  N   UNL     1      22.972  47.821  49.674  1.00  0.00    -0.350 N 
HETATM    3  O   UNL     1      25.089  48.682  49.596  1.00  0.00    -0.267 OA
HETATM    4  H   UNL     1      22.417  47.029  49.994  1.00  0.00     0.163 HD
ENDROOT
BRANCH   2   5
HETATM    5  C   UNL     1      22.302  48.888  48.918  1.00  0.00     0.114 C 
HETATM    6  C   UNL     1      21.082  48.353  48.164  1.00  0.00     0.035 C 
BRANCH   5   7
HETATM    7  C   UNL     1      21.983  50.107  49.829  1.00  0.00     0.173 C 
BRANCH   7   8
HETATM    8  O   UNL     1      23.010  51.097  49.643  1.00  0.00    -0.389 OA
HETATM    9  H   UNL     1      22.580  51.826  49.163  1.00  0.00     0.210 HD
ENDBRANCH   7   8
BRANCH   7  10
HETATM   10  C   UNL     1      20.647  50.760  49.543  1.00  0.00    -0.028 A 
HETATM   11  C   UNL     1      19.522  50.408  50.301  1.00  0.00     0.012 A 
HETATM   12  C   UNL     1      18.282  50.998  50.046  1.00  0.00     0.037 A 
HETATM   13  C   UNL     1      18.141  51.953  49.038  1.00  0.00     0.068 A 
HETATM   14  C   UNL     1      19.252  52.301  48.270  1.00  0.00     0.037 A 
HETATM   15  C   UNL     1      20.495  51.707  48.521  1.00  0.00     0.012 A 
BRANCH  13  16
HETATM   16  O   UNL     1      16.878  52.460  48.903  1.00  0.00    -0.356 OA
HETATM   17  C   UNL     1      16.319  53.091  50.047  1.00  0.00     0.210 C 
ENDBRANCH  13  16
ENDBRANCH   7  10
ENDBRANCH   5   7
ENDBRANCH   2   5
BRANCH   1  18
HETATM   18  C   UNL     1      24.780  46.611  50.657  1.00  0.00     0.105 A 
HETATM   19  C   UNL     1      24.792  45.267  50.197  1.00  0.00     0.071 A 
HETATM   20  C   UNL     1      24.354  44.754  48.873  1.00  0.00     0.073 C 
HETATM   21  N   UNL     1      25.266  44.418  51.115  1.00  0.00    -0.170 NA
HETATM   22  N   UNL     1      25.560  45.191  52.184  1.00  0.00    -0.225 N 
HETATM   23  C   UNL     1      25.284  46.541  51.945  1.00  0.00     0.168 A 
HETATM   24  C   UNL     1      26.069  44.780  53.411  1.00  0.00     0.122 A 
HETATM   25  N   UNL     1      25.506  47.508  52.897  1.00  0.00    -0.240 NA
HETATM   26  C   UNL     1      25.982  47.083  54.032  1.00  0.00     0.120 A 
HETATM   27  C   UNL     1      26.302  45.672  54.381  1.00  0.00     0.038 A 
ENDBRANCH   1  18
TORSDOF 6
ENDMDL
MODEL 4
REMARK VINA RESULT:      -8.0      1.900      2.927
REMARK  6 active torsions:
REMARK  status: ('A' for Active; 'I' for Inactive)
REMARK    1  A    between atoms: C_6  and  C_7 
REMARK       I    between atoms: C_7  and  N_8 
REMARK    2  A    between atoms: N_8  and  C_9 
REMARK    3  A    between atoms: C_9  and  C_10 
REMARK    4  A    between atoms: C_10  and  O_11 
REMARK    5  A    between atoms: C_10  and  C_12 
REMARK    6  A    between atoms: C_15  and  O_16 
ROOT
HETATM    1  C   UNL     1      25.458  47.194  50.994  1.00  0.00     0.258 C 
HETATM    2  N   UNL     1      25.285  46.511  52.177  1.00  0.00    -0.350 N 
HETATM    3  O   UNL     1      26.433  47.903  50.772  1.00  0.00    -0.267 OA
HETATM    4  H   UNL     1      24.435  45.958  52.274  1.00  0.00     0.163 HD
ENDROOT
BRANCH   2   5
HETATM    5  C   UNL     1      26.217  46.571  53.312  1.00  0.00     0.114 C 
HETATM    6  C   UNL     1      25.888  47.742  54.240  1.00  0.00     0.035 C 
BRANCH   5   7
HETATM    7  C   UNL     1      26.299  45.202  54.044  1.00  0.00     0.173 C 
BRANCH   7   8
HETATM    8  O   UNL     1      25.891  44.170  53.128  1.00  0.00    -0.389 OA
HETATM    9  H   UNL     1      26.049  43.332  53.598  1.00  0.00     0.210 HD
ENDBRANCH   7   8
BRANCH   7  10
HETATM   10  C   UNL     1      27.682  44.855  54.553  1.00  0.00    -0.028 A 
HETATM   11  C   UNL     1      28.327  45.709  55.457  1.00  0.00     0.012 A 
HETATM   12  C   UNL     1      29.605  45.405  55.932  1.00  0.00     0.037 A 
HETATM   13  C   UNL     1      30.260  44.243  55.521  1.00  0.00     0.068 A 
HETATM   14  C   UNL     1      29.632  43.393  54.612  1.00  0.00     0.037 A 
HETATM   15  C   UNL     1      28.353  43.698  54.131  1.00  0.00     0.012 A 
BRANCH  13  16
HETATM   16  O   UNL     1      31.499  44.059  56.072  1.00  0.00    -0.356 OA
HETATM   17  C   UNL     1      31.559  43.277  57.257  1.00  0.00     0.210 C 
ENDBRANCH  13  16
ENDBRANCH   7  10
ENDBRANCH   5   7
ENDBRANCH   2   5
BRANCH   1  18
HETATM   18  C   UNL     1      24.381  47.036  50.031  1.00  0.00     0.105 A 
HETATM   19  C   UNL     1      23.952  45.841  49.392  1.00  0.00     0.071 A 
HETATM   20  C   UNL     1      24.493  44.468  49.572  1.00  0.00     0.073 C 
HETATM   21  N   UNL     1      22.938  46.050  48.545  1.00  0.00    -0.170 NA
HETATM   22  N   UNL     1      22.700  47.379  48.612  1.00  0.00    -0.225 N 
HETATM   23  C   UNL     1      23.555  48.019  49.514  1.00  0.00     0.168 A 
HETATM   24  C   UNL     1      21.749  48.103  47.903  1.00  0.00     0.122 A 
HETATM   25  N   UNL     1      23.490  49.374  49.741  1.00  0.00    -0.240 NA
HETATM   26  C   UNL     1      22.587  50.017  49.057  1.00  0.00     0.120 A 
HETATM   27  C   UNL     1      21.638  49.427  48.075  1.00  0.00     0.038 A 
ENDBRANCH   1  18
TORSDOF 6
ENDMDL
MODEL 5
REMARK VINA RESULT:      -8.0      2.833      4.261
REMARK  6 active torsions:
REMARK  status: ('A' for Active; 'I' for Inactive)
REMARK    1  A    between atoms: C_6  and  C_7 
REMARK       I    between atoms: C_7  and  N_8 
REMARK    2  A    between atoms: N_8  and  C_9 
REMARK    3  A    between atoms: C_9  and  C_10 
REMARK    4  A    between atoms: C_10  and  O_11 
REMARK    5  A    between atoms: C_10  and  C_12 
REMARK    6  A    between atoms: C_15  and  O_16 
ROOT
HETATM    1  C   UNL     1      26.502  44.244  53.538  1.00  0.00     0.258 C 
HETATM    2  N   UNL     1      27.487  43.567  52.852  1.00  0.00    -0.350 N 
HETATM    3  O   UNL     1      26.085  43.880  54.632  1.00  0.00    -0.267 OA
HETATM    4  H   UNL     1      27.758  43.939  51.943  1.00  0.00     0.163 HD
ENDROOT
BRANCH   2   5
HETATM    5  C   UNL     1      28.127  42.332  53.326  1.00  0.00     0.114 C 
HETATM    6  C   UNL     1      27.735  41.136  52.455  1.00  0.00     0.035 C 
BRANCH   5   7
HETATM    7  C   UNL     1      29.664  42.517  53.473  1.00  0.00     0.173 C 
BRANCH   7   8
HETATM    8  O   UNL     1      30.139  43.288  52.356  1.00  0.00    -0.389 OA
HETATM    9  H   UNL     1      31.076  43.042  52.254  1.00  0.00     0.210 HD
ENDBRANCH   7   8
BRANCH   7  10
HETATM   10  C   UNL     1      30.082  43.226  54.743  1.00  0.00    -0.028 A 
HETATM   11  C   UNL     1      29.604  44.516  55.011  1.00  0.00     0.012 A 
HETATM   12  C   UNL     1      29.984  45.186  56.176  1.00  0.00     0.037 A 
HETATM   13  C   UNL     1      30.840  44.582  57.098  1.00  0.00     0.068 A 
HETATM   14  C   UNL     1      31.331  43.304  56.835  1.00  0.00     0.037 A 
HETATM   15  C   UNL     1      30.955  42.632  55.665  1.00  0.00     0.012 A 
BRANCH  13  16
HETATM   16  O   UNL     1      31.121  45.341  58.201  1.00  0.00    -0.356 OA
HETATM   17  C   UNL     1      30.203  46.381  58.509  1.00  0.00     0.210 C 
ENDBRANCH  13  16
ENDBRANCH   7  10
ENDBRANCH   5   7
ENDBRANCH   2   5
BRANCH   1  18
HETATM   18  C   UNL     1      25.969  45.410  52.855  1.00  0.00     0.105 A 
HETATM   19  C   UNL     1      25.934  46.752  53.322  1.00  0.00     0.071 A 
HETATM   20  C   UNL     1      26.449  47.281  54.612  1.00  0.00     0.073 C 
HETATM   21  N   UNL     1      25.357  47.582  52.446  1.00  0.00    -0.170 NA
HETATM   22  N   UNL     1      25.002  46.796  51.406  1.00  0.00    -0.225 N 
HETATM   23  C   UNL     1      25.364  45.461  51.612  1.00  0.00     0.168 A 
HETATM   24  C   UNL     1      24.348  47.180  50.241  1.00  0.00     0.122 A 
HETATM   25  N   UNL     1      25.098  44.484  50.680  1.00  0.00    -0.240 NA
HETATM   26  C   UNL     1      24.485  44.884  49.604  1.00  0.00     0.120 A 
HETATM   27  C   UNL     1      24.056  46.276  49.297  1.00  0.00     0.038 A 
ENDBRANCH   1  18
TORSDOF 6
ENDMDL
MODEL 6
REMARK VINA RESULT:      -7.9      3.006      6.774
REMARK  6 active torsions:
REMARK  status: ('A' for Active; 'I' for Inactive)
REMARK    1  A    between atoms: C_6  and  C_7 
REMARK       I    between atoms: C_7  and  N_8 
REMARK    2  A    between atoms: N_8  and  C_9 
REMARK    3  A    between atoms: C_9  and  C_10 
REMARK    4  A    between atoms: C_10  and  O_11 
REMARK    5  A    between atoms: C_10  and  C_12 
REMARK    6  A    between atoms: C_15  and  O_16 
ROOT
HETATM    1  C   UNL     1      28.793  43.649  52.949  1.00  0.00     0.258 C 
HETATM    2  N   UNL     1      27.567  43.348  52.398  1.00  0.00    -0.350 N 
HETATM    3  O   UNL     1      29.843  43.167  52.537  1.00  0.00    -0.267 OA
HETATM    4  H   UNL     1      26.750  43.788  52.818  1.00  0.00     0.163 HD
ENDROOT
BRANCH   2   5
HETATM    5  C   UNL     1      27.366  42.407  51.287  1.00  0.00     0.114 C 
HETATM    6  C   UNL     1      27.336  40.960  51.785  1.00  0.00     0.035 C 
BRANCH   5   7
HETATM    7  C   UNL     1      26.124  42.798  50.437  1.00  0.00     0.173 C 
BRANCH   7   8
HETATM    8  O   UNL     1      24.954  42.235  51.055  1.00  0.00    -0.389 OA
HETATM    9  H   UNL     1      24.335  42.979  51.159  1.00  0.00     0.210 HD
ENDBRANCH   7   8
BRANCH   7  10
HETATM   10  C   UNL     1      25.911  44.290  50.305  1.00  0.00    -0.028 A 
HETATM   11  C   UNL     1      24.695  44.860  50.705  1.00  0.00     0.012 A 
HETATM   12  C   UNL     1      24.481  46.235  50.586  1.00  0.00     0.037 A 
HETATM   13  C   UNL     1      25.476  47.069  50.072  1.00  0.00     0.068 A 
HETATM   14  C   UNL     1      26.686  46.510  49.660  1.00  0.00     0.037 A 
HETATM   15  C   UNL     1      26.900  45.131  49.774  1.00  0.00     0.012 A 
BRANCH  13  16
HETATM   16  O   UNL     1      25.143  48.394  50.022  1.00  0.00    -0.356 OA
HETATM   17  C   UNL     1      25.596  49.122  48.888  1.00  0.00     0.210 C 
ENDBRANCH  13  16
ENDBRANCH   7  10
ENDBRANCH   5   7
ENDBRANCH   2   5
BRANCH   1  18
HETATM   18  C   UNL     1      28.752  44.562  54.078  1.00  0.00     0.105 A 
HETATM   19  C   UNL     1      29.565  44.543  55.244  1.00  0.00     0.071 A 
HETATM   20  C   UNL     1      30.660  43.595  55.574  1.00  0.00     0.073 C 
HETATM   21  N   UNL     1      29.253  45.523  56.099  1.00  0.00    -0.170 NA
HETATM   22  N   UNL     1      28.232  46.184  55.510  1.00  0.00    -0.225 N 
HETATM   23  C   UNL     1      27.898  45.634  54.269  1.00  0.00     0.168 A 
HETATM   24  C   UNL     1      27.537  47.281  56.008  1.00  0.00     0.122 A 
HETATM   25  N   UNL     1      26.885  46.149  53.495  1.00  0.00    -0.240 NA
HETATM   26  C   UNL     1      26.258  47.174  53.996  1.00  0.00     0.120 A 
HETATM   27  C   UNL     1      26.536  47.826  55.304  1.00  0.00     0.038 A 
ENDBRANCH   1  18
TORSDOF 6
ENDMDL
MODEL 7
REMARK VINA RESULT:      -7.7      3.880      6.980
REMARK  6 active torsions:
REMARK  status: ('A' for Active; 'I' for Inactive)
REMARK    1  A    between atoms: C_6  and  C_7 
REMARK       I    between atoms: C_7  and  N_8 
REMARK    2  A    between atoms: N_8  and  C_9 
REMARK    3  A    between atoms: C_9  and  C_10 
REMARK    4  A    between atoms: C_10  and  O_11 
REMARK    5  A    between atoms: C_10  and  C_12 
REMARK    6  A    between atoms: C_15  and  O_16 
ROOT
HETATM    1  C   UNL     1      26.239  44.630  53.489  1.00  0.00     0.258 C 
HETATM    2  N   UNL     1      26.498  44.695  52.139  1.00  0.00    -0.350 N 
HETATM    3  O   UNL     1      25.213  44.136  53.946  1.00  0.00    -0.267 OA
HETATM    4  H   UNL     1      27.372  45.136  51.855  1.00  0.00     0.163 HD
ENDROOT
BRANCH   2   5
HETATM    5  C   UNL     1      25.581  44.216  51.095  1.00  0.00     0.114 C 
HETATM    6  C   UNL     1      24.464  45.229  50.830  1.00  0.00     0.035 C 
BRANCH   5   7
HETATM    7  C   UNL     1      26.357  43.799  49.813  1.00  0.00     0.173 C 
BRANCH   7   8
HETATM    8  O   UNL     1      27.355  44.798  49.539  1.00  0.00    -0.389 OA
HETATM    9  H   UNL     1      27.459  44.798  48.572  1.00  0.00     0.210 HD
ENDBRANCH   7   8
BRANCH   7  10
HETATM   10  C   UNL     1      27.054  42.459  49.922  1.00  0.00    -0.028 A 
HETATM   11  C   UNL     1      27.243  41.677  48.775  1.00  0.00     0.012 A 
HETATM   12  C   UNL     1      27.880  40.436  48.860  1.00  0.00     0.037 A 
HETATM   13  C   UNL     1      28.346  39.956  50.085  1.00  0.00     0.068 A 
HETATM   14  C   UNL     1      28.151  40.722  51.234  1.00  0.00     0.037 A 
HETATM   15  C   UNL     1      27.508  41.964  51.153  1.00  0.00     0.012 A 
BRANCH  13  16
HETATM   16  O   UNL     1      28.962  38.737  50.026  1.00  0.00    -0.356 OA
HETATM   17  C   UNL     1      29.230  38.221  48.729  1.00  0.00     0.210 C 
ENDBRANCH  13  16
ENDBRANCH   7  10
ENDBRANCH   5   7
ENDBRANCH   2   5
BRANCH   1  18
HETATM   18  C   UNL     1      27.260  45.216  54.340  1.00  0.00     0.105 A 
HETATM   19  C   UNL     1      27.284  46.522  54.900  1.00  0.00     0.071 A 
HETATM   20  C   UNL     1      26.260  47.591  54.759  1.00  0.00     0.073 C 
HETATM   21  N   UNL     1      28.384  46.747  55.626  1.00  0.00    -0.170 NA
HETATM   22  N   UNL     1      29.093  45.600  55.543  1.00  0.00    -0.225 N 
HETATM   23  C   UNL     1      28.440  44.634  54.772  1.00  0.00     0.168 A 
HETATM   24  C   UNL     1      30.331  45.329  56.115  1.00  0.00     0.122 A 
HETATM   25  N   UNL     1      28.982  43.389  54.553  1.00  0.00    -0.240 NA
HETATM   26  C   UNL     1      30.141  43.175  55.104  1.00  0.00     0.120 A 
HETATM   27  C   UNL     1      30.915  44.137  55.935  1.00  0.00     0.038 A 
ENDBRANCH   1  18
TORSDOF 6
ENDMDL
MODEL 8
REMARK VINA RESULT:      -7.7      2.238      3.578
REMARK  6 active torsions:
REMARK  status: ('A' for Active; 'I' for Inactive)
REMARK    1  A    between atoms: C_6  and  C_7 
REMARK       I    between atoms: C_7  and  N_8 
REMARK    2  A    between atoms: N_8  and  C_9 
REMARK    3  A    between atoms: C_9  and  C_10 
REMARK    4  A    between atoms: C_10  and  O_11 
REMARK    5  A    between atoms: C_10  and  C_12 
REMARK    6  A    between atoms: C_15  and  O_16 
ROOT
HETATM    1  C   UNL     1      25.400  47.025  51.004  1.00  0.00     0.258 C 
HETATM    2  N   UNL     1      25.342  46.277  52.158  1.00  0.00    -0.350 N 
HETATM    3  O   UNL     1      26.246  47.892  50.816  1.00  0.00    -0.267 OA
HETATM    4  H   UNL     1      24.594  45.588  52.228  1.00  0.00     0.163 HD
ENDROOT
BRANCH   2   5
HETATM    5  C   UNL     1      26.253  46.443  53.300  1.00  0.00     0.114 C 
HETATM    6  C   UNL     1      25.864  47.656  54.148  1.00  0.00     0.035 C 
BRANCH   5   7
HETATM    7  C   UNL     1      26.374  45.126  54.118  1.00  0.00     0.173 C 
BRANCH   7   8
HETATM    8  O   UNL     1      26.007  44.026  53.267  1.00  0.00    -0.389 OA
HETATM    9  H   UNL     1      25.214  44.324  52.789  1.00  0.00     0.210 HD
ENDBRANCH   7   8
BRANCH   7  10
HETATM   10  C   UNL     1      27.764  44.859  54.655  1.00  0.00    -0.028 A 
HETATM   11  C   UNL     1      28.441  43.689  54.286  1.00  0.00     0.012 A 
HETATM   12  C   UNL     1      29.722  43.425  54.777  1.00  0.00     0.037 A 
HETATM   13  C   UNL     1      30.354  44.324  55.638  1.00  0.00     0.068 A 
HETATM   14  C   UNL     1      29.683  45.485  56.021  1.00  0.00     0.037 A 
HETATM   15  C   UNL     1      28.397  45.749  55.534  1.00  0.00     0.012 A 
BRANCH  13  16
HETATM   16  O   UNL     1      31.610  43.953  56.033  1.00  0.00    -0.356 OA
HETATM   17  C   UNL     1      31.718  43.323  57.303  1.00  0.00     0.210 C 
ENDBRANCH  13  16
ENDBRANCH   7  10
ENDBRANCH   5   7
ENDBRANCH   2   5
BRANCH   1  18
HETATM   18  C   UNL     1      24.364  46.731  50.029  1.00  0.00     0.105 A 
HETATM   19  C   UNL     1      23.577  47.654  49.287  1.00  0.00     0.071 A 
HETATM   20  C   UNL     1      23.642  49.138  49.323  1.00  0.00     0.073 C 
HETATM   21  N   UNL     1      22.699  47.046  48.483  1.00  0.00    -0.170 NA
HETATM   22  N   UNL     1      22.892  45.725  48.695  1.00  0.00    -0.225 N 
HETATM   23  C   UNL     1      23.906  45.488  49.628  1.00  0.00     0.168 A 
HETATM   24  C   UNL     1      22.209  44.666  48.107  1.00  0.00     0.122 A 
HETATM   25  N   UNL     1      24.271  44.214  49.996  1.00  0.00    -0.240 NA
HETATM   26  C   UNL     1      23.608  43.250  49.425  1.00  0.00     0.120 A 
HETATM   27  C   UNL     1      22.514  43.402  48.428  1.00  0.00     0.038 A 
ENDBRANCH   1  18
TORSDOF 6
ENDMDL
MODEL 9
REMARK VINA RESULT:      -7.6      2.988      8.281
REMARK  6 active torsions:
REMARK  status: ('A' for Active; 'I' for Inactive)
REMARK    1  A    between atoms: C_6  and  C_7 
REMARK       I    between atoms: C_7  and  N_8 
REMARK    2  A    between atoms: N_8  and  C_9 
REMARK    3  A    between atoms: C_9  and  C_10 
REMARK    4  A    between atoms: C_10  and  O_11 
REMARK    5  A    between atoms: C_10  and  C_12 
REMARK    6  A    between atoms: C_15  and  O_16 
ROOT
HETATM    1  C   UNL     1      27.257  44.186  53.403  1.00  0.00     0.258 C 
HETATM    2  N   UNL     1      27.396  44.713  52.138  1.00  0.00    -0.350 N 
HETATM    3  O   UNL     1      26.171  43.867  53.874  1.00  0.00    -0.267 OA
HETATM    4  H   UNL     1      28.339  44.960  51.840  1.00  0.00     0.163 HD
ENDROOT
BRANCH   2   5
HETATM    5  C   UNL     1      26.277  44.980  51.224  1.00  0.00     0.114 C 
HETATM    6  C   UNL     1      25.400  43.738  51.043  1.00  0.00     0.035 C 
BRANCH   5   7
HETATM    7  C   UNL     1      25.483  46.243  51.662  1.00  0.00     0.173 C 
BRANCH   7   8
HETATM    8  O   UNL     1      26.180  46.862  52.757  1.00  0.00    -0.389 OA
HETATM    9  H   UNL     1      26.484  47.721  52.415  1.00  0.00     0.210 HD
ENDBRANCH   7   8
BRANCH   7  10
HETATM   10  C   UNL     1      25.316  47.277  50.569  1.00  0.00    -0.028 A 
HETATM   11  C   UNL     1      24.039  47.559  50.065  1.00  0.00     0.012 A 
HETATM   12  C   UNL     1      23.869  48.508  49.054  1.00  0.00     0.037 A 
HETATM   13  C   UNL     1      24.965  49.197  48.532  1.00  0.00     0.068 A 
HETATM   14  C   UNL     1      26.241  48.914  49.018  1.00  0.00     0.037 A 
HETATM   15  C   UNL     1      26.415  47.961  50.028  1.00  0.00     0.012 A 
BRANCH  13  16
HETATM   16  O   UNL     1      24.659  50.106  47.557  1.00  0.00    -0.356 OA
HETATM   17  C   UNL     1      23.323  50.593  47.537  1.00  0.00     0.210 C 
ENDBRANCH  13  16
ENDBRANCH   7  10
ENDBRANCH   5   7
ENDBRANCH   2   5
BRANCH   1  18
HETATM   18  C   UNL     1      28.493  44.061  54.155  1.00  0.00     0.105 A 
HETATM   19  C   UNL     1      29.575  43.171  53.912  1.00  0.00     0.071 A 
HETATM   20  C   UNL     1      29.702  42.171  52.821  1.00  0.00     0.073 C 
HETATM   21  N   UNL     1      30.558  43.306  54.809  1.00  0.00    -0.170 NA
HETATM   22  N   UNL     1      30.129  44.273  55.650  1.00  0.00    -0.225 N 
HETATM   23  C   UNL     1      28.874  44.768  55.283  1.00  0.00     0.168 A 
HETATM   24  C   UNL     1      30.786  44.772  56.769  1.00  0.00     0.122 A 
HETATM   25  N   UNL     1      28.245  45.759  56.000  1.00  0.00    -0.240 NA
HETATM   26  C   UNL     1      28.892  46.198  57.041  1.00  0.00     0.120 A 
HETATM   27  C   UNL     1      30.224  45.734  57.512  1.00  0.00     0.038 A 
ENDBRANCH   1  18
TORSDOF 6
ENDMDL
MODEL 10
REMARK VINA RESULT:      -7.5      3.713      6.230
REMARK  6 active torsions:
REMARK  status: ('A' for Active; 'I' for Inactive)
REMARK    1  A    between atoms: C_6  and  C_7 
REMARK       I    between atoms: C_7  and  N_8 
REMARK    2  A    between atoms: N_8  and  C_9 
REMARK    3  A    between atoms: C_9  and  C_10 
REMARK    4  A    between atoms: C_10  and  O_11 
REMARK    5  A    between atoms: C_10  and  C_12 
REMARK    6  A    between atoms: C_15  and  O_16 
ROOT
HETATM    1  C   UNL     1      26.629  43.922  50.192  1.00  0.00     0.258 C 
HETATM    2  N   UNL     1      26.167  44.058  51.483  1.00  0.00    -0.350 N 
HETATM    3  O   UNL     1      27.315  44.774  49.639  1.00  0.00    -0.267 OA
HETATM    4  H   UNL     1      25.592  43.302  51.852  1.00  0.00     0.163 HD
ENDROOT
BRANCH   2   5
HETATM    5  C   UNL     1      26.411  45.234  52.330  1.00  0.00     0.114 C 
HETATM    6  C   UNL     1      25.460  46.380  51.976  1.00  0.00     0.035 C 
BRANCH   5   7
HETATM    7  C   UNL     1      26.392  44.854  53.838  1.00  0.00     0.173 C 
BRANCH   7   8
HETATM    8  O   UNL     1      25.592  43.669  53.999  1.00  0.00    -0.389 OA
HETATM    9  H   UNL     1      26.227  42.953  54.176  1.00  0.00     0.210 HD
ENDBRANCH   7   8
BRANCH   7  10
HETATM   10  C   UNL     1      27.760  44.578  54.423  1.00  0.00    -0.028 A 
HETATM   11  C   UNL     1      28.336  45.495  55.312  1.00  0.00     0.012 A 
HETATM   12  C   UNL     1      29.601  45.256  55.857  1.00  0.00     0.037 A 
HETATM   13  C   UNL     1      30.310  44.098  55.532  1.00  0.00     0.068 A 
HETATM   14  C   UNL     1      29.750  43.186  54.638  1.00  0.00     0.037 A 
HETATM   15  C   UNL     1      28.485  43.425  54.087  1.00  0.00     0.012 A 
BRANCH  13  16
HETATM   16  O   UNL     1      31.527  43.982  56.145  1.00  0.00    -0.356 OA
HETATM   17  C   UNL     1      31.525  43.950  57.566  1.00  0.00     0.210 C 
ENDBRANCH  13  16
ENDBRANCH   7  10
ENDBRANCH   5   7
ENDBRANCH   2   5
BRANCH   1  18
HETATM   18  C   UNL     1      26.219  42.701  49.519  1.00  0.00     0.105 A 
HETATM   19  C   UNL     1      25.068  42.496  48.711  1.00  0.00     0.071 A 
HETATM   20  C   UNL     1      24.021  43.488  48.350  1.00  0.00     0.073 C 
HETATM   21  N   UNL     1      24.982  41.242  48.254  1.00  0.00    -0.170 NA
HETATM   22  N   UNL     1      26.064  40.613  48.764  1.00  0.00    -0.225 N 
HETATM   23  C   UNL     1      26.851  41.470  49.538  1.00  0.00     0.168 A 
HETATM   24  C   UNL     1      26.423  39.280  48.596  1.00  0.00     0.122 A 
HETATM   25  N   UNL     1      28.003  41.040  50.155  1.00  0.00    -0.240 NA
HETATM   26  C   UNL     1      28.305  39.787  49.975  1.00  0.00     0.120 A 
HETATM   27  C   UNL     1      27.531  38.799  49.176  1.00  0.00     0.038 A 
ENDBRANCH   1  18
TORSDOF 6
ENDMDL
