MODEL 1
REMARK VINA RESULT:      -9.6      0.000      0.000
REMARK  6 active torsions:
REMARK  status: ('A' for Active; 'I' for Inactive)
REMARK    1  A    between atoms: C_9  and  N_10 
REMARK       I    between atoms: N_10  and  C_11 
REMARK    2  A    between atoms: C_11  and  C_12 
REMARK    3  A    between atoms: C_12  and  N_13 
REMARK    4  A    between atoms: C_12  and  C_21 
REMARK       I    between atoms: N_13  and  C_14 
REMARK    5  A    between atoms: C_14  and  C_15 
REMARK    6  A    between atoms: C_21  and  C_22 
ROOT
HETATM    1  C   UNL     1      27.381  45.747  54.496  1.00  0.00     0.181 C 
ENDROOT
BRANCH   1   2
HETATM    2  C   UNL     1      26.485  46.665  53.629  1.00  0.00     0.245 C 
HETATM    3  N   UNL     1      26.600  46.451  52.269  1.00  0.00    -0.325 N 
HETATM    4  H   UNL     1      27.165  45.647  51.990  1.00  0.00     0.169 HD
HETATM    5  O   UNL     1      25.737  47.475  54.173  1.00  0.00    -0.271 OA
BRANCH   3   6
HETATM    6  C   UNL     1      25.976  47.157  51.220  1.00  0.00     0.037 A 
HETATM    7  C   UNL     1      24.603  47.101  50.953  1.00  0.00     0.063 A 
HETATM    8  C   UNL     1      24.086  47.852  49.883  1.00  0.00     0.087 A 
HETATM    9  N   UNL     1      22.794  47.953  49.422  1.00  0.00    -0.234 NA
HETATM   10  C   UNL     1      24.942  48.637  49.122  1.00  0.00     0.062 A 
HETATM   11  C   UNL     1      22.843  48.779  48.398  1.00  0.00     0.101 A 
HETATM   12  C   UNL     1      21.708  49.210  47.550  1.00  0.00     0.091 C 
HETATM   13  N   UNL     1      24.125  49.222  48.188  1.00  0.00    -0.343 N 
HETATM   14  H   UNL     1      24.416  49.864  47.467  1.00  0.00     0.167 HD
HETATM   15  C   UNL     1      26.311  48.724  49.359  1.00  0.00     0.034 A 
HETATM   16  C   UNL     1      26.808  47.962  50.425  1.00  0.00     0.032 A 
ENDBRANCH   3   6
ENDBRANCH   1   2
BRANCH   1  17
HETATM   17  N   UNL     1      27.752  44.553  53.724  1.00  0.00    -0.343 N 
HETATM   18  C   UNL     1      27.216  43.298  53.913  1.00  0.00     0.259 C 
HETATM   19  O   UNL     1      26.375  43.101  54.790  1.00  0.00    -0.267 OA
HETATM   20  H   UNL     1      28.524  44.636  53.073  1.00  0.00     0.163 HD
BRANCH  18  21
HETATM   21  C   UNL     1      27.719  42.245  53.043  1.00  0.00     0.072 A 
HETATM   22  S   UNL     1      27.128  42.009  51.450  1.00  0.00    -0.097 SA
HETATM   23  C   UNL     1      28.168  40.679  51.184  1.00  0.00     0.050 A 
HETATM   24  C   UNL     1      28.955  40.412  52.281  1.00  0.00     0.009 A 
HETATM   25  C   UNL     1      28.695  41.315  53.352  1.00  0.00     0.025 A 
ENDBRANCH  18  21
ENDBRANCH   1  17
BRANCH   1  26
HETATM   26  C   UNL     1      28.590  46.467  55.128  1.00  0.00     0.073 C 
BRANCH  26  27
HETATM   27  C   UNL     1      29.538  45.649  55.983  1.00  0.00    -0.056 A 
HETATM   28  C   UNL     1      30.262  44.546  55.515  1.00  0.00     0.007 A 
HETATM   29  C   UNL     1      31.088  43.816  56.376  1.00  0.00     0.001 A 
HETATM   30  C   UNL     1      31.194  44.170  57.718  1.00  0.00     0.000 A 
HETATM   31  C   UNL     1      30.472  45.255  58.204  1.00  0.00     0.001 A 
HETATM   32  C   UNL     1      29.649  45.985  57.345  1.00  0.00     0.007 A 
ENDBRANCH  26  27
ENDBRANCH   1  26
TORSDOF 6
ENDMDL
MODEL 2
REMARK VINA RESULT:      -9.1      2.434      3.400
REMARK  6 active torsions:
REMARK  status: ('A' for Active; 'I' for Inactive)
REMARK    1  A    between atoms: C_9  and  N_10 
REMARK       I    between atoms: N_10  and  C_11 
REMARK    2  A    between atoms: C_11  and  C_12 
REMARK    3  A    between atoms: C_12  and  N_13 
REMARK    4  A    between atoms: C_12  and  C_21 
REMARK       I    between atoms: N_13  and  C_14 
REMARK    5  A    between atoms: C_14  and  C_15 
REMARK    6  A    between atoms: C_21  and  C_22 
ROOT
HETATM    1  C   UNL     1      26.505  43.293  52.134  1.00  0.00     0.181 C 
ENDROOT
BRANCH   1   2
HETATM    2  C   UNL     1      25.255  43.974  51.525  1.00  0.00     0.245 C 
HETATM    3  N   UNL     1      25.534  45.076  50.740  1.00  0.00    -0.325 N 
HETATM    4  H   UNL     1      26.522  45.250  50.552  1.00  0.00     0.169 HD
HETATM    5  O   UNL     1      24.139  43.504  51.742  1.00  0.00    -0.271 OA
BRANCH   3   6
HETATM    6  C   UNL     1      24.624  45.945  50.102  1.00  0.00     0.037 A 
HETATM    7  C   UNL     1      24.579  47.326  50.328  1.00  0.00     0.063 A 
HETATM    8  C   UNL     1      23.633  48.099  49.632  1.00  0.00     0.087 A 
HETATM    9  N   UNL     1      23.388  49.451  49.688  1.00  0.00    -0.234 NA
HETATM   10  C   UNL     1      22.774  47.481  48.732  1.00  0.00     0.062 A 
HETATM   11  C   UNL     1      22.400  49.671  48.847  1.00  0.00     0.101 A 
HETATM   12  C   UNL     1      21.761  50.974  48.549  1.00  0.00     0.091 C 
HETATM   13  N   UNL     1      22.005  48.505  48.241  1.00  0.00    -0.343 N 
HETATM   14  H   UNL     1      21.270  48.416  47.556  1.00  0.00     0.167 HD
HETATM   15  C   UNL     1      22.792  46.112  48.476  1.00  0.00     0.034 A 
HETATM   16  C   UNL     1      23.737  45.358  49.186  1.00  0.00     0.032 A 
ENDBRANCH   3   6
ENDBRANCH   1   2
BRANCH   1  17
HETATM   17  N   UNL     1      26.742  42.010  51.457  1.00  0.00    -0.343 N 
HETATM   18  C   UNL     1      27.075  41.874  50.128  1.00  0.00     0.259 C 
HETATM   19  O   UNL     1      27.180  42.864  49.403  1.00  0.00    -0.267 OA
HETATM   20  H   UNL     1      26.551  41.163  51.979  1.00  0.00     0.163 HD
BRANCH  18  21
HETATM   21  C   UNL     1      27.268  40.514  49.648  1.00  0.00     0.072 A 
HETATM   22  S   UNL     1      28.600  40.066  48.664  1.00  0.00    -0.097 SA
HETATM   23  C   UNL     1      28.077  38.442  48.569  1.00  0.00     0.050 A 
HETATM   24  C   UNL     1      26.911  38.234  49.270  1.00  0.00     0.009 A 
HETATM   25  C   UNL     1      26.445  39.428  49.892  1.00  0.00     0.025 A 
ENDBRANCH  18  21
ENDBRANCH   1  17
BRANCH   1  26
HETATM   26  C   UNL     1      27.752  44.200  52.183  1.00  0.00     0.073 C 
BRANCH  26  27
HETATM   27  C   UNL     1      28.641  44.121  53.409  1.00  0.00    -0.056 A 
HETATM   28  C   UNL     1      28.559  45.000  54.495  1.00  0.00     0.007 A 
HETATM   29  C   UNL     1      29.443  44.886  55.573  1.00  0.00     0.001 A 
HETATM   30  C   UNL     1      30.427  43.902  55.577  1.00  0.00     0.000 A 
HETATM   31  C   UNL     1      30.532  43.028  54.500  1.00  0.00     0.001 A 
HETATM   32  C   UNL     1      29.649  43.139  53.425  1.00  0.00     0.007 A 
ENDBRANCH  26  27
ENDBRANCH   1  26
TORSDOF 6
ENDMDL
MODEL 3
REMARK VINA RESULT:      -9.1      2.082      3.177
REMARK  6 active torsions:
REMARK  status: ('A' for Active; 'I' for Inactive)
REMARK    1  A    between atoms: C_9  and  N_10 
REMARK       I    between atoms: N_10  and  C_11 
REMARK    2  A    between atoms: C_11  and  C_12 
REMARK    3  A    between atoms: C_12  and  N_13 
REMARK    4  A    between atoms: C_12  and  C_21 
REMARK       I    between atoms: N_13  and  C_14 
REMARK    5  A    between atoms: C_14  and  C_15 
REMARK    6  A    between atoms: C_21  and  C_22 
ROOT
HETATM    1  C   UNL     1      28.961  42.466  53.434  1.00  0.00     0.181 C 
ENDROOT
BRANCH   1   2
HETATM    2  C   UNL     1      27.655  43.254  53.170  1.00  0.00     0.245 C 
HETATM    3  N   UNL     1      27.475  43.633  51.854  1.00  0.00    -0.325 N 
HETATM    4  H   UNL     1      28.153  43.260  51.187  1.00  0.00     0.169 HD
HETATM    5  O   UNL     1      26.874  43.464  54.097  1.00  0.00    -0.271 OA
BRANCH   3   6
HETATM    6  C   UNL     1      26.434  44.408  51.305  1.00  0.00     0.037 A 
HETATM    7  C   UNL     1      26.525  45.787  51.079  1.00  0.00     0.063 A 
HETATM    8  C   UNL     1      25.424  46.460  50.520  1.00  0.00     0.087 A 
HETATM    9  N   UNL     1      25.268  47.792  50.217  1.00  0.00    -0.234 NA
HETATM   10  C   UNL     1      24.278  45.744  50.195  1.00  0.00     0.062 A 
HETATM   11  C   UNL     1      24.055  47.906  49.719  1.00  0.00     0.101 A 
HETATM   12  C   UNL     1      23.403  49.148  49.245  1.00  0.00     0.091 C 
HETATM   13  N   UNL     1      23.425  46.687  49.680  1.00  0.00    -0.343 N 
HETATM   14  H   UNL     1      22.492  46.516  49.337  1.00  0.00     0.167 HD
HETATM   15  C   UNL     1      24.151  44.373  50.398  1.00  0.00     0.034 A 
HETATM   16  C   UNL     1      25.257  43.722  50.964  1.00  0.00     0.032 A 
ENDBRANCH   3   6
ENDBRANCH   1   2
BRANCH   1  17
HETATM   17  N   UNL     1      29.199  41.527  52.329  1.00  0.00    -0.343 N 
HETATM   18  C   UNL     1      28.245  40.693  51.789  1.00  0.00     0.259 C 
HETATM   19  O   UNL     1      27.098  40.679  52.236  1.00  0.00    -0.267 OA
HETATM   20  H   UNL     1      30.153  41.414  52.006  1.00  0.00     0.163 HD
BRANCH  18  21
HETATM   21  C   UNL     1      28.682  39.835  50.697  1.00  0.00     0.072 A 
HETATM   22  S   UNL     1      28.279  40.153  49.060  1.00  0.00    -0.097 SA
HETATM   23  C   UNL     1      29.117  38.769  48.510  1.00  0.00     0.050 A 
HETATM   24  C   UNL     1      29.697  38.072  49.545  1.00  0.00     0.009 A 
HETATM   25  C   UNL     1      29.446  38.687  50.805  1.00  0.00     0.025 A 
ENDBRANCH  18  21
ENDBRANCH   1  17
BRANCH   1  26
HETATM   26  C   UNL     1      30.179  43.359  53.752  1.00  0.00     0.073 C 
BRANCH  26  27
HETATM   27  C   UNL     1      30.328  43.882  55.167  1.00  0.00    -0.056 A 
HETATM   28  C   UNL     1      29.714  45.047  55.642  1.00  0.00     0.007 A 
HETATM   29  C   UNL     1      29.933  45.487  56.951  1.00  0.00     0.001 A 
HETATM   30  C   UNL     1      30.774  44.775  57.802  1.00  0.00     0.000 A 
HETATM   31  C   UNL     1      31.402  43.622  57.344  1.00  0.00     0.001 A 
HETATM   32  C   UNL     1      31.184  43.181  56.038  1.00  0.00     0.007 A 
ENDBRANCH  26  27
ENDBRANCH   1  26
TORSDOF 6
ENDMDL
MODEL 4
REMARK VINA RESULT:      -9.0      3.779      7.581
REMARK  6 active torsions:
REMARK  status: ('A' for Active; 'I' for Inactive)
REMARK    1  A    between atoms: C_9  and  N_10 
REMARK       I    between atoms: N_10  and  C_11 
REMARK    2  A    between atoms: C_11  and  C_12 
REMARK    3  A    between atoms: C_12  and  N_13 
REMARK    4  A    between atoms: C_12  and  C_21 
REMARK       I    between atoms: N_13  and  C_14 
REMARK    5  A    between atoms: C_14  and  C_15 
REMARK    6  A    between atoms: C_21  and  C_22 
ROOT
HETATM    1  C   UNL     1      27.209  43.768  51.921  1.00  0.00     0.181 C 
ENDROOT
BRANCH   1   2
HETATM    2  C   UNL     1      27.001  42.433  51.165  1.00  0.00     0.245 C 
HETATM    3  N   UNL     1      28.172  41.802  50.792  1.00  0.00    -0.325 N 
HETATM    4  H   UNL     1      29.034  42.216  51.150  1.00  0.00     0.169 HD
HETATM    5  O   UNL     1      25.860  42.015  50.971  1.00  0.00    -0.271 OA
BRANCH   3   6
HETATM    6  C   UNL     1      28.323  40.617  50.043  1.00  0.00     0.037 A 
HETATM    7  C   UNL     1      28.075  40.528  48.668  1.00  0.00     0.063 A 
HETATM    8  C   UNL     1      28.264  39.295  48.020  1.00  0.00     0.087 A 
HETATM    9  N   UNL     1      28.080  38.957  46.700  1.00  0.00    -0.234 NA
HETATM   10  C   UNL     1      28.701  38.198  48.752  1.00  0.00     0.062 A 
HETATM   11  C   UNL     1      28.392  37.681  46.610  1.00  0.00     0.101 A 
HETATM   12  C   UNL     1      28.350  36.841  45.392  1.00  0.00     0.091 C 
HETATM   13  N   UNL     1      28.781  37.186  47.830  1.00  0.00    -0.343 N 
HETATM   14  H   UNL     1      29.070  36.237  48.016  1.00  0.00     0.167 HD
HETATM   15  C   UNL     1      28.963  38.247  50.119  1.00  0.00     0.034 A 
HETATM   16  C   UNL     1      28.761  39.484  50.747  1.00  0.00     0.032 A 
ENDBRANCH   3   6
ENDBRANCH   1   2
BRANCH   1  17
HETATM   17  N   UNL     1      26.301  44.787  51.375  1.00  0.00    -0.343 N 
HETATM   18  C   UNL     1      26.534  45.511  50.227  1.00  0.00     0.259 C 
HETATM   19  O   UNL     1      27.569  45.347  49.580  1.00  0.00    -0.267 OA
HETATM   20  H   UNL     1      25.495  45.044  51.932  1.00  0.00     0.163 HD
BRANCH  18  21
HETATM   21  C   UNL     1      25.510  46.476  49.854  1.00  0.00     0.072 A 
HETATM   22  S   UNL     1      23.909  46.008  49.454  1.00  0.00    -0.097 SA
HETATM   23  C   UNL     1      23.432  47.624  49.164  1.00  0.00     0.050 A 
HETATM   24  C   UNL     1      24.465  48.510  49.366  1.00  0.00     0.009 A 
HETATM   25  C   UNL     1      25.662  47.848  49.764  1.00  0.00     0.025 A 
ENDBRANCH  18  21
ENDBRANCH   1  17
BRANCH   1  26
HETATM   26  C   UNL     1      27.132  43.638  53.456  1.00  0.00     0.073 C 
BRANCH  26  27
HETATM   27  C   UNL     1      28.408  43.832  54.252  1.00  0.00    -0.056 A 
HETATM   28  C   UNL     1      29.444  42.892  54.312  1.00  0.00     0.007 A 
HETATM   29  C   UNL     1      30.575  43.127  55.101  1.00  0.00     0.001 A 
HETATM   30  C   UNL     1      30.682  44.296  55.849  1.00  0.00     0.000 A 
HETATM   31  C   UNL     1      29.656  45.234  55.812  1.00  0.00     0.001 A 
HETATM   32  C   UNL     1      28.528  45.002  55.024  1.00  0.00     0.007 A 
ENDBRANCH  26  27
ENDBRANCH   1  26
TORSDOF 6
ENDMDL
MODEL 5
REMARK VINA RESULT:      -8.9      3.386      7.536
REMARK  6 active torsions:
REMARK  status: ('A' for Active; 'I' for Inactive)
REMARK    1  A    between atoms: C_9  and  N_10 
REMARK       I    between atoms: N_10  and  C_11 
REMARK    2  A    between atoms: C_11  and  C_12 
REMARK    3  A    between atoms: C_12  and  N_13 
REMARK    4  A    between atoms: C_12  and  C_21 
REMARK       I    between atoms: N_13  and  C_14 
REMARK    5  A    between atoms: C_14  and  C_15 
REMARK    6  A    between atoms: C_21  and  C_22 
ROOT
HETATM    1  C   UNL     1      26.043  46.564  51.210  1.00  0.00     0.181 C 
ENDROOT
BRANCH   1   2
HETATM    2  C   UNL     1      26.409  45.282  50.424  1.00  0.00     0.245 C 
HETATM    3  N   UNL     1      25.646  44.177  50.751  1.00  0.00    -0.325 N 
HETATM    4  H   UNL     1      24.860  44.349  51.380  1.00  0.00     0.169 HD
HETATM    5  O   UNL     1      27.297  45.321  49.574  1.00  0.00    -0.271 OA
BRANCH   3   6
HETATM    6  C   UNL     1      25.771  42.858  50.269  1.00  0.00     0.037 A 
HETATM    7  C   UNL     1      26.794  41.982  50.651  1.00  0.00     0.063 A 
HETATM    8  C   UNL     1      26.817  40.685  50.109  1.00  0.00     0.087 A 
HETATM    9  N   UNL     1      27.711  39.660  50.318  1.00  0.00    -0.234 NA
HETATM   10  C   UNL     1      25.824  40.297  49.219  1.00  0.00     0.062 A 
HETATM   11  C   UNL     1      27.287  38.660  49.575  1.00  0.00     0.101 A 
HETATM   12  C   UNL     1      27.914  37.324  49.444  1.00  0.00     0.091 C 
HETATM   13  N   UNL     1      26.142  39.002  48.900  1.00  0.00    -0.343 N 
HETATM   14  H   UNL     1      25.627  38.404  48.272  1.00  0.00     0.167 HD
HETATM   15  C   UNL     1      24.787  41.136  48.820  1.00  0.00     0.034 A 
HETATM   16  C   UNL     1      24.786  42.428  49.364  1.00  0.00     0.032 A 
ENDBRANCH   3   6
ENDBRANCH   1   2
BRANCH   1  17
HETATM   17  N   UNL     1      25.047  47.335  50.453  1.00  0.00    -0.343 N 
HETATM   18  C   UNL     1      25.347  48.306  49.524  1.00  0.00     0.259 C 
HETATM   19  O   UNL     1      26.517  48.602  49.281  1.00  0.00    -0.267 OA
HETATM   20  H   UNL     1      24.072  47.214  50.702  1.00  0.00     0.163 HD
BRANCH  18  21
HETATM   21  C   UNL     1      24.215  48.956  48.882  1.00  0.00     0.072 A 
HETATM   22  S   UNL     1      22.648  48.257  48.854  1.00  0.00    -0.097 SA
HETATM   23  C   UNL     1      22.000  49.570  47.971  1.00  0.00     0.050 A 
HETATM   24  C   UNL     1      22.950  50.527  47.699  1.00  0.00     0.009 A 
HETATM   25  C   UNL     1      24.226  50.173  48.224  1.00  0.00     0.025 A 
ENDBRANCH  18  21
ENDBRANCH   1  17
BRANCH   1  26
HETATM   26  C   UNL     1      25.634  46.306  52.675  1.00  0.00     0.073 C 
BRANCH  26  27
HETATM   27  C   UNL     1      26.734  46.201  53.713  1.00  0.00    -0.056 A 
HETATM   28  C   UNL     1      27.227  47.287  54.447  1.00  0.00     0.007 A 
HETATM   29  C   UNL     1      28.273  47.116  55.359  1.00  0.00     0.001 A 
HETATM   30  C   UNL     1      28.849  45.863  55.545  1.00  0.00     0.000 A 
HETATM   31  C   UNL     1      28.381  44.775  54.815  1.00  0.00     0.001 A 
HETATM   32  C   UNL     1      27.336  44.943  53.906  1.00  0.00     0.007 A 
ENDBRANCH  26  27
ENDBRANCH   1  26
TORSDOF 6
ENDMDL
MODEL 6
REMARK VINA RESULT:      -8.9      1.981      4.883
REMARK  6 active torsions:
REMARK  status: ('A' for Active; 'I' for Inactive)
REMARK    1  A    between atoms: C_9  and  N_10 
REMARK       I    between atoms: N_10  and  C_11 
REMARK    2  A    between atoms: C_11  and  C_12 
REMARK    3  A    between atoms: C_12  and  N_13 
REMARK    4  A    between atoms: C_12  and  C_21 
REMARK       I    between atoms: N_13  and  C_14 
REMARK    5  A    between atoms: C_14  and  C_15 
REMARK    6  A    between atoms: C_21  and  C_22 
ROOT
HETATM    1  C   UNL     1      27.435  44.218  52.456  1.00  0.00     0.181 C 
ENDROOT
BRANCH   1   2
HETATM    2  C   UNL     1      26.697  45.540  52.135  1.00  0.00     0.245 C 
HETATM    3  N   UNL     1      26.474  45.754  50.789  1.00  0.00    -0.325 N 
HETATM    4  H   UNL     1      26.711  44.978  50.169  1.00  0.00     0.169 HD
HETATM    5  O   UNL     1      26.343  46.278  53.053  1.00  0.00    -0.271 OA
BRANCH   3   6
HETATM    6  C   UNL     1      25.891  46.879  50.170  1.00  0.00     0.037 A 
HETATM    7  C   UNL     1      24.512  47.117  50.127  1.00  0.00     0.063 A 
HETATM    8  C   UNL     1      24.041  48.277  49.487  1.00  0.00     0.087 A 
HETATM    9  N   UNL     1      22.752  48.720  49.307  1.00  0.00    -0.234 NA
HETATM   10  C   UNL     1      24.949  49.163  48.921  1.00  0.00     0.062 A 
HETATM   11  C   UNL     1      22.852  49.853  48.644  1.00  0.00     0.101 A 
HETATM   12  C   UNL     1      21.739  50.722  48.197  1.00  0.00     0.091 C 
HETATM   13  N   UNL     1      24.167  50.161  48.398  1.00  0.00    -0.343 N 
HETATM   14  H   UNL     1      24.500  50.979  47.910  1.00  0.00     0.167 HD
HETATM   15  C   UNL     1      26.327  48.965  48.948  1.00  0.00     0.034 A 
HETATM   16  C   UNL     1      26.776  47.799  49.584  1.00  0.00     0.032 A 
ENDBRANCH   3   6
ENDBRANCH   1   2
BRANCH   1  17
HETATM   17  N   UNL     1      28.204  44.375  53.699  1.00  0.00    -0.343 N 
HETATM   18  C   UNL     1      29.423  43.784  53.948  1.00  0.00     0.259 C 
HETATM   19  O   UNL     1      29.946  43.047  53.112  1.00  0.00    -0.267 OA
HETATM   20  H   UNL     1      27.763  44.873  54.463  1.00  0.00     0.163 HD
BRANCH  18  21
HETATM   21  C   UNL     1      30.022  44.065  55.244  1.00  0.00     0.072 A 
HETATM   22  S   UNL     1      29.662  45.486  56.135  1.00  0.00    -0.097 SA
HETATM   23  C   UNL     1      30.715  45.043  57.407  1.00  0.00     0.050 A 
HETATM   24  C   UNL     1      31.333  43.837  57.167  1.00  0.00     0.009 A 
HETATM   25  C   UNL     1      30.933  43.274  55.921  1.00  0.00     0.025 A 
ENDBRANCH  18  21
ENDBRANCH   1  17
BRANCH   1  26
HETATM   26  C   UNL     1      26.523  42.973  52.453  1.00  0.00     0.073 C 
BRANCH  26  27
HETATM   27  C   UNL     1      26.717  41.952  51.349  1.00  0.00    -0.056 A 
HETATM   28  C   UNL     1      27.858  41.151  51.214  1.00  0.00     0.007 A 
HETATM   29  C   UNL     1      27.980  40.259  50.143  1.00  0.00     0.001 A 
HETATM   30  C   UNL     1      26.971  40.161  49.189  1.00  0.00     0.000 A 
HETATM   31  C   UNL     1      25.837  40.957  49.301  1.00  0.00     0.001 A 
HETATM   32  C   UNL     1      25.713  41.847  50.369  1.00  0.00     0.007 A 
ENDBRANCH  26  27
ENDBRANCH   1  26
TORSDOF 6
ENDMDL
MODEL 7
REMARK VINA RESULT:      -8.7      2.109      5.278
REMARK  6 active torsions:
REMARK  status: ('A' for Active; 'I' for Inactive)
REMARK    1  A    between atoms: C_9  and  N_10 
REMARK       I    between atoms: N_10  and  C_11 
REMARK    2  A    between atoms: C_11  and  C_12 
REMARK    3  A    between atoms: C_12  and  N_13 
REMARK    4  A    between atoms: C_12  and  C_21 
REMARK       I    between atoms: N_13  and  C_14 
REMARK    5  A    between atoms: C_14  and  C_15 
REMARK    6  A    between atoms: C_21  and  C_22 
ROOT
HETATM    1  C   UNL     1      27.992  43.521  53.053  1.00  0.00     0.181 C 
ENDROOT
BRANCH   1   2
HETATM    2  C   UNL     1      26.811  44.436  52.649  1.00  0.00     0.245 C 
HETATM    3  N   UNL     1      26.796  44.789  51.313  1.00  0.00    -0.325 N 
HETATM    4  H   UNL     1      27.486  44.323  50.722  1.00  0.00     0.169 HD
HETATM    5  O   UNL     1      25.975  44.760  53.492  1.00  0.00    -0.271 OA
BRANCH   3   6
HETATM    6  C   UNL     1      25.901  45.653  50.650  1.00  0.00     0.037 A 
HETATM    7  C   UNL     1      26.188  46.990  50.349  1.00  0.00     0.063 A 
HETATM    8  C   UNL     1      25.222  47.760  49.678  1.00  0.00     0.087 A 
HETATM    9  N   UNL     1      25.263  49.078  49.287  1.00  0.00    -0.234 NA
HETATM   10  C   UNL     1      24.012  47.179  49.320  1.00  0.00     0.062 A 
HETATM   11  C   UNL     1      24.108  49.313  48.702  1.00  0.00     0.101 A 
HETATM   12  C   UNL     1      23.656  50.595  48.113  1.00  0.00     0.091 C 
HETATM   13  N   UNL     1      23.324  48.186  48.694  1.00  0.00    -0.343 N 
HETATM   14  H   UNL     1      22.398  48.114  48.300  1.00  0.00     0.167 HD
HETATM   15  C   UNL     1      23.691  45.852  49.596  1.00  0.00     0.034 A 
HETATM   16  C   UNL     1      24.665  45.103  50.272  1.00  0.00     0.032 A 
ENDBRANCH   3   6
ENDBRANCH   1   2
BRANCH   1  17
HETATM   17  N   UNL     1      28.591  44.017  54.301  1.00  0.00    -0.343 N 
HETATM   18  C   UNL     1      29.880  43.760  54.709  1.00  0.00     0.259 C 
HETATM   19  O   UNL     1      30.626  43.056  54.027  1.00  0.00    -0.267 OA
HETATM   20  H   UNL     1      27.983  44.500  54.952  1.00  0.00     0.163 HD
BRANCH  18  21
HETATM   21  C   UNL     1      30.283  44.343  55.980  1.00  0.00     0.072 A 
HETATM   22  S   UNL     1      31.409  43.581  57.026  1.00  0.00    -0.097 SA
HETATM   23  C   UNL     1      31.298  44.837  58.179  1.00  0.00     0.050 A 
HETATM   24  C   UNL     1      30.423  45.824  57.785  1.00  0.00     0.009 A 
HETATM   25  C   UNL     1      29.839  45.538  56.517  1.00  0.00     0.025 A 
ENDBRANCH  18  21
ENDBRANCH   1  17
BRANCH   1  26
HETATM   26  C   UNL     1      27.637  42.021  53.098  1.00  0.00     0.073 C 
BRANCH  26  27
HETATM   27  C   UNL     1      27.441  41.296  51.780  1.00  0.00    -0.056 A 
HETATM   28  C   UNL     1      26.233  41.270  51.073  1.00  0.00     0.007 A 
HETATM   29  C   UNL     1      26.120  40.545  49.882  1.00  0.00     0.001 A 
HETATM   30  C   UNL     1      27.206  39.828  49.387  1.00  0.00     0.000 A 
HETATM   31  C   UNL     1      28.410  39.833  50.083  1.00  0.00     0.001 A 
HETATM   32  C   UNL     1      28.525  40.557  51.271  1.00  0.00     0.007 A 
ENDBRANCH  26  27
ENDBRANCH   1  26
TORSDOF 6
ENDMDL
MODEL 8
REMARK VINA RESULT:      -8.7      3.166      7.569
REMARK  6 active torsions:
REMARK  status: ('A' for Active; 'I' for Inactive)
REMARK    1  A    between atoms: C_9  and  N_10 
REMARK       I    between atoms: N_10  and  C_11 
REMARK    2  A    between atoms: C_11  and  C_12 
REMARK    3  A    between atoms: C_12  and  N_13 
REMARK    4  A    between atoms: C_12  and  C_21 
REMARK       I    between atoms: N_13  and  C_14 
REMARK    5  A    between atoms: C_14  and  C_15 
REMARK    6  A    between atoms: C_21  and  C_22 
ROOT
HETATM    1  C   UNL     1      25.706  46.210  50.902  1.00  0.00     0.181 C 
ENDROOT
BRANCH   1   2
HETATM    2  C   UNL     1      26.634  45.089  50.373  1.00  0.00     0.245 C 
HETATM    3  N   UNL     1      26.310  43.823  50.821  1.00  0.00    -0.325 N 
HETATM    4  H   UNL     1      25.439  43.748  51.350  1.00  0.00     0.169 HD
HETATM    5  O   UNL     1      27.547  45.370  49.598  1.00  0.00    -0.271 OA
BRANCH   3   6
HETATM    6  C   UNL     1      26.988  42.611  50.577  1.00  0.00     0.037 A 
HETATM    7  C   UNL     1      26.984  41.951  49.343  1.00  0.00     0.063 A 
HETATM    8  C   UNL     1      27.701  40.749  49.211  1.00  0.00     0.087 A 
HETATM    9  N   UNL     1      27.839  39.922  48.121  1.00  0.00    -0.234 NA
HETATM   10  C   UNL     1      28.404  40.249  50.299  1.00  0.00     0.062 A 
HETATM   11  C   UNL     1      28.607  38.931  48.519  1.00  0.00     0.101 A 
HETATM   12  C   UNL     1      29.047  37.769  47.713  1.00  0.00     0.091 C 
HETATM   13  N   UNL     1      28.978  39.095  49.831  1.00  0.00    -0.343 N 
HETATM   14  H   UNL     1      29.567  38.470  50.360  1.00  0.00     0.167 HD
HETATM   15  C   UNL     1      28.438  40.879  51.541  1.00  0.00     0.034 A 
HETATM   16  C   UNL     1      27.710  42.072  51.654  1.00  0.00     0.032 A 
ENDBRANCH   3   6
ENDBRANCH   1   2
BRANCH   1  17
HETATM   17  N   UNL     1      24.537  46.335  50.021  1.00  0.00    -0.343 N 
HETATM   18  C   UNL     1      23.966  47.528  49.639  1.00  0.00     0.259 C 
HETATM   19  O   UNL     1      24.415  48.598  50.049  1.00  0.00    -0.267 OA
HETATM   20  H   UNL     1      24.058  45.483  49.753  1.00  0.00     0.163 HD
BRANCH  18  21
HETATM   21  C   UNL     1      22.809  47.438  48.760  1.00  0.00     0.072 A 
HETATM   22  S   UNL     1      22.279  45.951  48.089  1.00  0.00    -0.097 SA
HETATM   23  C   UNL     1      20.990  46.704  47.255  1.00  0.00     0.050 A 
HETATM   24  C   UNL     1      20.956  48.061  47.478  1.00  0.00     0.009 A 
HETATM   25  C   UNL     1      22.004  48.483  48.345  1.00  0.00     0.025 A 
ENDBRANCH  18  21
ENDBRANCH   1  17
BRANCH   1  26
HETATM   26  C   UNL     1      25.337  46.066  52.393  1.00  0.00     0.073 C 
BRANCH  26  27
HETATM   27  C   UNL     1      26.446  46.212  53.418  1.00  0.00    -0.056 A 
HETATM   28  C   UNL     1      27.199  45.143  53.915  1.00  0.00     0.007 A 
HETATM   29  C   UNL     1      28.179  45.353  54.891  1.00  0.00     0.001 A 
HETATM   30  C   UNL     1      28.414  46.632  55.390  1.00  0.00     0.000 A 
HETATM   31  C   UNL     1      27.665  47.704  54.916  1.00  0.00     0.001 A 
HETATM   32  C   UNL     1      26.688  47.496  53.942  1.00  0.00     0.007 A 
ENDBRANCH  26  27
ENDBRANCH   1  26
TORSDOF 6
ENDMDL
MODEL 9
REMARK VINA RESULT:      -8.6      2.795      8.301
REMARK  6 active torsions:
REMARK  status: ('A' for Active; 'I' for Inactive)
REMARK    1  A    between atoms: C_9  and  N_10 
REMARK       I    between atoms: N_10  and  C_11 
REMARK    2  A    between atoms: C_11  and  C_12 
REMARK    3  A    between atoms: C_12  and  N_13 
REMARK    4  A    between atoms: C_12  and  C_21 
REMARK       I    between atoms: N_13  and  C_14 
REMARK    5  A    between atoms: C_14  and  C_15 
REMARK    6  A    between atoms: C_21  and  C_22 
ROOT
HETATM    1  C   UNL     1      25.338  44.378  49.914  1.00  0.00     0.181 C 
ENDROOT
BRANCH   1   2
HETATM    2  C   UNL     1      26.657  44.510  50.713  1.00  0.00     0.245 C 
HETATM    3  N   UNL     1      26.549  44.173  52.049  1.00  0.00    -0.325 N 
HETATM    4  H   UNL     1      25.656  43.768  52.335  1.00  0.00     0.169 HD
HETATM    5  O   UNL     1      27.685  44.865  50.138  1.00  0.00    -0.271 OA
BRANCH   3   6
HETATM    6  C   UNL     1      27.540  44.247  53.050  1.00  0.00     0.037 A 
HETATM    7  C   UNL     1      27.510  45.162  54.109  1.00  0.00     0.063 A 
HETATM    8  C   UNL     1      28.550  45.144  55.055  1.00  0.00     0.087 A 
HETATM    9  N   UNL     1      28.747  45.937  56.161  1.00  0.00    -0.234 NA
HETATM   10  C   UNL     1      29.575  44.216  54.926  1.00  0.00     0.062 A 
HETATM   11  C   UNL     1      29.868  45.515  56.707  1.00  0.00     0.101 A 
HETATM   12  C   UNL     1      30.520  46.054  57.923  1.00  0.00     0.091 C 
HETATM   13  N   UNL     1      30.397  44.469  55.994  1.00  0.00    -0.343 N 
HETATM   14  H   UNL     1      31.248  43.974  56.216  1.00  0.00     0.167 HD
HETATM   15  C   UNL     1      29.637  43.286  53.891  1.00  0.00     0.034 A 
HETATM   16  C   UNL     1      28.596  43.326  52.954  1.00  0.00     0.032 A 
ENDBRANCH   3   6
ENDBRANCH   1   2
BRANCH   1  17
HETATM   17  N   UNL     1      24.977  45.684  49.345  1.00  0.00    -0.343 N 
HETATM   18  C   UNL     1      24.719  46.817  50.083  1.00  0.00     0.259 C 
HETATM   19  O   UNL     1      24.763  46.789  51.313  1.00  0.00    -0.267 OA
HETATM   20  H   UNL     1      24.811  45.730  48.347  1.00  0.00     0.163 HD
BRANCH  18  21
HETATM   21  C   UNL     1      24.377  48.014  49.329  1.00  0.00     0.072 A 
HETATM   22  S   UNL     1      25.554  49.165  48.846  1.00  0.00    -0.097 SA
HETATM   23  C   UNL     1      24.382  50.153  48.090  1.00  0.00     0.050 A 
HETATM   24  C   UNL     1      23.116  49.626  48.197  1.00  0.00     0.009 A 
HETATM   25  C   UNL     1      23.113  48.393  48.911  1.00  0.00     0.025 A 
ENDBRANCH  18  21
ENDBRANCH   1  17
BRANCH   1  26
HETATM   26  C   UNL     1      25.347  43.238  48.875  1.00  0.00     0.073 C 
BRANCH  26  27
HETATM   27  C   UNL     1      26.053  41.947  49.241  1.00  0.00    -0.056 A 
HETATM   28  C   UNL     1      25.623  41.077  50.250  1.00  0.00     0.007 A 
HETATM   29  C   UNL     1      26.352  39.923  50.556  1.00  0.00     0.001 A 
HETATM   30  C   UNL     1      27.525  39.627  49.867  1.00  0.00     0.000 A 
HETATM   31  C   UNL     1      27.974  40.487  48.870  1.00  0.00     0.001 A 
HETATM   32  C   UNL     1      27.247  41.637  48.563  1.00  0.00     0.007 A 
ENDBRANCH  26  27
ENDBRANCH   1  26
TORSDOF 6
ENDMDL
MODEL 10
REMARK VINA RESULT:      -8.6      2.680      5.810
REMARK  6 active torsions:
REMARK  status: ('A' for Active; 'I' for Inactive)
REMARK    1  A    between atoms: C_9  and  N_10 
REMARK       I    between atoms: N_10  and  C_11 
REMARK    2  A    between atoms: C_11  and  C_12 
REMARK    3  A    between atoms: C_12  and  N_13 
REMARK    4  A    between atoms: C_12  and  C_21 
REMARK       I    between atoms: N_13  and  C_14 
REMARK    5  A    between atoms: C_14  and  C_15 
REMARK    6  A    between atoms: C_21  and  C_22 
ROOT
HETATM    1  C   UNL     1      26.532  42.042  50.682  1.00  0.00     0.181 C 
ENDROOT
BRANCH   1   2
HETATM    2  C   UNL     1      25.342  43.030  50.606  1.00  0.00     0.245 C 
HETATM    3  N   UNL     1      25.486  44.022  49.656  1.00  0.00    -0.325 N 
HETATM    4  H   UNL     1      26.293  43.932  49.037  1.00  0.00     0.169 HD
HETATM    5  O   UNL     1      24.369  42.868  51.342  1.00  0.00    -0.271 OA
BRANCH   3   6
HETATM    6  C   UNL     1      24.620  45.102  49.385  1.00  0.00     0.037 A 
HETATM    7  C   UNL     1      24.825  46.403  49.860  1.00  0.00     0.063 A 
HETATM    8  C   UNL     1      23.898  47.405  49.523  1.00  0.00     0.087 A 
HETATM    9  N   UNL     1      23.875  48.735  49.870  1.00  0.00    -0.234 NA
HETATM   10  C   UNL     1      22.809  47.087  48.720  1.00  0.00     0.062 A 
HETATM   11  C   UNL     1      22.798  49.234  49.301  1.00  0.00     0.101 A 
HETATM   12  C   UNL     1      22.321  50.634  49.380  1.00  0.00     0.091 C 
HETATM   13  N   UNL     1      22.129  48.271  48.588  1.00  0.00    -0.343 N 
HETATM   14  H   UNL     1      21.280  48.410  48.063  1.00  0.00     0.167 HD
HETATM   15  C   UNL     1      22.574  45.808  48.223  1.00  0.00     0.034 A 
HETATM   16  C   UNL     1      23.505  44.821  48.578  1.00  0.00     0.032 A 
ENDBRANCH   3   6
ENDBRANCH   1   2
BRANCH   1  17
HETATM   17  N   UNL     1      27.365  42.368  51.848  1.00  0.00    -0.343 N 
HETATM   18  C   UNL     1      28.115  43.514  51.981  1.00  0.00     0.259 C 
HETATM   19  O   UNL     1      28.141  44.355  51.083  1.00  0.00    -0.267 OA
HETATM   20  H   UNL     1      27.472  41.655  52.561  1.00  0.00     0.163 HD
BRANCH  18  21
HETATM   21  C   UNL     1      28.874  43.648  53.216  1.00  0.00     0.072 A 
HETATM   22  S   UNL     1      28.469  44.797  54.424  1.00  0.00    -0.097 SA
HETATM   23  C   UNL     1      29.768  44.311  55.424  1.00  0.00     0.050 A 
HETATM   24  C   UNL     1      30.501  43.295  54.858  1.00  0.00     0.009 A 
HETATM   25  C   UNL     1      29.986  42.913  53.586  1.00  0.00     0.025 A 
ENDBRANCH  18  21
ENDBRANCH   1  17
BRANCH   1  26
HETATM   26  C   UNL     1      26.119  40.557  50.618  1.00  0.00     0.073 C 
BRANCH  26  27
HETATM   27  C   UNL     1      27.020  39.601  49.861  1.00  0.00    -0.056 A 
HETATM   28  C   UNL     1      26.700  38.262  49.601  1.00  0.00     0.007 A 
HETATM   29  C   UNL     1      27.602  37.431  48.930  1.00  0.00     0.001 A 
HETATM   30  C   UNL     1      28.839  37.919  48.519  1.00  0.00     0.000 A 
HETATM   31  C   UNL     1      29.179  39.242  48.780  1.00  0.00     0.001 A 
HETATM   32  C   UNL     1      28.279  40.074  49.448  1.00  0.00     0.007 A 
ENDBRANCH  26  27
ENDBRANCH   1  26
TORSDOF 6
ENDMDL
