MODEL 1
REMARK VINA RESULT:      -9.7      0.000      0.000
REMARK  5 active torsions:
REMARK  status: ('A' for Active; 'I' for Inactive)
REMARK    1  A    between atoms: C_2  and  O_3 
REMARK    2  A    between atoms: O_3  and  C_4 
REMARK    3  A    between atoms: C_7  and  C_8 
REMARK       I    between atoms: N_11  and  C_12 
REMARK    4  A    between atoms: C_12  and  C_13 
REMARK    5  A    between atoms: C_15  and  C_16 
ROOT
HETATM    1  C   UNL     1      26.158  45.927  51.893  1.00  0.00    -0.049 C 
HETATM    2  C   UNL     1      25.221  44.896  51.310  1.00  0.00     0.059 C 
HETATM    3  C   UNL     1      24.710  45.293  49.928  1.00  0.00     0.131 C 
HETATM    4  N   UNL     1      24.262  46.683  49.889  1.00  0.00    -0.344 N 
HETATM    5  C   UNL     1      23.229  46.971  48.988  1.00  0.00     0.254 C 
HETATM    6  O   UNL     1      22.619  46.107  48.362  1.00  0.00    -0.267 OA
HETATM    7  C   UNL     1      25.244  47.681  50.305  1.00  0.00     0.154 C 
HETATM    8  C   UNL     1      26.137  47.185  51.410  1.00  0.00     0.001 C 
ENDROOT
BRANCH   5   9
HETATM    9  C   UNL     1      22.845  48.376  48.733  1.00  0.00     0.033 A 
HETATM   10  C   UNL     1      21.564  48.789  49.120  1.00  0.00     0.032 A 
HETATM   11  C   UNL     1      21.170  50.123  48.961  1.00  0.00     0.014 A 
HETATM   12  C   UNL     1      22.084  51.035  48.409  1.00  0.00     0.015 A 
HETATM   13  C   UNL     1      23.371  50.628  48.044  1.00  0.00     0.002 A 
HETATM   14  C   UNL     1      23.760  49.300  48.219  1.00  0.00     0.017 A 
BRANCH  11  15
HETATM   15  C   UNL     1      19.844  50.566  49.384  1.00  0.00     0.181 A 
HETATM   16  N   UNL     1      18.970  49.792  50.047  1.00  0.00    -0.152 NA
HETATM   17  N   UNL     1      17.942  50.627  50.240  1.00  0.00    -0.263 N 
HETATM   18  H   UNL     1      17.126  50.301  50.743  1.00  0.00     0.190 HD
HETATM   19  C   UNL     1      18.184  51.854  49.696  1.00  0.00     0.118 A 
HETATM   20  C   UNL     1      17.220  52.970  49.753  1.00  0.00     0.093 C 
HETATM   21  N   UNL     1      19.376  51.841  49.141  1.00  0.00    -0.212 NA
ENDBRANCH  11  15
ENDBRANCH   5   9
BRANCH   1  22
HETATM   22  C   UNL     1      27.064  45.500  52.993  1.00  0.00    -0.030 A 
HETATM   23  C   UNL     1      27.816  44.318  52.888  1.00  0.00     0.014 A 
HETATM   24  C   UNL     1      28.715  43.929  53.891  1.00  0.00     0.037 A 
HETATM   25  C   UNL     1      28.880  44.715  55.028  1.00  0.00     0.068 A 
HETATM   26  C   UNL     1      28.129  45.882  55.155  1.00  0.00     0.037 A 
HETATM   27  C   UNL     1      27.240  46.275  54.147  1.00  0.00     0.014 A 
BRANCH  25  28
HETATM   28  O   UNL     1      29.723  44.454  56.072  1.00  0.00    -0.352 OA
BRANCH  28  29
HETATM   29  C   UNL     1      30.874  43.661  55.787  1.00  0.00     0.171 C 
HETATM   30  C   UNL     1      31.514  43.271  57.108  1.00  0.00     0.034 C 
ENDBRANCH  28  29
ENDBRANCH  25  28
ENDBRANCH   1  22
TORSDOF 5
ENDMDL
MODEL 2
REMARK VINA RESULT:      -9.7      3.602     10.771
REMARK  5 active torsions:
REMARK  status: ('A' for Active; 'I' for Inactive)
REMARK    1  A    between atoms: C_2  and  O_3 
REMARK    2  A    between atoms: O_3  and  C_4 
REMARK    3  A    between atoms: C_7  and  C_8 
REMARK       I    between atoms: N_11  and  C_12 
REMARK    4  A    between atoms: C_12  and  C_13 
REMARK    5  A    between atoms: C_15  and  C_16 
ROOT
HETATM    1  C   UNL     1      22.235  49.818  48.433  1.00  0.00    -0.049 C 
HETATM    2  C   UNL     1      23.513  50.591  48.209  1.00  0.00     0.059 C 
HETATM    3  C   UNL     1      24.735  49.681  48.132  1.00  0.00     0.131 C 
HETATM    4  N   UNL     1      24.749  48.691  49.205  1.00  0.00    -0.344 N 
HETATM    5  C   UNL     1      26.012  48.277  49.645  1.00  0.00     0.254 C 
HETATM    6  O   UNL     1      27.061  48.801  49.274  1.00  0.00    -0.267 OA
HETATM    7  C   UNL     1      23.564  47.840  49.302  1.00  0.00     0.154 C 
HETATM    8  C   UNL     1      22.300  48.568  48.934  1.00  0.00     0.001 C 
ENDROOT
BRANCH   5   9
HETATM    9  C   UNL     1      26.130  47.140  50.583  1.00  0.00     0.033 A 
HETATM   10  C   UNL     1      26.433  45.880  50.054  1.00  0.00     0.032 A 
HETATM   11  C   UNL     1      26.620  44.780  50.902  1.00  0.00     0.014 A 
HETATM   12  C   UNL     1      26.500  44.970  52.287  1.00  0.00     0.015 A 
HETATM   13  C   UNL     1      26.221  46.233  52.817  1.00  0.00     0.002 A 
HETATM   14  C   UNL     1      26.050  47.325  51.966  1.00  0.00     0.017 A 
BRANCH  11  15
HETATM   15  C   UNL     1      26.959  43.468  50.358  1.00  0.00     0.181 A 
HETATM   16  N   UNL     1      26.801  43.124  49.071  1.00  0.00    -0.152 NA
HETATM   17  N   UNL     1      27.271  41.871  49.052  1.00  0.00    -0.263 N 
HETATM   18  H   UNL     1      27.285  41.360  48.177  1.00  0.00     0.190 HD
HETATM   19  C   UNL     1      27.681  41.472  50.289  1.00  0.00     0.118 A 
HETATM   20  C   UNL     1      28.240  40.133  50.565  1.00  0.00     0.093 C 
HETATM   21  N   UNL     1      27.488  42.458  51.137  1.00  0.00    -0.212 NA
ENDBRANCH  11  15
ENDBRANCH   5   9
BRANCH   1  22
HETATM   22  C   UNL     1      20.950  50.484  48.093  1.00  0.00    -0.030 A 
HETATM   23  C   UNL     1      20.086  49.935  47.132  1.00  0.00     0.014 A 
HETATM   24  C   UNL     1      18.846  50.521  46.838  1.00  0.00     0.037 A 
HETATM   25  C   UNL     1      18.443  51.677  47.501  1.00  0.00     0.068 A 
HETATM   26  C   UNL     1      19.296  52.244  48.446  1.00  0.00     0.037 A 
HETATM   27  C   UNL     1      20.529  51.651  48.746  1.00  0.00     0.014 A 
BRANCH  25  28
HETATM   28  O   UNL     1      17.264  52.342  47.314  1.00  0.00    -0.352 OA
BRANCH  28  29
HETATM   29  C   UNL     1      16.071  51.560  47.352  1.00  0.00     0.171 C 
HETATM   30  C   UNL     1      15.695  51.346  48.808  1.00  0.00     0.034 C 
ENDBRANCH  28  29
ENDBRANCH  25  28
ENDBRANCH   1  22
TORSDOF 5
ENDMDL
MODEL 3
REMARK VINA RESULT:      -9.1      3.870     10.278
REMARK  5 active torsions:
REMARK  status: ('A' for Active; 'I' for Inactive)
REMARK    1  A    between atoms: C_2  and  O_3 
REMARK    2  A    between atoms: O_3  and  C_4 
REMARK    3  A    between atoms: C_7  and  C_8 
REMARK       I    between atoms: N_11  and  C_12 
REMARK    4  A    between atoms: C_12  and  C_13 
REMARK    5  A    between atoms: C_15  and  C_16 
ROOT
HETATM    1  C   UNL     1      24.609  46.304  50.162  1.00  0.00    -0.049 C 
HETATM    2  C   UNL     1      24.272  44.911  49.687  1.00  0.00     0.059 C 
HETATM    3  C   UNL     1      24.623  43.845  50.721  1.00  0.00     0.131 C 
HETATM    4  N   UNL     1      25.958  44.042  51.279  1.00  0.00    -0.344 N 
HETATM    5  C   UNL     1      26.634  42.883  51.679  1.00  0.00     0.254 C 
HETATM    6  O   UNL     1      26.219  41.748  51.456  1.00  0.00    -0.267 OA
HETATM    7  C   UNL     1      26.210  45.349  51.882  1.00  0.00     0.154 C 
HETATM    8  C   UNL     1      25.498  46.462  51.163  1.00  0.00     0.001 C 
ENDROOT
BRANCH   5   9
HETATM    9  C   UNL     1      27.901  42.993  52.434  1.00  0.00     0.033 A 
HETATM   10  C   UNL     1      27.945  43.874  53.521  1.00  0.00     0.032 A 
HETATM   11  C   UNL     1      29.099  43.971  54.310  1.00  0.00     0.014 A 
HETATM   12  C   UNL     1      30.203  43.167  53.990  1.00  0.00     0.015 A 
HETATM   13  C   UNL     1      30.152  42.270  52.918  1.00  0.00     0.002 A 
HETATM   14  C   UNL     1      28.994  42.170  52.147  1.00  0.00     0.017 A 
BRANCH  11  15
HETATM   15  C   UNL     1      29.143  44.871  55.460  1.00  0.00     0.181 A 
HETATM   16  N   UNL     1      28.152  45.710  55.796  1.00  0.00    -0.152 NA
HETATM   17  N   UNL     1      28.629  46.282  56.908  1.00  0.00    -0.263 N 
HETATM   18  H   UNL     1      28.063  46.966  57.396  1.00  0.00     0.190 HD
HETATM   19  C   UNL     1      29.870  45.812  57.219  1.00  0.00     0.118 A 
HETATM   20  C   UNL     1      30.640  46.271  58.393  1.00  0.00     0.093 C 
HETATM   21  N   UNL     1      30.225  44.925  56.316  1.00  0.00    -0.212 NA
ENDBRANCH  11  15
ENDBRANCH   5   9
BRANCH   1  22
HETATM   22  C   UNL     1      23.941  47.450  49.488  1.00  0.00    -0.030 A 
HETATM   23  C   UNL     1      24.643  48.637  49.222  1.00  0.00     0.014 A 
HETATM   24  C   UNL     1      24.044  49.706  48.540  1.00  0.00     0.037 A 
HETATM   25  C   UNL     1      22.724  49.612  48.110  1.00  0.00     0.068 A 
HETATM   26  C   UNL     1      22.009  48.447  48.381  1.00  0.00     0.037 A 
HETATM   27  C   UNL     1      22.611  47.376  49.052  1.00  0.00     0.014 A 
BRANCH  25  28
HETATM   28  O   UNL     1      22.027  50.574  47.433  1.00  0.00    -0.352 OA
BRANCH  28  29
HETATM   29  C   UNL     1      20.608  50.560  47.573  1.00  0.00     0.171 C 
HETATM   30  C   UNL     1      20.215  51.707  48.487  1.00  0.00     0.034 C 
ENDBRANCH  28  29
ENDBRANCH  25  28
ENDBRANCH   1  22
TORSDOF 5
ENDMDL
MODEL 4
REMARK VINA RESULT:      -9.0      3.486     10.854
REMARK  5 active torsions:
REMARK  status: ('A' for Active; 'I' for Inactive)
REMARK    1  A    between atoms: C_2  and  O_3 
REMARK    2  A    between atoms: O_3  and  C_4 
REMARK    3  A    between atoms: C_7  and  C_8 
REMARK       I    between atoms: N_11  and  C_12 
REMARK    4  A    between atoms: C_12  and  C_13 
REMARK    5  A    between atoms: C_15  and  C_16 
ROOT
HETATM    1  C   UNL     1      19.563  50.371  48.898  1.00  0.00    -0.049 C 
HETATM    2  C   UNL     1      20.714  51.201  48.379  1.00  0.00     0.059 C 
HETATM    3  C   UNL     1      21.825  50.342  47.781  1.00  0.00     0.131 C 
HETATM    4  N   UNL     1      22.166  49.212  48.642  1.00  0.00    -0.344 N 
HETATM    5  C   UNL     1      23.495  48.775  48.584  1.00  0.00     0.254 C 
HETATM    6  O   UNL     1      24.376  49.371  47.968  1.00  0.00    -0.267 OA
HETATM    7  C   UNL     1      21.060  48.326  49.000  1.00  0.00     0.154 C 
HETATM    8  C   UNL     1      19.761  49.067  49.171  1.00  0.00     0.001 C 
ENDROOT
BRANCH   5   9
HETATM    9  C   UNL     1      23.888  47.521  49.263  1.00  0.00     0.033 A 
HETATM   10  C   UNL     1      24.555  47.619  50.490  1.00  0.00     0.032 A 
HETATM   11  C   UNL     1      24.894  46.465  51.208  1.00  0.00     0.014 A 
HETATM   12  C   UNL     1      24.550  45.214  50.674  1.00  0.00     0.015 A 
HETATM   13  C   UNL     1      23.864  45.116  49.459  1.00  0.00     0.002 A 
HETATM   14  C   UNL     1      23.517  46.272  48.758  1.00  0.00     0.017 A 
BRANCH  11  15
HETATM   15  C   UNL     1      25.568  46.560  52.500  1.00  0.00     0.181 A 
HETATM   16  N   UNL     1      26.298  45.573  53.042  1.00  0.00    -0.152 NA
HETATM   17  N   UNL     1      26.730  46.131  54.179  1.00  0.00    -0.263 N 
HETATM   18  H   UNL     1      27.332  45.597  54.795  1.00  0.00     0.190 HD
HETATM   19  C   UNL     1      26.263  47.403  54.322  1.00  0.00     0.118 A 
HETATM   20  C   UNL     1      26.576  48.256  55.485  1.00  0.00     0.093 C 
HETATM   21  N   UNL     1      25.518  47.699  53.279  1.00  0.00    -0.212 NA
ENDBRANCH  11  15
ENDBRANCH   5   9
BRANCH   1  22
HETATM   22  C   UNL     1      18.252  51.046  49.092  1.00  0.00    -0.030 A 
HETATM   23  C   UNL     1      18.173  52.295  49.730  1.00  0.00     0.014 A 
HETATM   24  C   UNL     1      16.951  52.969  49.874  1.00  0.00     0.037 A 
HETATM   25  C   UNL     1      15.777  52.405  49.384  1.00  0.00     0.068 A 
HETATM   26  C   UNL     1      15.836  51.159  48.764  1.00  0.00     0.037 A 
HETATM   27  C   UNL     1      17.058  50.491  48.611  1.00  0.00     0.014 A 
BRANCH  25  28
HETATM   28  O   UNL     1      14.529  52.957  49.453  1.00  0.00    -0.352 OA
BRANCH  28  29
HETATM   29  C   UNL     1      14.276  53.845  50.542  1.00  0.00     0.171 C 
HETATM   30  C   UNL     1      12.875  54.406  50.374  1.00  0.00     0.034 C 
ENDBRANCH  28  29
ENDBRANCH  25  28
ENDBRANCH   1  22
TORSDOF 5
ENDMDL
MODEL 5
REMARK VINA RESULT:      -8.9      2.693      3.498
REMARK  5 active torsions:
REMARK  status: ('A' for Active; 'I' for Inactive)
REMARK    1  A    between atoms: C_2  and  O_3 
REMARK    2  A    between atoms: O_3  and  C_4 
REMARK    3  A    between atoms: C_7  and  C_8 
REMARK       I    between atoms: N_11  and  C_12 
REMARK    4  A    between atoms: C_12  and  C_13 
REMARK    5  A    between atoms: C_15  and  C_16 
ROOT
HETATM    1  C   UNL     1      26.360  45.076  51.936  1.00  0.00    -0.049 C 
HETATM    2  C   UNL     1      26.504  46.499  51.450  1.00  0.00     0.059 C 
HETATM    3  C   UNL     1      25.169  47.103  51.023  1.00  0.00     0.131 C 
HETATM    4  N   UNL     1      24.404  46.194  50.173  1.00  0.00    -0.344 N 
HETATM    5  C   UNL     1      23.566  46.796  49.227  1.00  0.00     0.254 C 
HETATM    6  O   UNL     1      23.560  48.005  49.002  1.00  0.00    -0.267 OA
HETATM    7  C   UNL     1      24.136  44.871  50.734  1.00  0.00     0.154 C 
HETATM    8  C   UNL     1      25.269  44.367  51.587  1.00  0.00     0.001 C 
ENDROOT
BRANCH   5   9
HETATM    9  C   UNL     1      22.608  45.971  48.460  1.00  0.00     0.033 A 
HETATM   10  C   UNL     1      21.244  46.267  48.576  1.00  0.00     0.032 A 
HETATM   11  C   UNL     1      20.298  45.559  47.824  1.00  0.00     0.014 A 
HETATM   12  C   UNL     1      20.745  44.554  46.952  1.00  0.00     0.015 A 
HETATM   13  C   UNL     1      22.109  44.274  46.819  1.00  0.00     0.002 A 
HETATM   14  C   UNL     1      23.045  44.993  47.562  1.00  0.00     0.017 A 
BRANCH  11  15
HETATM   15  C   UNL     1      18.876  45.878  47.922  1.00  0.00     0.181 A 
HETATM   16  N   UNL     1      17.900  44.958  47.949  1.00  0.00    -0.152 NA
HETATM   17  N   UNL     1      16.802  45.713  48.080  1.00  0.00    -0.263 N 
HETATM   18  H   UNL     1      15.896  45.263  48.143  1.00  0.00     0.190 HD
HETATM   19  C   UNL     1      17.109  47.040  48.114  1.00  0.00     0.118 A 
HETATM   20  C   UNL     1      16.093  48.104  48.247  1.00  0.00     0.093 C 
HETATM   21  N   UNL     1      18.413  47.175  48.008  1.00  0.00    -0.212 NA
ENDBRANCH  11  15
ENDBRANCH   5   9
BRANCH   1  22
HETATM   22  C   UNL     1      27.449  44.516  52.781  1.00  0.00    -0.030 A 
HETATM   23  C   UNL     1      28.345  43.566  52.264  1.00  0.00     0.014 A 
HETATM   24  C   UNL     1      29.409  43.068  53.029  1.00  0.00     0.037 A 
HETATM   25  C   UNL     1      29.600  43.509  54.336  1.00  0.00     0.068 A 
HETATM   26  C   UNL     1      28.709  44.440  54.869  1.00  0.00     0.037 A 
HETATM   27  C   UNL     1      27.654  44.944  54.100  1.00  0.00     0.014 A 
BRANCH  25  28
HETATM   28  O   UNL     1      30.596  43.111  55.183  1.00  0.00    -0.352 OA
BRANCH  28  29
HETATM   29  C   UNL     1      31.067  44.076  56.122  1.00  0.00     0.171 C 
HETATM   30  C   UNL     1      31.898  43.350  57.165  1.00  0.00     0.034 C 
ENDBRANCH  28  29
ENDBRANCH  25  28
ENDBRANCH   1  22
TORSDOF 5
ENDMDL
MODEL 6
REMARK VINA RESULT:      -8.8      2.422      3.380
REMARK  5 active torsions:
REMARK  status: ('A' for Active; 'I' for Inactive)
REMARK    1  A    between atoms: C_2  and  O_3 
REMARK    2  A    between atoms: O_3  and  C_4 
REMARK    3  A    between atoms: C_7  and  C_8 
REMARK       I    between atoms: N_11  and  C_12 
REMARK    4  A    between atoms: C_12  and  C_13 
REMARK    5  A    between atoms: C_15  and  C_16 
ROOT
HETATM    1  C   UNL     1      26.025  46.638  50.740  1.00  0.00    -0.049 C 
HETATM    2  C   UNL     1      26.773  47.229  49.568  1.00  0.00     0.059 C 
HETATM    3  C   UNL     1      26.236  48.601  49.171  1.00  0.00     0.131 C 
HETATM    4  N   UNL     1      24.778  48.617  49.092  1.00  0.00    -0.344 N 
HETATM    5  C   UNL     1      24.222  49.505  48.164  1.00  0.00     0.254 C 
HETATM    6  O   UNL     1      24.891  50.139  47.351  1.00  0.00    -0.267 OA
HETATM    7  C   UNL     1      24.070  48.193  50.298  1.00  0.00     0.154 C 
HETATM    8  C   UNL     1      24.796  47.102  51.039  1.00  0.00     0.001 C 
ENDROOT
BRANCH   5   9
HETATM    9  C   UNL     1      22.762  49.737  48.149  1.00  0.00     0.033 A 
HETATM   10  C   UNL     1      21.919  48.621  48.069  1.00  0.00     0.032 A 
HETATM   11  C   UNL     1      20.527  48.778  48.117  1.00  0.00     0.014 A 
HETATM   12  C   UNL     1      19.999  50.071  48.248  1.00  0.00     0.015 A 
HETATM   13  C   UNL     1      20.840  51.183  48.351  1.00  0.00     0.002 A 
HETATM   14  C   UNL     1      22.225  51.017  48.317  1.00  0.00     0.017 A 
BRANCH  11  15
HETATM   15  C   UNL     1      19.643  47.617  48.057  1.00  0.00     0.181 A 
HETATM   16  N   UNL     1      18.656  47.379  48.934  1.00  0.00    -0.152 NA
HETATM   17  N   UNL     1      18.119  46.249  48.457  1.00  0.00    -0.263 N 
HETATM   18  H   UNL     1      17.322  45.840  48.931  1.00  0.00     0.190 HD
HETATM   19  C   UNL     1      18.773  45.816  47.342  1.00  0.00     0.118 A 
HETATM   20  C   UNL     1      18.399  44.591  46.608  1.00  0.00     0.093 C 
HETATM   21  N   UNL     1      19.747  46.657  47.071  1.00  0.00    -0.212 NA
ENDBRANCH  11  15
ENDBRANCH   5   9
BRANCH   1  22
HETATM   22  C   UNL     1      26.686  45.552  51.511  1.00  0.00    -0.030 A 
HETATM   23  C   UNL     1      27.375  44.519  50.854  1.00  0.00     0.014 A 
HETATM   24  C   UNL     1      28.050  43.517  51.566  1.00  0.00     0.037 A 
HETATM   25  C   UNL     1      28.047  43.524  52.958  1.00  0.00     0.068 A 
HETATM   26  C   UNL     1      27.354  44.533  53.625  1.00  0.00     0.037 A 
HETATM   27  C   UNL     1      26.690  45.539  52.912  1.00  0.00     0.014 A 
BRANCH  25  28
HETATM   28  O   UNL     1      28.667  42.615  53.769  1.00  0.00    -0.352 OA
BRANCH  28  29
HETATM   29  C   UNL     1      30.093  42.619  53.769  1.00  0.00     0.171 C 
HETATM   30  C   UNL     1      30.561  43.336  55.024  1.00  0.00     0.034 C 
ENDBRANCH  28  29
ENDBRANCH  25  28
ENDBRANCH   1  22
TORSDOF 5
ENDMDL
MODEL 7
REMARK VINA RESULT:      -8.8      2.840     10.755
REMARK  5 active torsions:
REMARK  status: ('A' for Active; 'I' for Inactive)
REMARK    1  A    between atoms: C_2  and  O_3 
REMARK    2  A    between atoms: O_3  and  C_4 
REMARK    3  A    between atoms: C_7  and  C_8 
REMARK       I    between atoms: N_11  and  C_12 
REMARK    4  A    between atoms: C_12  and  C_13 
REMARK    5  A    between atoms: C_15  and  C_16 
ROOT
HETATM    1  C   UNL     1      21.486  49.768  48.912  1.00  0.00    -0.049 C 
HETATM    2  C   UNL     1      22.730  50.621  48.995  1.00  0.00     0.059 C 
HETATM    3  C   UNL     1      23.990  49.847  48.616  1.00  0.00     0.131 C 
HETATM    4  N   UNL     1      24.046  48.541  49.268  1.00  0.00    -0.344 N 
HETATM    5  C   UNL     1      25.326  48.049  49.550  1.00  0.00     0.254 C 
HETATM    6  O   UNL     1      26.351  48.711  49.404  1.00  0.00    -0.267 OA
HETATM    7  C   UNL     1      22.899  47.665  49.040  1.00  0.00     0.154 C 
HETATM    8  C   UNL     1      21.604  48.426  48.937  1.00  0.00     0.001 C 
ENDROOT
BRANCH   5   9
HETATM    9  C   UNL     1      25.493  46.659  50.024  1.00  0.00     0.033 A 
HETATM   10  C   UNL     1      26.223  46.447  51.201  1.00  0.00     0.032 A 
HETATM   11  C   UNL     1      26.358  45.157  51.730  1.00  0.00     0.014 A 
HETATM   12  C   UNL     1      25.747  44.086  51.060  1.00  0.00     0.015 A 
HETATM   13  C   UNL     1      24.999  44.300  49.898  1.00  0.00     0.002 A 
HETATM   14  C   UNL     1      24.858  45.590  49.385  1.00  0.00     0.017 A 
BRANCH  11  15
HETATM   15  C   UNL     1      27.097  44.933  52.969  1.00  0.00     0.181 A 
HETATM   16  N   UNL     1      26.727  45.420  54.164  1.00  0.00    -0.152 NA
HETATM   17  N   UNL     1      27.672  44.930  54.975  1.00  0.00    -0.263 N 
HETATM   18  H   UNL     1      27.629  45.134  55.967  1.00  0.00     0.190 HD
HETATM   19  C   UNL     1      28.587  44.189  54.288  1.00  0.00     0.118 A 
HETATM   20  C   UNL     1      29.744  43.532  54.928  1.00  0.00     0.093 C 
HETATM   21  N   UNL     1      28.253  44.181  53.016  1.00  0.00    -0.212 NA
ENDBRANCH  11  15
ENDBRANCH   5   9
BRANCH   1  22
HETATM   22  C   UNL     1      20.174  50.460  48.813  1.00  0.00    -0.030 A 
HETATM   23  C   UNL     1      18.972  49.749  48.963  1.00  0.00     0.014 A 
HETATM   24  C   UNL     1      17.727  50.395  48.927  1.00  0.00     0.037 A 
HETATM   25  C   UNL     1      17.657  51.772  48.735  1.00  0.00     0.068 A 
HETATM   26  C   UNL     1      18.840  52.490  48.568  1.00  0.00     0.037 A 
HETATM   27  C   UNL     1      20.083  51.845  48.616  1.00  0.00     0.014 A 
BRANCH  25  28
HETATM   28  O   UNL     1      16.515  52.521  48.685  1.00  0.00    -0.352 OA
BRANCH  28  29
HETATM   29  C   UNL     1      15.746  52.602  49.884  1.00  0.00     0.171 C 
HETATM   30  C   UNL     1      14.727  53.715  49.714  1.00  0.00     0.034 C 
ENDBRANCH  28  29
ENDBRANCH  25  28
ENDBRANCH   1  22
TORSDOF 5
ENDMDL
MODEL 8
REMARK VINA RESULT:      -8.8      6.150     10.117
REMARK  5 active torsions:
REMARK  status: ('A' for Active; 'I' for Inactive)
REMARK    1  A    between atoms: C_2  and  O_3 
REMARK    2  A    between atoms: O_3  and  C_4 
REMARK    3  A    between atoms: C_7  and  C_8 
REMARK       I    between atoms: N_11  and  C_12 
REMARK    4  A    between atoms: C_12  and  C_13 
REMARK    5  A    between atoms: C_15  and  C_16 
ROOT
HETATM    1  C   UNL     1      26.623  42.337  49.896  1.00  0.00    -0.049 C 
HETATM    2  C   UNL     1      25.464  41.913  50.766  1.00  0.00     0.059 C 
HETATM    3  C   UNL     1      24.872  43.080  51.551  1.00  0.00     0.131 C 
HETATM    4  N   UNL     1      25.906  43.892  52.187  1.00  0.00    -0.344 N 
HETATM    5  C   UNL     1      25.545  44.518  53.386  1.00  0.00     0.254 C 
HETATM    6  O   UNL     1      24.483  44.304  53.968  1.00  0.00    -0.267 OA
HETATM    7  C   UNL     1      26.933  44.428  51.297  1.00  0.00     0.154 C 
HETATM    8  C   UNL     1      27.268  43.487  50.171  1.00  0.00     0.001 C 
ENDROOT
BRANCH   5   9
HETATM    9  C   UNL     1      26.450  45.514  53.999  1.00  0.00     0.033 A 
HETATM   10  C   UNL     1      27.467  45.049  54.842  1.00  0.00     0.032 A 
HETATM   11  C   UNL     1      28.392  45.942  55.398  1.00  0.00     0.014 A 
HETATM   12  C   UNL     1      28.280  47.306  55.091  1.00  0.00     0.015 A 
HETATM   13  C   UNL     1      27.279  47.769  54.231  1.00  0.00     0.002 A 
HETATM   14  C   UNL     1      26.371  46.871  53.670  1.00  0.00     0.017 A 
BRANCH  11  15
HETATM   15  C   UNL     1      29.469  45.460  56.259  1.00  0.00     0.181 A 
HETATM   16  N   UNL     1      29.778  45.999  57.448  1.00  0.00    -0.152 NA
HETATM   17  N   UNL     1      30.781  45.215  57.863  1.00  0.00    -0.263 N 
HETATM   18  H   UNL     1      31.207  45.391  58.766  1.00  0.00     0.190 HD
HETATM   19  C   UNL     1      31.073  44.249  56.947  1.00  0.00     0.118 A 
HETATM   20  C   UNL     1      32.139  43.246  57.138  1.00  0.00     0.093 C 
HETATM   21  N   UNL     1      30.265  44.385  55.918  1.00  0.00    -0.212 NA
ENDBRANCH  11  15
ENDBRANCH   5   9
BRANCH   1  22
HETATM   22  C   UNL     1      27.008  41.447  48.768  1.00  0.00    -0.030 A 
HETATM   23  C   UNL     1      26.220  41.374  47.608  1.00  0.00     0.014 A 
HETATM   24  C   UNL     1      26.597  40.581  46.513  1.00  0.00     0.037 A 
HETATM   25  C   UNL     1      27.773  39.838  46.558  1.00  0.00     0.068 A 
HETATM   26  C   UNL     1      28.557  39.887  47.708  1.00  0.00     0.037 A 
HETATM   27  C   UNL     1      28.186  40.688  48.796  1.00  0.00     0.014 A 
BRANCH  25  28
HETATM   28  O   UNL     1      28.255  39.034  45.563  1.00  0.00    -0.352 OA
BRANCH  28  29
HETATM   29  C   UNL     1      27.969  39.428  44.222  1.00  0.00     0.171 C 
HETATM   30  C   UNL     1      29.240  39.267  43.405  1.00  0.00     0.034 C 
ENDBRANCH  28  29
ENDBRANCH  25  28
ENDBRANCH   1  22
TORSDOF 5
ENDMDL
MODEL 9
REMARK VINA RESULT:      -8.7      1.990      2.397
REMARK  5 active torsions:
REMARK  status: ('A' for Active; 'I' for Inactive)
REMARK    1  A    between atoms: C_2  and  O_3 
REMARK    2  A    between atoms: O_3  and  C_4 
REMARK    3  A    between atoms: C_7  and  C_8 
REMARK       I    between atoms: N_11  and  C_12 
REMARK    4  A    between atoms: C_12  and  C_13 
REMARK    5  A    between atoms: C_15  and  C_16 
ROOT
HETATM    1  C   UNL     1      25.474  45.301  51.868  1.00  0.00    -0.049 C 
HETATM    2  C   UNL     1      24.856  43.924  51.802  1.00  0.00     0.059 C 
HETATM    3  C   UNL     1      24.297  43.605  50.418  1.00  0.00     0.131 C 
HETATM    4  N   UNL     1      23.502  44.707  49.882  1.00  0.00    -0.344 N 
HETATM    5  C   UNL     1      22.456  44.349  49.024  1.00  0.00     0.254 C 
HETATM    6  O   UNL     1      22.110  43.185  48.829  1.00  0.00    -0.267 OA
HETATM    7  C   UNL     1      24.177  46.001  49.804  1.00  0.00     0.154 C 
HETATM    8  C   UNL     1      25.138  46.219  50.941  1.00  0.00     0.001 C 
ENDROOT
BRANCH   5   9
HETATM    9  C   UNL     1      21.724  45.395  48.278  1.00  0.00     0.033 A 
HETATM   10  C   UNL     1      21.049  46.377  49.013  1.00  0.00     0.032 A 
HETATM   11  C   UNL     1      20.393  47.428  48.359  1.00  0.00     0.014 A 
HETATM   12  C   UNL     1      20.429  47.476  46.957  1.00  0.00     0.015 A 
HETATM   13  C   UNL     1      21.122  46.508  46.223  1.00  0.00     0.002 A 
HETATM   14  C   UNL     1      21.785  45.473  46.884  1.00  0.00     0.017 A 
BRANCH  11  15
HETATM   15  C   UNL     1      19.707  48.469  49.120  1.00  0.00     0.181 A 
HETATM   16  N   UNL     1      18.954  48.233  50.206  1.00  0.00    -0.152 NA
HETATM   17  N   UNL     1      18.578  49.467  50.564  1.00  0.00    -0.263 N 
HETATM   18  H   UNL     1      17.998  49.589  51.385  1.00  0.00     0.190 HD
HETATM   19  C   UNL     1      19.076  50.408  49.713  1.00  0.00     0.118 A 
HETATM   20  C   UNL     1      18.817  51.854  49.863  1.00  0.00     0.093 C 
HETATM   21  N   UNL     1      19.786  49.805  48.785  1.00  0.00    -0.212 NA
ENDBRANCH  11  15
ENDBRANCH   5   9
BRANCH   1  22
HETATM   22  C   UNL     1      26.429  45.582  52.973  1.00  0.00    -0.030 A 
HETATM   23  C   UNL     1      27.384  44.627  53.359  1.00  0.00     0.014 A 
HETATM   24  C   UNL     1      28.327  44.897  54.362  1.00  0.00     0.037 A 
HETATM   25  C   UNL     1      28.333  46.131  55.005  1.00  0.00     0.068 A 
HETATM   26  C   UNL     1      27.382  47.083  54.644  1.00  0.00     0.037 A 
HETATM   27  C   UNL     1      26.448  46.817  53.635  1.00  0.00     0.014 A 
BRANCH  25  28
HETATM   28  O   UNL     1      29.198  46.521  55.990  1.00  0.00    -0.352 OA
BRANCH  28  29
HETATM   29  C   UNL     1      30.051  45.516  56.533  1.00  0.00     0.171 C 
HETATM   30  C   UNL     1      30.225  45.799  58.015  1.00  0.00     0.034 C 
ENDBRANCH  28  29
ENDBRANCH  25  28
ENDBRANCH   1  22
TORSDOF 5
ENDMDL
MODEL 10
REMARK VINA RESULT:      -8.4      4.497      6.126
REMARK  5 active torsions:
REMARK  status: ('A' for Active; 'I' for Inactive)
REMARK    1  A    between atoms: C_2  and  O_3 
REMARK    2  A    between atoms: O_3  and  C_4 
REMARK    3  A    between atoms: C_7  and  C_8 
REMARK       I    between atoms: N_11  and  C_12 
REMARK    4  A    between atoms: C_12  and  C_13 
REMARK    5  A    between atoms: C_15  and  C_16 
ROOT
HETATM    1  C   UNL     1      28.129  42.907  52.649  1.00  0.00    -0.049 C 
HETATM    2  C   UNL     1      28.052  41.408  52.820  1.00  0.00     0.059 C 
HETATM    3  C   UNL     1      27.929  40.678  51.485  1.00  0.00     0.131 C 
HETATM    4  N   UNL     1      26.928  41.291  50.617  1.00  0.00    -0.344 N 
HETATM    5  C   UNL     1      26.265  40.427  49.737  1.00  0.00     0.254 C 
HETATM    6  O   UNL     1      26.390  39.204  49.769  1.00  0.00    -0.267 OA
HETATM    7  C   UNL     1      27.114  42.712  50.333  1.00  0.00     0.154 C 
HETATM    8  C   UNL     1      27.690  43.463  51.503  1.00  0.00     0.001 C 
ENDROOT
BRANCH   5   9
HETATM    9  C   UNL     1      25.382  40.979  48.687  1.00  0.00     0.033 A 
HETATM   10  C   UNL     1      24.487  41.993  49.046  1.00  0.00     0.032 A 
HETATM   11  C   UNL     1      23.673  42.597  48.079  1.00  0.00     0.014 A 
HETATM   12  C   UNL     1      23.775  42.166  46.747  1.00  0.00     0.015 A 
HETATM   13  C   UNL     1      24.686  41.169  46.384  1.00  0.00     0.002 A 
HETATM   14  C   UNL     1      25.503  40.583  47.351  1.00  0.00     0.017 A 
BRANCH  11  15
HETATM   15  C   UNL     1      22.753  43.672  48.442  1.00  0.00     0.181 A 
HETATM   16  N   UNL     1      23.089  44.721  49.209  1.00  0.00    -0.152 NA
HETATM   17  N   UNL     1      21.955  45.432  49.230  1.00  0.00    -0.263 N 
HETATM   18  H   UNL     1      21.928  46.308  49.738  1.00  0.00     0.190 HD
HETATM   19  C   UNL     1      20.968  44.821  48.514  1.00  0.00     0.118 A 
HETATM   20  C   UNL     1      19.609  45.378  48.369  1.00  0.00     0.093 C 
HETATM   21  N   UNL     1      21.442  43.702  48.012  1.00  0.00    -0.212 NA
ENDBRANCH  11  15
ENDBRANCH   5   9
BRANCH   1  22
HETATM   22  C   UNL     1      28.685  43.707  53.773  1.00  0.00    -0.030 A 
HETATM   23  C   UNL     1      29.816  43.267  54.479  1.00  0.00     0.014 A 
HETATM   24  C   UNL     1      30.385  44.035  55.506  1.00  0.00     0.037 A 
HETATM   25  C   UNL     1      29.830  45.264  55.852  1.00  0.00     0.068 A 
HETATM   26  C   UNL     1      28.698  45.707  55.172  1.00  0.00     0.037 A 
HETATM   27  C   UNL     1      28.137  44.944  54.139  1.00  0.00     0.014 A 
BRANCH  25  28
HETATM   28  O   UNL     1      30.288  46.109  56.824  1.00  0.00    -0.352 OA
BRANCH  28  29
HETATM   29  C   UNL     1      30.114  45.690  58.176  1.00  0.00     0.171 C 
HETATM   30  C   UNL     1      31.292  44.807  58.550  1.00  0.00     0.034 C 
ENDBRANCH  28  29
ENDBRANCH  25  28
ENDBRANCH   1  22
TORSDOF 5
ENDMDL
