MODEL 1
REMARK VINA RESULT:      -9.6      0.000      0.000
REMARK  6 active torsions:
REMARK  status: ('A' for Active; 'I' for Inactive)
REMARK    1  A    between atoms: C_2  and  C_4 
REMARK    2  A    between atoms: C_2  and  C_11 
REMARK    3  A    between atoms: C_2  and  O_3 
REMARK    4  A    between atoms: C_11  and  N_12 
REMARK       I    between atoms: N_12  and  C_13 
REMARK    5  A    between atoms: C_13  and  C_14 
REMARK    6  A    between atoms: C_18  and  C_19 
ROOT
HETATM    1  N   UNL     1      26.290  45.065  51.662  1.00  0.00    -0.352 N 
HETATM    2  C   UNL     1      26.281  45.428  50.336  1.00  0.00     0.272 C 
HETATM    3  O   UNL     1      27.209  45.212  49.563  1.00  0.00    -0.266 OA
HETATM    4  H   UNL     1      25.495  45.390  52.207  1.00  0.00     0.162 HD
ENDROOT
BRANCH   2   5
HETATM    5  C   UNL     1      25.036  46.095  49.927  1.00  0.00     0.146 A 
HETATM    6  N   UNL     1      23.943  45.405  49.544  1.00  0.00    -0.169 NA
HETATM    7  N   UNL     1      23.059  46.363  49.216  1.00  0.00    -0.277 N 
HETATM    8  H   UNL     1      22.158  46.071  48.855  1.00  0.00     0.189 HD
HETATM    9  C   UNL     1      23.505  47.648  49.404  1.00  0.00     0.063 A 
HETATM   10  C   UNL     1      24.800  47.491  49.862  1.00  0.00     0.071 A 
BRANCH   9  11
HETATM   11  C   UNL     1      22.715  48.850  49.119  1.00  0.00    -0.008 A 
HETATM   12  C   UNL     1      23.326  50.084  48.843  1.00  0.00     0.017 A 
HETATM   13  C   UNL     1      22.555  51.220  48.577  1.00  0.00     0.043 A 
HETATM   14  C   UNL     1      21.169  51.127  48.580  1.00  0.00     0.116 A 
HETATM   15  F   UNL     1      20.432  52.215  48.324  1.00  0.00    -0.206 F 
HETATM   16  C   UNL     1      20.540  49.918  48.843  1.00  0.00     0.043 A 
HETATM   17  C   UNL     1      21.312  48.784  49.111  1.00  0.00     0.017 A 
ENDBRANCH   9  11
ENDBRANCH   2   5
BRANCH   1  18
HETATM   18  C   UNL     1      27.418  44.424  52.316  1.00  0.00     0.165 C 
BRANCH  18  19
HETATM   19  C   UNL     1      27.300  44.423  53.867  1.00  0.00     0.097 C 
HETATM   20  C   UNL     1      26.593  45.708  54.313  1.00  0.00     0.053 C 
BRANCH  19  21
HETATM   21  C   UNL     1      28.613  44.269  54.643  1.00  0.00    -0.023 A 
HETATM   22  C   UNL     1      29.446  43.144  54.508  1.00  0.00     0.013 A 
HETATM   23  C   UNL     1      30.635  43.038  55.235  1.00  0.00     0.043 A 
HETATM   24  C   UNL     1      31.012  44.063  56.092  1.00  0.00     0.116 A 
HETATM   25  F   UNL     1      32.151  43.958  56.788  1.00  0.00    -0.206 F 
HETATM   26  C   UNL     1      30.227  45.198  56.230  1.00  0.00     0.043 A 
HETATM   27  C   UNL     1      29.038  45.302  55.505  1.00  0.00     0.013 A 
ENDBRANCH  19  21
BRANCH  19  28
HETATM   28  O   UNL     1      26.432  43.323  54.206  1.00  0.00    -0.384 OA
HETATM   29  H   UNL     1      26.383  43.305  55.178  1.00  0.00     0.211 HD
ENDBRANCH  19  28
ENDBRANCH  18  19
ENDBRANCH   1  18
TORSDOF 6
ENDMDL
MODEL 2
REMARK VINA RESULT:      -9.1      1.429      1.788
REMARK  6 active torsions:
REMARK  status: ('A' for Active; 'I' for Inactive)
REMARK    1  A    between atoms: C_2  and  C_4 
REMARK    2  A    between atoms: C_2  and  C_11 
REMARK    3  A    between atoms: C_2  and  O_3 
REMARK    4  A    between atoms: C_11  and  N_12 
REMARK       I    between atoms: N_12  and  C_13 
REMARK    5  A    between atoms: C_13  and  C_14 
REMARK    6  A    between atoms: C_18  and  C_19 
ROOT
HETATM    1  N   UNL     1      26.142  45.844  51.279  1.00  0.00    -0.352 N 
HETATM    2  C   UNL     1      26.478  46.267  50.015  1.00  0.00     0.272 C 
HETATM    3  O   UNL     1      27.293  45.696  49.297  1.00  0.00    -0.266 OA
HETATM    4  H   UNL     1      25.524  46.464  51.796  1.00  0.00     0.162 HD
ENDROOT
BRANCH   2   5
HETATM    5  C   UNL     1      25.749  47.473  49.597  1.00  0.00     0.146 A 
HETATM    6  N   UNL     1      26.382  48.578  49.155  1.00  0.00    -0.169 NA
HETATM    7  N   UNL     1      25.383  49.447  48.921  1.00  0.00    -0.277 N 
HETATM    8  H   UNL     1      25.631  50.380  48.612  1.00  0.00     0.189 HD
HETATM    9  C   UNL     1      24.123  48.953  49.151  1.00  0.00     0.063 A 
HETATM   10  C   UNL     1      24.344  47.664  49.600  1.00  0.00     0.071 A 
BRANCH   9  11
HETATM   11  C   UNL     1      22.886  49.715  48.962  1.00  0.00    -0.008 A 
HETATM   12  C   UNL     1      22.309  50.455  50.008  1.00  0.00     0.017 A 
HETATM   13  C   UNL     1      21.126  51.174  49.807  1.00  0.00     0.043 A 
HETATM   14  C   UNL     1      20.516  51.161  48.560  1.00  0.00     0.116 A 
HETATM   15  F   UNL     1      19.384  51.851  48.370  1.00  0.00    -0.206 F 
HETATM   16  C   UNL     1      21.068  50.444  47.508  1.00  0.00     0.043 A 
HETATM   17  C   UNL     1      22.249  49.724  47.709  1.00  0.00     0.017 A 
ENDBRANCH   9  11
ENDBRANCH   2   5
BRANCH   1  18
HETATM   18  C   UNL     1      26.748  44.696  51.934  1.00  0.00     0.165 C 
BRANCH  18  19
HETATM   19  C   UNL     1      26.658  44.764  53.485  1.00  0.00     0.097 C 
HETATM   20  C   UNL     1      26.019  46.099  53.888  1.00  0.00     0.053 C 
BRANCH  19  21
HETATM   21  C   UNL     1      27.976  44.581  54.246  1.00  0.00    -0.023 A 
HETATM   22  C   UNL     1      28.459  45.531  55.163  1.00  0.00     0.013 A 
HETATM   23  C   UNL     1      29.667  45.330  55.837  1.00  0.00     0.043 A 
HETATM   24  C   UNL     1      30.395  44.170  55.614  1.00  0.00     0.116 A 
HETATM   25  F   UNL     1      31.552  43.980  56.260  1.00  0.00    -0.206 F 
HETATM   26  C   UNL     1      29.935  43.200  54.736  1.00  0.00     0.043 A 
HETATM   27  C   UNL     1      28.729  43.402  54.060  1.00  0.00     0.013 A 
ENDBRANCH  19  21
BRANCH  19  28
HETATM   28  O   UNL     1      25.745  43.722  53.884  1.00  0.00    -0.384 OA
HETATM   29  H   UNL     1      25.041  43.705  53.212  1.00  0.00     0.211 HD
ENDBRANCH  19  28
ENDBRANCH  18  19
ENDBRANCH   1  18
TORSDOF 6
ENDMDL
MODEL 3
REMARK VINA RESULT:      -9.0      2.369     10.656
REMARK  6 active torsions:
REMARK  status: ('A' for Active; 'I' for Inactive)
REMARK    1  A    between atoms: C_2  and  C_4 
REMARK    2  A    between atoms: C_2  and  C_11 
REMARK    3  A    between atoms: C_2  and  O_3 
REMARK    4  A    between atoms: C_11  and  N_12 
REMARK       I    between atoms: N_12  and  C_13 
REMARK    5  A    between atoms: C_13  and  C_14 
REMARK    6  A    between atoms: C_18  and  C_19 
ROOT
HETATM    1  N   UNL     1      23.072  48.036  49.651  1.00  0.00    -0.352 N 
HETATM    2  C   UNL     1      23.714  46.822  49.586  1.00  0.00     0.272 C 
HETATM    3  O   UNL     1      23.482  45.971  48.732  1.00  0.00    -0.266 OA
HETATM    4  H   UNL     1      23.296  48.603  50.464  1.00  0.00     0.162 HD
ENDROOT
BRANCH   2   5
HETATM    5  C   UNL     1      24.723  46.644  50.640  1.00  0.00     0.146 A 
HETATM    6  N   UNL     1      25.132  47.662  51.423  1.00  0.00    -0.169 NA
HETATM    7  N   UNL     1      26.070  47.105  52.209  1.00  0.00    -0.277 N 
HETATM    8  H   UNL     1      26.555  47.705  52.866  1.00  0.00     0.189 HD
HETATM    9  C   UNL     1      26.268  45.761  52.005  1.00  0.00     0.063 A 
HETATM   10  C   UNL     1      25.400  45.444  50.977  1.00  0.00     0.071 A 
BRANCH   9  11
HETATM   11  C   UNL     1      27.234  44.944  52.745  1.00  0.00    -0.008 A 
HETATM   12  C   UNL     1      27.906  43.868  52.141  1.00  0.00     0.017 A 
HETATM   13  C   UNL     1      28.821  43.099  52.866  1.00  0.00     0.043 A 
HETATM   14  C   UNL     1      29.076  43.405  54.197  1.00  0.00     0.116 A 
HETATM   15  F   UNL     1      29.954  42.667  54.888  1.00  0.00    -0.206 F 
HETATM   16  C   UNL     1      28.432  44.466  54.816  1.00  0.00     0.043 A 
HETATM   17  C   UNL     1      27.515  45.233  54.092  1.00  0.00     0.017 A 
ENDBRANCH   9  11
ENDBRANCH   2   5
BRANCH   1  18
HETATM   18  C   UNL     1      22.010  48.437  48.743  1.00  0.00     0.165 C 
BRANCH  18  19
HETATM   19  C   UNL     1      22.071  49.944  48.367  1.00  0.00     0.097 C 
HETATM   20  C   UNL     1      22.692  50.724  49.532  1.00  0.00     0.053 C 
BRANCH  19  21
HETATM   21  C   UNL     1      20.739  50.596  47.973  1.00  0.00    -0.023 A 
HETATM   22  C   UNL     1      19.918  50.082  46.954  1.00  0.00     0.013 A 
HETATM   23  C   UNL     1      18.712  50.706  46.621  1.00  0.00     0.043 A 
HETATM   24  C   UNL     1      18.307  51.838  47.315  1.00  0.00     0.116 A 
HETATM   25  F   UNL     1      17.152  52.433  46.993  1.00  0.00    -0.206 F 
HETATM   26  C   UNL     1      19.081  52.356  48.343  1.00  0.00     0.043 A 
HETATM   27  C   UNL     1      20.287  51.734  48.673  1.00  0.00     0.013 A 
ENDBRANCH  19  21
BRANCH  19  28
HETATM   28  O   UNL     1      22.982  50.049  47.255  1.00  0.00    -0.384 OA
HETATM   29  H   UNL     1      23.405  50.922  47.331  1.00  0.00     0.211 HD
ENDBRANCH  19  28
ENDBRANCH  18  19
ENDBRANCH   1  18
TORSDOF 6
ENDMDL
MODEL 4
REMARK VINA RESULT:      -9.0      4.513      8.158
REMARK  6 active torsions:
REMARK  status: ('A' for Active; 'I' for Inactive)
REMARK    1  A    between atoms: C_2  and  C_4 
REMARK    2  A    between atoms: C_2  and  C_11 
REMARK    3  A    between atoms: C_2  and  O_3 
REMARK    4  A    between atoms: C_11  and  N_12 
REMARK       I    between atoms: N_12  and  C_13 
REMARK    5  A    between atoms: C_13  and  C_14 
REMARK    6  A    between atoms: C_18  and  C_19 
ROOT
HETATM    1  N   UNL     1      24.929  45.254  51.903  1.00  0.00    -0.352 N 
HETATM    2  C   UNL     1      25.292  46.552  52.172  1.00  0.00     0.272 C 
HETATM    3  O   UNL     1      25.000  47.506  51.457  1.00  0.00    -0.266 OA
HETATM    4  H   UNL     1      25.318  44.554  52.529  1.00  0.00     0.162 HD
ENDROOT
BRANCH   2   5
HETATM    5  C   UNL     1      26.060  46.691  53.418  1.00  0.00     0.146 A 
HETATM    6  N   UNL     1      25.847  47.700  54.285  1.00  0.00    -0.169 NA
HETATM    7  N   UNL     1      26.762  47.494  55.248  1.00  0.00    -0.277 N 
HETATM    8  H   UNL     1      26.815  48.168  56.003  1.00  0.00     0.189 HD
HETATM    9  C   UNL     1      27.540  46.376  55.074  1.00  0.00     0.063 A 
HETATM   10  C   UNL     1      27.099  45.842  53.877  1.00  0.00     0.071 A 
BRANCH   9  11
HETATM   11  C   UNL     1      28.598  45.950  55.995  1.00  0.00    -0.008 A 
HETATM   12  C   UNL     1      28.601  46.340  57.344  1.00  0.00     0.017 A 
HETATM   13  C   UNL     1      29.621  45.925  58.206  1.00  0.00     0.043 A 
HETATM   14  C   UNL     1      30.640  45.113  57.726  1.00  0.00     0.116 A 
HETATM   15  F   UNL     1      31.615  44.716  58.553  1.00  0.00    -0.206 F 
HETATM   16  C   UNL     1      30.658  44.707  56.399  1.00  0.00     0.043 A 
HETATM   17  C   UNL     1      29.639  45.125  55.537  1.00  0.00     0.017 A 
ENDBRANCH   9  11
ENDBRANCH   2   5
BRANCH   1  18
HETATM   18  C   UNL     1      24.196  44.851  50.715  1.00  0.00     0.165 C 
BRANCH  18  19
HETATM   19  C   UNL     1      25.057  44.018  49.723  1.00  0.00     0.097 C 
HETATM   20  C   UNL     1      24.126  43.299  48.738  1.00  0.00     0.053 C 
BRANCH  19  21
HETATM   21  C   UNL     1      26.015  43.000  50.352  1.00  0.00    -0.023 A 
HETATM   22  C   UNL     1      25.719  41.628  50.428  1.00  0.00     0.013 A 
HETATM   23  C   UNL     1      26.618  40.730  51.011  1.00  0.00     0.043 A 
HETATM   24  C   UNL     1      27.828  41.192  51.510  1.00  0.00     0.116 A 
HETATM   25  F   UNL     1      28.686  40.330  52.069  1.00  0.00    -0.206 F 
HETATM   26  C   UNL     1      28.163  42.536  51.428  1.00  0.00     0.043 A 
HETATM   27  C   UNL     1      27.264  43.433  50.848  1.00  0.00     0.013 A 
ENDBRANCH  19  21
BRANCH  19  28
HETATM   28  O   UNL     1      25.828  44.967  48.960  1.00  0.00    -0.384 OA
HETATM   29  H   UNL     1      25.908  45.762  49.516  1.00  0.00     0.211 HD
ENDBRANCH  19  28
ENDBRANCH  18  19
ENDBRANCH   1  18
TORSDOF 6
ENDMDL
MODEL 5
REMARK VINA RESULT:      -8.7      2.475      9.121
REMARK  6 active torsions:
REMARK  status: ('A' for Active; 'I' for Inactive)
REMARK    1  A    between atoms: C_2  and  C_4 
REMARK    2  A    between atoms: C_2  and  C_11 
REMARK    3  A    between atoms: C_2  and  O_3 
REMARK    4  A    between atoms: C_11  and  N_12 
REMARK       I    between atoms: N_12  and  C_13 
REMARK    5  A    between atoms: C_13  and  C_14 
REMARK    6  A    between atoms: C_18  and  C_19 
ROOT
HETATM    1  N   UNL     1      25.827  43.322  50.755  1.00  0.00    -0.352 N 
HETATM    2  C   UNL     1      27.114  42.910  50.501  1.00  0.00     0.272 C 
HETATM    3  O   UNL     1      27.547  42.675  49.377  1.00  0.00    -0.266 OA
HETATM    4  H   UNL     1      25.577  43.388  51.738  1.00  0.00     0.162 HD
ENDROOT
BRANCH   2   5
HETATM    5  C   UNL     1      27.932  42.787  51.716  1.00  0.00     0.146 A 
HETATM    6  N   UNL     1      28.478  41.616  52.100  1.00  0.00    -0.169 NA
HETATM    7  N   UNL     1      29.098  41.915  53.255  1.00  0.00    -0.277 N 
HETATM    8  H   UNL     1      29.554  41.161  53.756  1.00  0.00     0.189 HD
HETATM    9  C   UNL     1      29.019  43.235  53.626  1.00  0.00     0.063 A 
HETATM   10  C   UNL     1      28.254  43.819  52.634  1.00  0.00     0.071 A 
BRANCH   9  11
HETATM   11  C   UNL     1      29.620  43.791  54.842  1.00  0.00    -0.008 A 
HETATM   12  C   UNL     1      29.182  45.008  55.390  1.00  0.00     0.017 A 
HETATM   13  C   UNL     1      29.771  45.524  56.549  1.00  0.00     0.043 A 
HETATM   14  C   UNL     1      30.798  44.824  57.169  1.00  0.00     0.116 A 
HETATM   15  F   UNL     1      31.360  45.319  58.278  1.00  0.00    -0.206 F 
HETATM   16  C   UNL     1      31.246  43.617  56.652  1.00  0.00     0.043 A 
HETATM   17  C   UNL     1      30.658  43.103  55.492  1.00  0.00     0.017 A 
ENDBRANCH   9  11
ENDBRANCH   2   5
BRANCH   1  18
HETATM   18  C   UNL     1      24.814  43.485  49.726  1.00  0.00     0.165 C 
BRANCH  18  19
HETATM   19  C   UNL     1      23.774  44.589  50.068  1.00  0.00     0.097 C 
HETATM   20  C   UNL     1      22.455  44.269  49.354  1.00  0.00     0.053 C 
BRANCH  19  21
HETATM   21  C   UNL     1      24.189  46.030  49.747  1.00  0.00    -0.023 A 
HETATM   22  C   UNL     1      23.291  46.979  49.228  1.00  0.00     0.013 A 
HETATM   23  C   UNL     1      23.707  48.283  48.945  1.00  0.00     0.043 A 
HETATM   24  C   UNL     1      25.020  48.656  49.195  1.00  0.00     0.116 A 
HETATM   25  F   UNL     1      25.416  49.906  48.922  1.00  0.00    -0.206 F 
HETATM   26  C   UNL     1      25.926  47.753  49.730  1.00  0.00     0.043 A 
HETATM   27  C   UNL     1      25.510  46.449  50.010  1.00  0.00     0.013 A 
ENDBRANCH  19  21
BRANCH  19  28
HETATM   28  O   UNL     1      23.524  44.486  51.484  1.00  0.00    -0.384 OA
HETATM   29  H   UNL     1      24.337  44.787  51.927  1.00  0.00     0.211 HD
ENDBRANCH  19  28
ENDBRANCH  18  19
ENDBRANCH   1  18
TORSDOF 6
ENDMDL
MODEL 6
REMARK VINA RESULT:      -8.6      3.273     10.688
REMARK  6 active torsions:
REMARK  status: ('A' for Active; 'I' for Inactive)
REMARK    1  A    between atoms: C_2  and  C_4 
REMARK    2  A    between atoms: C_2  and  C_11 
REMARK    3  A    between atoms: C_2  and  O_3 
REMARK    4  A    between atoms: C_11  and  N_12 
REMARK       I    between atoms: N_12  and  C_13 
REMARK    5  A    between atoms: C_13  and  C_14 
REMARK    6  A    between atoms: C_18  and  C_19 
ROOT
HETATM    1  N   UNL     1      22.062  48.595  49.495  1.00  0.00    -0.352 N 
HETATM    2  C   UNL     1      23.244  48.640  48.796  1.00  0.00     0.272 C 
HETATM    3  O   UNL     1      23.343  49.060  47.647  1.00  0.00    -0.266 OA
HETATM    4  H   UNL     1      22.108  48.137  50.401  1.00  0.00     0.162 HD
ENDROOT
BRANCH   2   5
HETATM    5  C   UNL     1      24.392  48.144  49.569  1.00  0.00     0.146 A 
HETATM    6  N   UNL     1      25.627  48.669  49.440  1.00  0.00    -0.169 NA
HETATM    7  N   UNL     1      26.380  47.924  50.268  1.00  0.00    -0.277 N 
HETATM    8  H   UNL     1      27.374  48.117  50.306  1.00  0.00     0.189 HD
HETATM    9  C   UNL     1      25.691  46.961  50.964  1.00  0.00     0.063 A 
HETATM   10  C   UNL     1      24.389  47.087  50.514  1.00  0.00     0.071 A 
BRANCH   9  11
HETATM   11  C   UNL     1      26.300  46.036  51.924  1.00  0.00    -0.008 A 
HETATM   12  C   UNL     1      26.385  46.344  53.292  1.00  0.00     0.017 A 
HETATM   13  C   UNL     1      26.974  45.449  54.191  1.00  0.00     0.043 A 
HETATM   14  C   UNL     1      27.475  44.239  53.729  1.00  0.00     0.116 A 
HETATM   15  F   UNL     1      28.037  43.383  54.592  1.00  0.00    -0.206 F 
HETATM   16  C   UNL     1      27.399  43.907  52.384  1.00  0.00     0.043 A 
HETATM   17  C   UNL     1      26.812  44.803  51.485  1.00  0.00     0.017 A 
ENDBRANCH   9  11
ENDBRANCH   2   5
BRANCH   1  18
HETATM   18  C   UNL     1      20.780  48.996  48.939  1.00  0.00     0.165 C 
BRANCH  18  19
HETATM   19  C   UNL     1      20.465  50.502  49.165  1.00  0.00     0.097 C 
HETATM   20  C   UNL     1      21.115  50.955  50.479  1.00  0.00     0.053 C 
BRANCH  19  21
HETATM   21  C   UNL     1      18.981  50.888  49.173  1.00  0.00    -0.023 A 
HETATM   22  C   UNL     1      17.982  50.064  48.626  1.00  0.00     0.013 A 
HETATM   23  C   UNL     1      16.639  50.451  48.650  1.00  0.00     0.043 A 
HETATM   24  C   UNL     1      16.280  51.657  49.235  1.00  0.00     0.116 A 
HETATM   25  F   UNL     1      14.993  52.025  49.256  1.00  0.00    -0.206 F 
HETATM   26  C   UNL     1      17.237  52.482  49.807  1.00  0.00     0.043 A 
HETATM   27  C   UNL     1      18.579  52.096  49.781  1.00  0.00     0.013 A 
ENDBRANCH  19  21
BRANCH  19  28
HETATM   28  O   UNL     1      21.122  51.218  48.100  1.00  0.00    -0.384 OA
HETATM   29  H   UNL     1      20.570  51.095  47.309  1.00  0.00     0.211 HD
ENDBRANCH  19  28
ENDBRANCH  18  19
ENDBRANCH   1  18
TORSDOF 6
ENDMDL
MODEL 7
REMARK VINA RESULT:      -8.5      2.226      3.518
REMARK  6 active torsions:
REMARK  status: ('A' for Active; 'I' for Inactive)
REMARK    1  A    between atoms: C_2  and  C_4 
REMARK    2  A    between atoms: C_2  and  C_11 
REMARK    3  A    between atoms: C_2  and  O_3 
REMARK    4  A    between atoms: C_11  and  N_12 
REMARK       I    between atoms: N_12  and  C_13 
REMARK    5  A    between atoms: C_13  and  C_14 
REMARK    6  A    between atoms: C_18  and  C_19 
ROOT
HETATM    1  N   UNL     1      24.828  47.014  50.126  1.00  0.00    -0.352 N 
HETATM    2  C   UNL     1      24.618  48.252  49.567  1.00  0.00     0.272 C 
HETATM    3  O   UNL     1      25.520  49.026  49.262  1.00  0.00    -0.266 OA
HETATM    4  H   UNL     1      23.989  46.518  50.415  1.00  0.00     0.162 HD
ENDROOT
BRANCH   2   5
HETATM    5  C   UNL     1      23.196  48.557  49.356  1.00  0.00     0.146 A 
HETATM    6  N   UNL     1      22.321  47.635  48.908  1.00  0.00    -0.169 NA
HETATM    7  N   UNL     1      21.163  48.311  48.813  1.00  0.00    -0.277 N 
HETATM    8  H   UNL     1      20.355  47.818  48.451  1.00  0.00     0.189 HD
HETATM    9  C   UNL     1      21.227  49.623  49.215  1.00  0.00     0.063 A 
HETATM   10  C   UNL     1      22.552  49.803  49.567  1.00  0.00     0.071 A 
BRANCH   9  11
HETATM   11  C   UNL     1      20.092  50.550  49.203  1.00  0.00    -0.008 A 
HETATM   12  C   UNL     1      20.110  51.727  48.436  1.00  0.00     0.017 A 
HETATM   13  C   UNL     1      19.018  52.601  48.440  1.00  0.00     0.043 A 
HETATM   14  C   UNL     1      17.900  52.300  49.207  1.00  0.00     0.116 A 
HETATM   15  F   UNL     1      16.855  53.137  49.209  1.00  0.00    -0.206 F 
HETATM   16  C   UNL     1      17.853  51.141  49.969  1.00  0.00     0.043 A 
HETATM   17  C   UNL     1      18.946  50.270  49.965  1.00  0.00     0.017 A 
ENDBRANCH   9  11
ENDBRANCH   2   5
BRANCH   1  18
HETATM   18  C   UNL     1      26.142  46.493  50.465  1.00  0.00     0.165 C 
BRANCH  18  19
HETATM   19  C   UNL     1      26.097  45.404  51.573  1.00  0.00     0.097 C 
HETATM   20  C   UNL     1      24.645  44.946  51.762  1.00  0.00     0.053 C 
BRANCH  19  21
HETATM   21  C   UNL     1      26.686  45.798  52.932  1.00  0.00    -0.023 A 
HETATM   22  C   UNL     1      26.403  47.028  53.552  1.00  0.00     0.013 A 
HETATM   23  C   UNL     1      26.961  47.353  54.792  1.00  0.00     0.043 A 
HETATM   24  C   UNL     1      27.795  46.446  55.431  1.00  0.00     0.116 A 
HETATM   25  F   UNL     1      28.329  46.761  56.618  1.00  0.00    -0.206 F 
HETATM   26  C   UNL     1      28.075  45.214  54.860  1.00  0.00     0.043 A 
HETATM   27  C   UNL     1      27.519  44.890  53.620  1.00  0.00     0.013 A 
ENDBRANCH  19  21
BRANCH  19  28
HETATM   28  O   UNL     1      26.832  44.274  51.061  1.00  0.00    -0.384 OA
HETATM   29  H   UNL     1      26.211  43.525  51.055  1.00  0.00     0.211 HD
ENDBRANCH  19  28
ENDBRANCH  18  19
ENDBRANCH   1  18
TORSDOF 6
ENDMDL
MODEL 8
REMARK VINA RESULT:      -8.4      5.560      8.804
REMARK  6 active torsions:
REMARK  status: ('A' for Active; 'I' for Inactive)
REMARK    1  A    between atoms: C_2  and  C_4 
REMARK    2  A    between atoms: C_2  and  C_11 
REMARK    3  A    between atoms: C_2  and  O_3 
REMARK    4  A    between atoms: C_11  and  N_12 
REMARK       I    between atoms: N_12  and  C_13 
REMARK    5  A    between atoms: C_13  and  C_14 
REMARK    6  A    between atoms: C_18  and  C_19 
ROOT
HETATM    1  N   UNL     1      26.073  42.343  50.707  1.00  0.00    -0.352 N 
HETATM    2  C   UNL     1      26.337  43.691  50.692  1.00  0.00     0.272 C 
HETATM    3  O   UNL     1      26.104  44.423  49.734  1.00  0.00    -0.266 OA
HETATM    4  H   UNL     1      26.402  41.843  51.529  1.00  0.00     0.162 HD
ENDROOT
BRANCH   2   5
HETATM    5  C   UNL     1      26.920  44.180  51.950  1.00  0.00     0.146 A 
HETATM    6  N   UNL     1      26.451  45.274  52.583  1.00  0.00    -0.169 NA
HETATM    7  N   UNL     1      27.265  45.404  53.645  1.00  0.00    -0.277 N 
HETATM    8  H   UNL     1      27.122  46.200  54.256  1.00  0.00     0.189 HD
HETATM    9  C   UNL     1      28.221  44.425  53.760  1.00  0.00     0.063 A 
HETATM   10  C   UNL     1      28.014  43.620  52.656  1.00  0.00     0.071 A 
BRANCH   9  11
HETATM   11  C   UNL     1      29.214  44.360  54.837  1.00  0.00    -0.008 A 
HETATM   12  C   UNL     1      30.093  43.271  54.963  1.00  0.00     0.017 A 
HETATM   13  C   UNL     1      31.032  43.226  55.999  1.00  0.00     0.043 A 
HETATM   14  C   UNL     1      31.100  44.271  56.911  1.00  0.00     0.116 A 
HETATM   15  F   UNL     1      32.000  44.226  57.902  1.00  0.00    -0.206 F 
HETATM   16  C   UNL     1      30.248  45.361  56.807  1.00  0.00     0.043 A 
HETATM   17  C   UNL     1      29.309  45.404  55.772  1.00  0.00     0.017 A 
ENDBRANCH   9  11
ENDBRANCH   2   5
BRANCH   1  18
HETATM   18  C   UNL     1      25.528  41.614  49.573  1.00  0.00     0.165 C 
BRANCH  18  19
HETATM   19  C   UNL     1      26.627  41.064  48.621  1.00  0.00     0.097 C 
HETATM   20  C   UNL     1      25.954  40.435  47.395  1.00  0.00     0.053 C 
BRANCH  19  21
HETATM   21  C   UNL     1      27.609  40.057  49.234  1.00  0.00    -0.023 A 
HETATM   22  C   UNL     1      28.239  40.273  50.472  1.00  0.00     0.013 A 
HETATM   23  C   UNL     1      29.131  39.332  50.997  1.00  0.00     0.043 A 
HETATM   24  C   UNL     1      29.387  38.161  50.298  1.00  0.00     0.116 A 
HETATM   25  F   UNL     1      30.242  37.263  50.804  1.00  0.00    -0.206 F 
HETATM   26  C   UNL     1      28.763  37.905  49.087  1.00  0.00     0.043 A 
HETATM   27  C   UNL     1      27.874  38.846  48.561  1.00  0.00     0.013 A 
ENDBRANCH  19  21
BRANCH  19  28
HETATM   28  O   UNL     1      27.371  42.208  48.155  1.00  0.00    -0.384 OA
HETATM   29  H   UNL     1      27.493  42.785  48.929  1.00  0.00     0.211 HD
ENDBRANCH  19  28
ENDBRANCH  18  19
ENDBRANCH   1  18
TORSDOF 6
ENDMDL
MODEL 9
REMARK VINA RESULT:      -8.3      2.831     10.308
REMARK  6 active torsions:
REMARK  status: ('A' for Active; 'I' for Inactive)
REMARK    1  A    between atoms: C_2  and  C_4 
REMARK    2  A    between atoms: C_2  and  C_11 
REMARK    3  A    between atoms: C_2  and  O_3 
REMARK    4  A    between atoms: C_11  and  N_12 
REMARK       I    between atoms: N_12  and  C_13 
REMARK    5  A    between atoms: C_13  and  C_14 
REMARK    6  A    between atoms: C_18  and  C_19 
ROOT
HETATM    1  N   UNL     1      23.360  48.199  49.542  1.00  0.00    -0.352 N 
HETATM    2  C   UNL     1      24.730  48.190  49.654  1.00  0.00     0.272 C 
HETATM    3  O   UNL     1      25.474  48.901  48.986  1.00  0.00    -0.266 OA
HETATM    4  H   UNL     1      22.874  47.493  50.089  1.00  0.00     0.162 HD
ENDROOT
BRANCH   2   5
HETATM    5  C   UNL     1      25.221  47.249  50.671  1.00  0.00     0.146 A 
HETATM    6  N   UNL     1      25.149  47.513  51.991  1.00  0.00    -0.169 NA
HETATM    7  N   UNL     1      25.731  46.445  52.564  1.00  0.00    -0.277 N 
HETATM    8  H   UNL     1      25.827  46.443  53.573  1.00  0.00     0.189 HD
HETATM    9  C   UNL     1      26.144  45.474  51.685  1.00  0.00     0.063 A 
HETATM   10  C   UNL     1      25.825  45.986  50.442  1.00  0.00     0.071 A 
BRANCH   9  11
HETATM   11  C   UNL     1      26.799  44.223  52.081  1.00  0.00    -0.008 A 
HETATM   12  C   UNL     1      27.631  44.152  53.210  1.00  0.00     0.017 A 
HETATM   13  C   UNL     1      28.248  42.949  53.568  1.00  0.00     0.043 A 
HETATM   14  C   UNL     1      28.033  41.811  52.803  1.00  0.00     0.116 A 
HETATM   15  F   UNL     1      28.625  40.660  53.149  1.00  0.00    -0.206 F 
HETATM   16  C   UNL     1      27.211  41.851  51.686  1.00  0.00     0.043 A 
HETATM   17  C   UNL     1      26.596  43.055  51.327  1.00  0.00     0.017 A 
ENDBRANCH   9  11
ENDBRANCH   2   5
BRANCH   1  18
HETATM   18  C   UNL     1      22.633  49.017  48.585  1.00  0.00     0.165 C 
BRANCH  18  19
HETATM   19  C   UNL     1      21.110  48.708  48.556  1.00  0.00     0.097 C 
HETATM   20  C   UNL     1      20.752  48.092  47.198  1.00  0.00     0.053 C 
BRANCH  19  21
HETATM   21  C   UNL     1      20.176  49.891  48.839  1.00  0.00    -0.023 A 
HETATM   22  C   UNL     1      19.081  49.799  49.716  1.00  0.00     0.013 A 
HETATM   23  C   UNL     1      18.250  50.899  49.946  1.00  0.00     0.043 A 
HETATM   24  C   UNL     1      18.516  52.107  49.316  1.00  0.00     0.116 A 
HETATM   25  F   UNL     1      17.718  53.159  49.538  1.00  0.00    -0.206 F 
HETATM   26  C   UNL     1      19.603  52.240  48.465  1.00  0.00     0.043 A 
HETATM   27  C   UNL     1      20.431  51.140  48.232  1.00  0.00     0.013 A 
ENDBRANCH  19  21
BRANCH  19  28
HETATM   28  O   UNL     1      20.882  47.693  49.554  1.00  0.00    -0.384 OA
HETATM   29  H   UNL     1      21.357  47.985  50.352  1.00  0.00     0.211 HD
ENDBRANCH  19  28
ENDBRANCH  18  19
ENDBRANCH   1  18
TORSDOF 6
ENDMDL
MODEL 10
REMARK VINA RESULT:      -8.3     12.425     15.024
REMARK  6 active torsions:
REMARK  status: ('A' for Active; 'I' for Inactive)
REMARK    1  A    between atoms: C_2  and  C_4 
REMARK    2  A    between atoms: C_2  and  C_11 
REMARK    3  A    between atoms: C_2  and  O_3 
REMARK    4  A    between atoms: C_11  and  N_12 
REMARK       I    between atoms: N_12  and  C_13 
REMARK    5  A    between atoms: C_13  and  C_14 
REMARK    6  A    between atoms: C_18  and  C_19 
ROOT
HETATM    1  N   UNL     1      29.160  48.576  39.425  1.00  0.00    -0.352 N 
HETATM    2  C   UNL     1      29.538  48.300  40.717  1.00  0.00     0.272 C 
HETATM    3  O   UNL     1      28.777  47.856  41.571  1.00  0.00    -0.266 OA
HETATM    4  H   UNL     1      29.868  49.028  38.852  1.00  0.00     0.162 HD
ENDROOT
BRANCH   2   5
HETATM    5  C   UNL     1      30.957  48.580  40.978  1.00  0.00     0.146 A 
HETATM    6  N   UNL     1      31.936  47.725  40.622  1.00  0.00    -0.169 NA
HETATM    7  N   UNL     1      33.058  48.318  41.066  1.00  0.00    -0.277 N 
HETATM    8  H   UNL     1      33.935  47.825  40.941  1.00  0.00     0.189 HD
HETATM    9  C   UNL     1      32.866  49.540  41.662  1.00  0.00     0.063 A 
HETATM   10  C   UNL     1      31.496  49.725  41.619  1.00  0.00     0.071 A 
BRANCH   9  11
HETATM   11  C   UNL     1      33.939  50.370  42.216  1.00  0.00    -0.008 A 
HETATM   12  C   UNL     1      35.259  50.281  41.743  1.00  0.00     0.017 A 
HETATM   13  C   UNL     1      36.270  51.079  42.288  1.00  0.00     0.043 A 
HETATM   14  C   UNL     1      35.966  51.975  43.304  1.00  0.00     0.116 A 
HETATM   15  F   UNL     1      36.935  52.738  43.824  1.00  0.00    -0.206 F 
HETATM   16  C   UNL     1      34.670  52.088  43.787  1.00  0.00     0.043 A 
HETATM   17  C   UNL     1      33.661  51.288  43.243  1.00  0.00     0.017 A 
ENDBRANCH   9  11
ENDBRANCH   2   5
BRANCH   1  18
HETATM   18  C   UNL     1      27.803  48.417  38.929  1.00  0.00     0.165 C 
BRANCH  18  19
HETATM   19  C   UNL     1      26.893  49.637  39.250  1.00  0.00     0.097 C 
HETATM   20  C   UNL     1      25.870  49.805  38.120  1.00  0.00     0.053 C 
BRANCH  19  21
HETATM   21  C   UNL     1      27.611  50.970  39.489  1.00  0.00    -0.023 A 
HETATM   22  C   UNL     1      27.765  51.528  40.771  1.00  0.00     0.013 A 
HETATM   23  C   UNL     1      28.423  52.748  40.949  1.00  0.00     0.043 A 
HETATM   24  C   UNL     1      28.949  53.414  39.850  1.00  0.00     0.116 A 
HETATM   25  F   UNL     1      29.578  54.583  40.024  1.00  0.00    -0.206 F 
HETATM   26  C   UNL     1      28.837  52.880  38.575  1.00  0.00     0.043 A 
HETATM   27  C   UNL     1      28.177  51.662  38.397  1.00  0.00     0.013 A 
ENDBRANCH  19  21
BRANCH  19  28
HETATM   28  O   UNL     1      26.156  49.290  40.439  1.00  0.00    -0.384 OA
HETATM   29  H   UNL     1      26.712  49.557  41.192  1.00  0.00     0.211 HD
ENDBRANCH  19  28
ENDBRANCH  18  19
ENDBRANCH   1  18
TORSDOF 6
ENDMDL
