MODEL 1
REMARK VINA RESULT:      -9.5      0.000      0.000
REMARK  5 active torsions:
REMARK  status: ('A' for Active; 'I' for Inactive)
REMARK    1  A    between atoms: O_2  and  C_3 
REMARK    2  A    between atoms: C_7  and  C_8 
REMARK    3  A    between atoms: C_8  and  N_9 
REMARK       I    between atoms: N_9  and  C_10 
REMARK       I    between atoms: C_10  and  N_12 
REMARK    4  A    between atoms: N_12  and  C_13 
REMARK    5  A    between atoms: C_16  and  C_19 
ROOT
HETATM    1  N   UNL     1      24.319  47.412  50.831  1.00  0.00    -0.339 N 
HETATM    2  C   UNL     1      25.551  47.061  51.345  1.00  0.00     0.320 C 
HETATM    3  O   UNL     1      26.557  47.022  50.649  1.00  0.00    -0.247 OA
HETATM    4  N   UNL     1      25.473  46.812  52.697  1.00  0.00    -0.309 N 
HETATM    5  H   UNL     1      23.511  46.999  51.270  1.00  0.00     0.164 HD
HETATM    6  H   UNL     1      24.581  47.007  53.125  1.00  0.00     0.170 HD
ENDROOT
BRANCH   4   7
HETATM    7  C   UNL     1      26.526  46.457  53.565  1.00  0.00     0.036 A 
HETATM    8  C   UNL     1      27.169  47.354  54.417  1.00  0.00     0.030 A 
HETATM    9  C   UNL     1      28.191  46.920  55.271  1.00  0.00     0.014 A 
HETATM   10  C   UNL     1      28.605  45.581  55.291  1.00  0.00    -0.026 A 
HETATM   11  C   UNL     1      27.965  44.689  54.420  1.00  0.00     0.014 A 
HETATM   12  C   UNL     1      26.938  45.120  53.569  1.00  0.00     0.030 A 
BRANCH  10  13
HETATM   13  C   UNL     1      29.669  45.131  56.202  1.00  0.00    -0.023 A 
HETATM   14  C   UNL     1      30.542  44.097  55.839  1.00  0.00     0.031 A 
HETATM   15  C   UNL     1      31.528  43.702  56.729  1.00  0.00     0.117 A 
HETATM   16  N   UNL     1      31.705  44.255  57.947  1.00  0.00    -0.273 NA
HETATM   17  C   UNL     1      30.856  45.247  58.286  1.00  0.00     0.117 A 
HETATM   18  C   UNL     1      29.842  45.713  57.463  1.00  0.00     0.031 A 
ENDBRANCH  10  13
ENDBRANCH   4   7
BRANCH   1  19
HETATM   19  C   UNL     1      24.201  47.676  49.412  1.00  0.00     0.163 C 
BRANCH  19  20
HETATM   20  C   UNL     1      23.289  48.839  49.121  1.00  0.00    -0.038 A 
HETATM   21  C   UNL     1      23.805  50.079  48.722  1.00  0.00     0.009 A 
HETATM   22  C   UNL     1      22.948  51.127  48.386  1.00  0.00     0.003 A 
HETATM   23  C   UNL     1      21.564  50.943  48.420  1.00  0.00     0.037 A 
HETATM   24  C   UNL     1      21.034  49.708  48.790  1.00  0.00     0.068 A 
HETATM   25  C   UNL     1      21.897  48.668  49.151  1.00  0.00     0.045 A 
BRANCH  24  26
HETATM   26  O   UNL     1      19.703  49.394  48.844  1.00  0.00    -0.356 OA
HETATM   27  C   UNL     1      19.186  49.067  50.129  1.00  0.00     0.210 C 
ENDBRANCH  24  26
ENDBRANCH  19  20
ENDBRANCH   1  19
TORSDOF 5
ENDMDL
MODEL 2
REMARK VINA RESULT:      -9.2      1.254      2.117
REMARK  5 active torsions:
REMARK  status: ('A' for Active; 'I' for Inactive)
REMARK    1  A    between atoms: O_2  and  C_3 
REMARK    2  A    between atoms: C_7  and  C_8 
REMARK    3  A    between atoms: C_8  and  N_9 
REMARK       I    between atoms: N_9  and  C_10 
REMARK       I    between atoms: C_10  and  N_12 
REMARK    4  A    between atoms: N_12  and  C_13 
REMARK    5  A    between atoms: C_16  and  C_19 
ROOT
HETATM    1  N   UNL     1      23.185  47.703  49.631  1.00  0.00    -0.339 N 
HETATM    2  C   UNL     1      24.415  47.538  50.237  1.00  0.00     0.320 C 
HETATM    3  O   UNL     1      25.362  48.273  49.991  1.00  0.00    -0.247 OA
HETATM    4  N   UNL     1      24.389  46.498  51.138  1.00  0.00    -0.309 N 
HETATM    5  H   UNL     1      22.632  46.871  49.497  1.00  0.00     0.164 HD
HETATM    6  H   UNL     1      23.486  46.077  51.294  1.00  0.00     0.170 HD
ENDROOT
BRANCH   4   7
HETATM    7  C   UNL     1      25.443  46.052  51.963  1.00  0.00     0.036 A 
HETATM    8  C   UNL     1      26.172  44.886  51.732  1.00  0.00     0.030 A 
HETATM    9  C   UNL     1      27.224  44.522  52.582  1.00  0.00     0.014 A 
HETATM   10  C   UNL     1      27.571  45.307  53.691  1.00  0.00    -0.026 A 
HETATM   11  C   UNL     1      26.823  46.469  53.924  1.00  0.00     0.014 A 
HETATM   12  C   UNL     1      25.774  46.838  53.072  1.00  0.00     0.030 A 
BRANCH  10  13
HETATM   13  C   UNL     1      28.687  44.925  54.569  1.00  0.00    -0.023 A 
HETATM   14  C   UNL     1      29.364  43.711  54.393  1.00  0.00     0.031 A 
HETATM   15  C   UNL     1      30.407  43.389  55.246  1.00  0.00     0.117 A 
HETATM   16  N   UNL     1      30.821  44.180  56.257  1.00  0.00    -0.273 NA
HETATM   17  C   UNL     1      30.161  45.344  56.419  1.00  0.00     0.117 A 
HETATM   18  C   UNL     1      29.108  45.755  55.615  1.00  0.00     0.031 A 
ENDBRANCH  10  13
ENDBRANCH   4   7
BRANCH   1  19
HETATM   19  C   UNL     1      23.033  48.732  48.624  1.00  0.00     0.163 C 
BRANCH  19  20
HETATM   20  C   UNL     1      21.801  49.570  48.845  1.00  0.00    -0.038 A 
HETATM   21  C   UNL     1      21.759  50.912  48.446  1.00  0.00     0.009 A 
HETATM   22  C   UNL     1      20.588  51.657  48.590  1.00  0.00     0.003 A 
HETATM   23  C   UNL     1      19.437  51.065  49.112  1.00  0.00     0.037 A 
HETATM   24  C   UNL     1      19.453  49.723  49.491  1.00  0.00     0.068 A 
HETATM   25  C   UNL     1      20.637  48.988  49.369  1.00  0.00     0.045 A 
BRANCH  24  26
HETATM   26  O   UNL     1      18.392  49.023  49.996  1.00  0.00    -0.356 OA
HETATM   27  C   UNL     1      18.542  48.521  51.319  1.00  0.00     0.210 C 
ENDBRANCH  24  26
ENDBRANCH  19  20
ENDBRANCH   1  19
TORSDOF 5
ENDMDL
MODEL 3
REMARK VINA RESULT:      -8.4      2.171      2.950
REMARK  5 active torsions:
REMARK  status: ('A' for Active; 'I' for Inactive)
REMARK    1  A    between atoms: O_2  and  C_3 
REMARK    2  A    between atoms: C_7  and  C_8 
REMARK    3  A    between atoms: C_8  and  N_9 
REMARK       I    between atoms: N_9  and  C_10 
REMARK       I    between atoms: C_10  and  N_12 
REMARK    4  A    between atoms: N_12  and  C_13 
REMARK    5  A    between atoms: C_16  and  C_19 
ROOT
HETATM    1  N   UNL     1      24.794  44.313  50.047  1.00  0.00    -0.339 N 
HETATM    2  C   UNL     1      25.263  44.360  51.344  1.00  0.00     0.320 C 
HETATM    3  O   UNL     1      24.511  44.300  52.308  1.00  0.00    -0.247 OA
HETATM    4  N   UNL     1      26.637  44.443  51.373  1.00  0.00    -0.309 N 
HETATM    5  H   UNL     1      25.331  44.810  49.354  1.00  0.00     0.164 HD
HETATM    6  H   UNL     1      27.097  44.365  50.479  1.00  0.00     0.170 HD
ENDROOT
BRANCH   4   7
HETATM    7  C   UNL     1      27.469  44.481  52.511  1.00  0.00     0.036 A 
HETATM    8  C   UNL     1      27.318  45.391  53.556  1.00  0.00     0.030 A 
HETATM    9  C   UNL     1      28.170  45.350  54.667  1.00  0.00     0.014 A 
HETATM   10  C   UNL     1      29.201  44.405  54.761  1.00  0.00    -0.026 A 
HETATM   11  C   UNL     1      29.356  43.504  53.699  1.00  0.00     0.014 A 
HETATM   12  C   UNL     1      28.502  43.539  52.589  1.00  0.00     0.030 A 
BRANCH  10  13
HETATM   13  C   UNL     1      30.081  44.359  55.939  1.00  0.00    -0.023 A 
HETATM   14  C   UNL     1      31.023  43.336  56.099  1.00  0.00     0.031 A 
HETATM   15  C   UNL     1      31.829  43.329  57.226  1.00  0.00     0.117 A 
HETATM   16  N   UNL     1      31.765  44.260  58.200  1.00  0.00    -0.273 NA
HETATM   17  C   UNL     1      30.851  45.239  58.037  1.00  0.00     0.117 A 
HETATM   18  C   UNL     1      30.004  45.331  56.943  1.00  0.00     0.031 A 
ENDBRANCH  10  13
ENDBRANCH   4   7
BRANCH   1  19
HETATM   19  C   UNL     1      23.365  44.262  49.820  1.00  0.00     0.163 C 
BRANCH  19  20
HETATM   20  C   UNL     1      22.864  45.456  49.051  1.00  0.00    -0.038 A 
HETATM   21  C   UNL     1      21.796  45.341  48.151  1.00  0.00     0.009 A 
HETATM   22  C   UNL     1      21.296  46.468  47.499  1.00  0.00     0.003 A 
HETATM   23  C   UNL     1      21.839  47.729  47.755  1.00  0.00     0.037 A 
HETATM   24  C   UNL     1      22.885  47.866  48.666  1.00  0.00     0.068 A 
HETATM   25  C   UNL     1      23.401  46.729  49.298  1.00  0.00     0.045 A 
BRANCH  24  26
HETATM   26  O   UNL     1      23.489  49.042  49.019  1.00  0.00    -0.356 OA
HETATM   27  C   UNL     1      24.890  49.123  48.787  1.00  0.00     0.210 C 
ENDBRANCH  24  26
ENDBRANCH  19  20
ENDBRANCH   1  19
TORSDOF 5
ENDMDL
MODEL 4
REMARK VINA RESULT:      -8.3      2.793      9.964
REMARK  5 active torsions:
REMARK  status: ('A' for Active; 'I' for Inactive)
REMARK    1  A    between atoms: O_2  and  C_3 
REMARK    2  A    between atoms: C_7  and  C_8 
REMARK    3  A    between atoms: C_8  and  N_9 
REMARK       I    between atoms: N_9  and  C_10 
REMARK       I    between atoms: C_10  and  N_12 
REMARK    4  A    between atoms: N_12  and  C_13 
REMARK    5  A    between atoms: C_16  and  C_19 
ROOT
HETATM    1  N   UNL     1      27.964  43.845  51.828  1.00  0.00    -0.339 N 
HETATM    2  C   UNL     1      26.754  44.488  51.663  1.00  0.00     0.320 C 
HETATM    3  O   UNL     1      25.839  44.366  52.467  1.00  0.00    -0.247 OA
HETATM    4  N   UNL     1      26.759  45.272  50.531  1.00  0.00    -0.309 N 
HETATM    5  H   UNL     1      28.464  43.598  50.989  1.00  0.00     0.164 HD
HETATM    6  H   UNL     1      27.643  45.339  50.051  1.00  0.00     0.170 HD
ENDROOT
BRANCH   4   7
HETATM    7  C   UNL     1      25.717  46.095  50.054  1.00  0.00     0.036 A 
HETATM    8  C   UNL     1      24.475  45.616  49.641  1.00  0.00     0.030 A 
HETATM    9  C   UNL     1      23.479  46.498  49.203  1.00  0.00     0.014 A 
HETATM   10  C   UNL     1      23.700  47.882  49.157  1.00  0.00    -0.026 A 
HETATM   11  C   UNL     1      24.958  48.354  49.559  1.00  0.00     0.014 A 
HETATM   12  C   UNL     1      25.953  47.473  50.003  1.00  0.00     0.030 A 
BRANCH  10  13
HETATM   13  C   UNL     1      22.644  48.803  48.710  1.00  0.00    -0.023 A 
HETATM   14  C   UNL     1      21.518  48.332  48.022  1.00  0.00     0.031 A 
HETATM   15  C   UNL     1      20.549  49.235  47.616  1.00  0.00     0.117 A 
HETATM   16  N   UNL     1      20.619  50.564  47.840  1.00  0.00    -0.273 NA
HETATM   17  C   UNL     1      21.709  51.005  48.501  1.00  0.00     0.117 A 
HETATM   18  C   UNL     1      22.728  50.179  48.949  1.00  0.00     0.031 A 
ENDBRANCH  10  13
ENDBRANCH   4   7
BRANCH   1  19
HETATM   19  C   UNL     1      28.131  42.945  52.950  1.00  0.00     0.163 C 
BRANCH  19  20
HETATM   20  C   UNL     1      28.869  43.589  54.095  1.00  0.00    -0.038 A 
HETATM   21  C   UNL     1      30.088  43.070  54.552  1.00  0.00     0.009 A 
HETATM   22  C   UNL     1      30.797  43.716  55.564  1.00  0.00     0.003 A 
HETATM   23  C   UNL     1      30.311  44.903  56.116  1.00  0.00     0.037 A 
HETATM   24  C   UNL     1      29.113  45.448  55.656  1.00  0.00     0.068 A 
HETATM   25  C   UNL     1      28.393  44.781  54.659  1.00  0.00     0.045 A 
BRANCH  24  26
HETATM   26  O   UNL     1      28.542  46.610  56.098  1.00  0.00    -0.356 OA
HETATM   27  C   UNL     1      27.805  47.354  55.135  1.00  0.00     0.210 C 
ENDBRANCH  24  26
ENDBRANCH  19  20
ENDBRANCH   1  19
TORSDOF 5
ENDMDL
MODEL 5
REMARK VINA RESULT:      -8.0      2.764     10.694
REMARK  5 active torsions:
REMARK  status: ('A' for Active; 'I' for Inactive)
REMARK    1  A    between atoms: O_2  and  C_3 
REMARK    2  A    between atoms: C_7  and  C_8 
REMARK    3  A    between atoms: C_8  and  N_9 
REMARK       I    between atoms: N_9  and  C_10 
REMARK       I    between atoms: C_10  and  N_12 
REMARK    4  A    between atoms: N_12  and  C_13 
REMARK    5  A    between atoms: C_16  and  C_19 
ROOT
HETATM    1  N   UNL     1      26.925  44.223  51.994  1.00  0.00    -0.339 N 
HETATM    2  C   UNL     1      25.695  44.776  51.700  1.00  0.00     0.320 C 
HETATM    3  O   UNL     1      24.761  44.739  52.491  1.00  0.00    -0.247 OA
HETATM    4  N   UNL     1      25.702  45.375  50.460  1.00  0.00    -0.309 N 
HETATM    5  H   UNL     1      27.460  43.872  51.215  1.00  0.00     0.164 HD
HETATM    6  H   UNL     1      26.597  45.407  49.997  1.00  0.00     0.170 HD
ENDROOT
BRANCH   4   7
HETATM    7  C   UNL     1      24.642  46.064  49.835  1.00  0.00     0.036 A 
HETATM    8  C   UNL     1      23.657  45.445  49.067  1.00  0.00     0.030 A 
HETATM    9  C   UNL     1      22.619  46.195  48.499  1.00  0.00     0.014 A 
HETATM   10  C   UNL     1      22.541  47.583  48.675  1.00  0.00    -0.026 A 
HETATM   11  C   UNL     1      23.545  48.200  49.435  1.00  0.00     0.014 A 
HETATM   12  C   UNL     1      24.581  47.451  50.009  1.00  0.00     0.030 A 
BRANCH  10  13
HETATM   13  C   UNL     1      21.439  48.360  48.087  1.00  0.00    -0.023 A 
HETATM   14  C   UNL     1      20.323  47.724  47.528  1.00  0.00     0.031 A 
HETATM   15  C   UNL     1      19.310  48.494  46.981  1.00  0.00     0.117 A 
HETATM   16  N   UNL     1      19.327  49.843  46.947  1.00  0.00    -0.273 NA
HETATM   17  C   UNL     1      20.408  50.444  47.485  1.00  0.00     0.117 A 
HETATM   18  C   UNL     1      21.469  49.759  48.058  1.00  0.00     0.031 A 
ENDBRANCH  10  13
ENDBRANCH   4   7
BRANCH   1  19
HETATM   19  C   UNL     1      27.095  43.517  53.246  1.00  0.00     0.163 C 
BRANCH  19  20
HETATM   20  C   UNL     1      28.115  44.174  54.139  1.00  0.00    -0.038 A 
HETATM   21  C   UNL     1      27.919  45.474  54.625  1.00  0.00     0.009 A 
HETATM   22  C   UNL     1      28.836  46.045  55.508  1.00  0.00     0.003 A 
HETATM   23  C   UNL     1      29.948  45.317  55.936  1.00  0.00     0.037 A 
HETATM   24  C   UNL     1      30.145  44.013  55.482  1.00  0.00     0.068 A 
HETATM   25  C   UNL     1      29.237  43.455  54.577  1.00  0.00     0.045 A 
BRANCH  24  26
HETATM   26  O   UNL     1      31.178  43.190  55.840  1.00  0.00    -0.356 OA
HETATM   27  C   UNL     1      31.614  43.281  57.192  1.00  0.00     0.210 C 
ENDBRANCH  24  26
ENDBRANCH  19  20
ENDBRANCH   1  19
TORSDOF 5
ENDMDL
MODEL 6
REMARK VINA RESULT:      -8.0      1.298      2.223
REMARK  5 active torsions:
REMARK  status: ('A' for Active; 'I' for Inactive)
REMARK    1  A    between atoms: O_2  and  C_3 
REMARK    2  A    between atoms: C_7  and  C_8 
REMARK    3  A    between atoms: C_8  and  N_9 
REMARK       I    between atoms: N_9  and  C_10 
REMARK       I    between atoms: C_10  and  N_12 
REMARK    4  A    between atoms: N_12  and  C_13 
REMARK    5  A    between atoms: C_16  and  C_19 
ROOT
HETATM    1  N   UNL     1      23.795  47.085  50.105  1.00  0.00    -0.339 N 
HETATM    2  C   UNL     1      24.878  46.430  50.657  1.00  0.00     0.320 C 
HETATM    3  O   UNL     1      25.589  45.683  49.998  1.00  0.00    -0.247 OA
HETATM    4  N   UNL     1      25.038  46.766  51.982  1.00  0.00    -0.309 N 
HETATM    5  H   UNL     1      23.022  47.280  50.721  1.00  0.00     0.164 HD
HETATM    6  H   UNL     1      24.424  47.488  52.327  1.00  0.00     0.170 HD
ENDROOT
BRANCH   4   7
HETATM    7  C   UNL     1      26.046  46.321  52.863  1.00  0.00     0.036 A 
HETATM    8  C   UNL     1      26.592  45.038  52.837  1.00  0.00     0.030 A 
HETATM    9  C   UNL     1      27.610  44.678  53.729  1.00  0.00     0.014 A 
HETATM   10  C   UNL     1      28.105  45.585  54.676  1.00  0.00    -0.026 A 
HETATM   11  C   UNL     1      27.539  46.867  54.706  1.00  0.00     0.014 A 
HETATM   12  C   UNL     1      26.525  47.232  53.811  1.00  0.00     0.030 A 
BRANCH  10  13
HETATM   13  C   UNL     1      29.185  45.202  55.599  1.00  0.00    -0.023 A 
HETATM   14  C   UNL     1      29.420  45.924  56.776  1.00  0.00     0.031 A 
HETATM   15  C   UNL     1      30.451  45.531  57.615  1.00  0.00     0.117 A 
HETATM   16  N   UNL     1      31.261  44.481  57.367  1.00  0.00    -0.273 NA
HETATM   17  C   UNL     1      31.027  43.796  56.229  1.00  0.00     0.117 A 
HETATM   18  C   UNL     1      30.019  44.111  55.331  1.00  0.00     0.031 A 
ENDBRANCH  10  13
ENDBRANCH   4   7
BRANCH   1  19
HETATM   19  C   UNL     1      23.450  46.825  48.723  1.00  0.00     0.163 C 
BRANCH  19  20
HETATM   20  C   UNL     1      22.152  47.479  48.325  1.00  0.00    -0.038 A 
HETATM   21  C   UNL     1      21.362  46.950  47.296  1.00  0.00     0.009 A 
HETATM   22  C   UNL     1      20.128  47.522  46.985  1.00  0.00     0.003 A 
HETATM   23  C   UNL     1      19.656  48.614  47.715  1.00  0.00     0.037 A 
HETATM   24  C   UNL     1      20.417  49.138  48.759  1.00  0.00     0.068 A 
HETATM   25  C   UNL     1      21.665  48.577  49.049  1.00  0.00     0.045 A 
BRANCH  24  26
HETATM   26  O   UNL     1      20.059  50.188  49.560  1.00  0.00    -0.356 OA
HETATM   27  C   UNL     1      21.126  50.914  50.158  1.00  0.00     0.210 C 
ENDBRANCH  24  26
ENDBRANCH  19  20
ENDBRANCH   1  19
TORSDOF 5
ENDMDL
MODEL 7
REMARK VINA RESULT:      -7.9      3.326      4.141
REMARK  5 active torsions:
REMARK  status: ('A' for Active; 'I' for Inactive)
REMARK    1  A    between atoms: O_2  and  C_3 
REMARK    2  A    between atoms: C_7  and  C_8 
REMARK    3  A    between atoms: C_8  and  N_9 
REMARK       I    between atoms: N_9  and  C_10 
REMARK       I    between atoms: C_10  and  N_12 
REMARK    4  A    between atoms: N_12  and  C_13 
REMARK    5  A    between atoms: C_16  and  C_19 
ROOT
HETATM    1  N   UNL     1      25.727  43.429  49.142  1.00  0.00    -0.339 N 
HETATM    2  C   UNL     1      26.089  43.299  50.468  1.00  0.00     0.320 C 
HETATM    3  O   UNL     1      25.365  42.748  51.287  1.00  0.00    -0.247 OA
HETATM    4  N   UNL     1      27.340  43.825  50.696  1.00  0.00    -0.309 N 
HETATM    5  H   UNL     1      26.083  44.236  48.654  1.00  0.00     0.164 HD
HETATM    6  H   UNL     1      27.838  44.136  49.876  1.00  0.00     0.170 HD
ENDROOT
BRANCH   4   7
HETATM    7  C   UNL     1      28.052  43.849  51.913  1.00  0.00     0.036 A 
HETATM    8  C   UNL     1      29.172  43.061  52.175  1.00  0.00     0.030 A 
HETATM    9  C   UNL     1      29.843  43.159  53.402  1.00  0.00     0.014 A 
HETATM   10  C   UNL     1      29.408  44.040  54.402  1.00  0.00    -0.026 A 
HETATM   11  C   UNL     1      28.271  44.816  54.136  1.00  0.00     0.014 A 
HETATM   12  C   UNL     1      27.603  44.724  52.909  1.00  0.00     0.030 A 
BRANCH  10  13
HETATM   13  C   UNL     1      30.127  44.148  55.681  1.00  0.00    -0.023 A 
HETATM   14  C   UNL     1      29.895  45.219  56.553  1.00  0.00     0.031 A 
HETATM   15  C   UNL     1      30.597  45.283  57.746  1.00  0.00     0.117 A 
HETATM   16  N   UNL     1      31.510  44.366  58.130  1.00  0.00    -0.273 NA
HETATM   17  C   UNL     1      31.727  43.342  57.280  1.00  0.00     0.117 A 
HETATM   18  C   UNL     1      31.071  43.190  56.068  1.00  0.00     0.031 A 
ENDBRANCH  10  13
ENDBRANCH   4   7
BRANCH   1  19
HETATM   19  C   UNL     1      24.422  42.962  48.724  1.00  0.00     0.163 C 
BRANCH  19  20
HETATM   20  C   UNL     1      23.545  44.084  48.230  1.00  0.00    -0.038 A 
HETATM   21  C   UNL     1      23.258  45.188  49.043  1.00  0.00     0.009 A 
HETATM   22  C   UNL     1      22.504  46.253  48.550  1.00  0.00     0.003 A 
HETATM   23  C   UNL     1      22.048  46.241  47.231  1.00  0.00     0.037 A 
HETATM   24  C   UNL     1      22.345  45.162  46.400  1.00  0.00     0.068 A 
HETATM   25  C   UNL     1      23.079  44.084  46.907  1.00  0.00     0.045 A 
BRANCH  24  26
HETATM   26  O   UNL     1      21.975  45.038  45.088  1.00  0.00    -0.356 OA
HETATM   27  C   UNL     1      20.948  44.093  44.811  1.00  0.00     0.210 C 
ENDBRANCH  24  26
ENDBRANCH  19  20
ENDBRANCH   1  19
TORSDOF 5
ENDMDL
MODEL 8
REMARK VINA RESULT:      -7.9      5.722      9.392
REMARK  5 active torsions:
REMARK  status: ('A' for Active; 'I' for Inactive)
REMARK    1  A    between atoms: O_2  and  C_3 
REMARK    2  A    between atoms: C_7  and  C_8 
REMARK    3  A    between atoms: C_8  and  N_9 
REMARK       I    between atoms: N_9  and  C_10 
REMARK       I    between atoms: C_10  and  N_12 
REMARK    4  A    between atoms: N_12  and  C_13 
REMARK    5  A    between atoms: C_16  and  C_19 
ROOT
HETATM    1  N   UNL     1      16.908  51.266  48.711  1.00  0.00    -0.339 N 
HETATM    2  C   UNL     1      18.084  50.768  49.235  1.00  0.00     0.320 C 
HETATM    3  O   UNL     1      18.152  50.331  50.376  1.00  0.00    -0.247 OA
HETATM    4  N   UNL     1      19.099  50.809  48.306  1.00  0.00    -0.309 N 
HETATM    5  H   UNL     1      16.994  51.994  48.019  1.00  0.00     0.164 HD
HETATM    6  H   UNL     1      18.829  51.096  47.378  1.00  0.00     0.170 HD
ENDROOT
BRANCH   4   7
HETATM    7  C   UNL     1      20.427  50.363  48.467  1.00  0.00     0.036 A 
HETATM    8  C   UNL     1      20.800  49.020  48.488  1.00  0.00     0.030 A 
HETATM    9  C   UNL     1      22.146  48.654  48.627  1.00  0.00     0.014 A 
HETATM   10  C   UNL     1      23.154  49.620  48.756  1.00  0.00    -0.026 A 
HETATM   11  C   UNL     1      22.768  50.968  48.750  1.00  0.00     0.014 A 
HETATM   12  C   UNL     1      21.424  51.335  48.606  1.00  0.00     0.030 A 
BRANCH  10  13
HETATM   13  C   UNL     1      24.566  49.228  48.886  1.00  0.00    -0.023 A 
HETATM   14  C   UNL     1      24.936  48.092  49.617  1.00  0.00     0.031 A 
HETATM   15  C   UNL     1      26.278  47.761  49.717  1.00  0.00     0.117 A 
HETATM   16  N   UNL     1      27.271  48.475  49.149  1.00  0.00    -0.273 NA
HETATM   17  C   UNL     1      26.902  49.568  48.450  1.00  0.00     0.117 A 
HETATM   18  C   UNL     1      25.587  49.977  48.291  1.00  0.00     0.031 A 
ENDBRANCH  10  13
ENDBRANCH   4   7
BRANCH   1  19
HETATM   19  C   UNL     1      15.737  51.335  49.560  1.00  0.00     0.163 C 
BRANCH  19  20
HETATM   20  C   UNL     1      15.051  52.674  49.478  1.00  0.00    -0.038 A 
HETATM   21  C   UNL     1      14.873  53.321  48.248  1.00  0.00     0.009 A 
HETATM   22  C   UNL     1      14.174  54.526  48.176  1.00  0.00     0.003 A 
HETATM   23  C   UNL     1      13.622  55.088  49.329  1.00  0.00     0.037 A 
HETATM   24  C   UNL     1      13.767  54.446  50.558  1.00  0.00     0.068 A 
HETATM   25  C   UNL     1      14.492  53.252  50.628  1.00  0.00     0.045 A 
BRANCH  24  26
HETATM   26  O   UNL     1      13.260  54.880  51.751  1.00  0.00    -0.356 OA
HETATM   27  C   UNL     1      14.201  55.404  52.681  1.00  0.00     0.210 C 
ENDBRANCH  24  26
ENDBRANCH  19  20
ENDBRANCH   1  19
TORSDOF 5
ENDMDL
MODEL 9
REMARK VINA RESULT:      -7.8      3.973      5.313
REMARK  5 active torsions:
REMARK  status: ('A' for Active; 'I' for Inactive)
REMARK    1  A    between atoms: O_2  and  C_3 
REMARK    2  A    between atoms: C_7  and  C_8 
REMARK    3  A    between atoms: C_8  and  N_9 
REMARK       I    between atoms: N_9  and  C_10 
REMARK       I    between atoms: C_10  and  N_12 
REMARK    4  A    between atoms: N_12  and  C_13 
REMARK    5  A    between atoms: C_16  and  C_19 
ROOT
HETATM    1  N   UNL     1      24.532  44.694  50.270  1.00  0.00    -0.339 N 
HETATM    2  C   UNL     1      25.135  44.302  51.449  1.00  0.00     0.320 C 
HETATM    3  O   UNL     1      24.620  43.485  52.200  1.00  0.00    -0.247 OA
HETATM    4  N   UNL     1      26.356  44.918  51.610  1.00  0.00    -0.309 N 
HETATM    5  H   UNL     1      24.722  45.631  49.954  1.00  0.00     0.164 HD
HETATM    6  H   UNL     1      26.670  45.474  50.830  1.00  0.00     0.170 HD
ENDROOT
BRANCH   4   7
HETATM    7  C   UNL     1      27.268  44.746  52.671  1.00  0.00     0.036 A 
HETATM    8  C   UNL     1      28.275  43.781  52.684  1.00  0.00     0.030 A 
HETATM    9  C   UNL     1      29.161  43.688  53.765  1.00  0.00     0.014 A 
HETATM   10  C   UNL     1      29.062  44.551  54.866  1.00  0.00    -0.026 A 
HETATM   11  C   UNL     1      28.037  45.507  54.852  1.00  0.00     0.014 A 
HETATM   12  C   UNL     1      27.153  45.605  53.770  1.00  0.00     0.030 A 
BRANCH  10  13
HETATM   13  C   UNL     1      30.007  44.456  55.989  1.00  0.00    -0.023 A 
HETATM   14  C   UNL     1      30.957  43.428  56.050  1.00  0.00     0.031 A 
HETATM   15  C   UNL     1      31.825  43.374  57.128  1.00  0.00     0.117 A 
HETATM   16  N   UNL     1      31.815  44.261  58.145  1.00  0.00    -0.273 NA
HETATM   17  C   UNL     1      30.894  45.244  58.077  1.00  0.00     0.117 A 
HETATM   18  C   UNL     1      29.986  45.382  57.038  1.00  0.00     0.031 A 
ENDBRANCH  10  13
ENDBRANCH   4   7
BRANCH   1  19
HETATM   19  C   UNL     1      23.219  44.173  49.949  1.00  0.00     0.163 C 
BRANCH  19  20
HETATM   20  C   UNL     1      23.234  43.304  48.718  1.00  0.00    -0.038 A 
HETATM   21  C   UNL     1      22.669  43.746  47.514  1.00  0.00     0.009 A 
HETATM   22  C   UNL     1      22.753  42.962  46.364  1.00  0.00     0.003 A 
HETATM   23  C   UNL     1      23.423  41.738  46.393  1.00  0.00     0.037 A 
HETATM   24  C   UNL     1      24.014  41.295  47.576  1.00  0.00     0.068 A 
HETATM   25  C   UNL     1      23.904  42.072  48.733  1.00  0.00     0.045 A 
BRANCH  24  26
HETATM   26  O   UNL     1      24.713  40.129  47.731  1.00  0.00    -0.356 OA
HETATM   27  C   UNL     1      26.065  40.143  47.286  1.00  0.00     0.210 C 
ENDBRANCH  24  26
ENDBRANCH  19  20
ENDBRANCH   1  19
TORSDOF 5
ENDMDL
MODEL 10
REMARK VINA RESULT:      -7.7      3.844     11.499
REMARK  5 active torsions:
REMARK  status: ('A' for Active; 'I' for Inactive)
REMARK    1  A    between atoms: O_2  and  C_3 
REMARK    2  A    between atoms: C_7  and  C_8 
REMARK    3  A    between atoms: C_8  and  N_9 
REMARK       I    between atoms: N_9  and  C_10 
REMARK       I    between atoms: C_10  and  N_12 
REMARK    4  A    between atoms: N_12  and  C_13 
REMARK    5  A    between atoms: C_16  and  C_19 
ROOT
HETATM    1  N   UNL     1      23.759  47.564  49.463  1.00  0.00    -0.339 N 
HETATM    2  C   UNL     1      22.910  48.649  49.556  1.00  0.00     0.320 C 
HETATM    3  O   UNL     1      23.316  49.768  49.837  1.00  0.00    -0.247 OA
HETATM    4  N   UNL     1      21.614  48.291  49.259  1.00  0.00    -0.309 N 
HETATM    5  H   UNL     1      23.370  46.664  49.693  1.00  0.00     0.164 HD
HETATM    6  H   UNL     1      21.485  47.345  48.936  1.00  0.00     0.170 HD
ENDROOT
BRANCH   4   7
HETATM    7  C   UNL     1      20.481  49.130  49.222  1.00  0.00     0.036 A 
HETATM    8  C   UNL     1      19.558  49.238  50.262  1.00  0.00     0.030 A 
HETATM    9  C   UNL     1      18.469  50.114  50.162  1.00  0.00     0.014 A 
HETATM   10  C   UNL     1      18.268  50.900  49.018  1.00  0.00    -0.026 A 
HETATM   11  C   UNL     1      19.192  50.773  47.971  1.00  0.00     0.014 A 
HETATM   12  C   UNL     1      20.284  49.902  48.072  1.00  0.00     0.030 A 
BRANCH  10  13
HETATM   13  C   UNL     1      17.131  51.828  48.928  1.00  0.00    -0.023 A 
HETATM   14  C   UNL     1      16.828  52.705  49.978  1.00  0.00     0.031 A 
HETATM   15  C   UNL     1      15.745  53.560  49.853  1.00  0.00     0.117 A 
HETATM   16  N   UNL     1      14.945  53.604  48.767  1.00  0.00    -0.273 NA
HETATM   17  C   UNL     1      15.244  52.753  47.765  1.00  0.00     0.117 A 
HETATM   18  C   UNL     1      16.308  51.864  47.797  1.00  0.00     0.031 A 
ENDBRANCH  10  13
ENDBRANCH   4   7
BRANCH   1  19
HETATM   19  C   UNL     1      25.161  47.744  49.776  1.00  0.00     0.163 C 
BRANCH  19  20
HETATM   20  C   UNL     1      25.633  46.799  50.850  1.00  0.00    -0.038 A 
HETATM   21  C   UNL     1      26.377  45.655  50.531  1.00  0.00     0.009 A 
HETATM   22  C   UNL     1      26.868  44.826  51.540  1.00  0.00     0.003 A 
HETATM   23  C   UNL     1      26.644  45.142  52.881  1.00  0.00     0.037 A 
HETATM   24  C   UNL     1      25.927  46.290  53.218  1.00  0.00     0.068 A 
HETATM   25  C   UNL     1      25.414  47.103  52.203  1.00  0.00     0.045 A 
BRANCH  24  26
HETATM   26  O   UNL     1      25.658  46.718  54.489  1.00  0.00    -0.356 OA
HETATM   27  C   UNL     1      26.519  47.724  55.009  1.00  0.00     0.210 C 
ENDBRANCH  24  26
ENDBRANCH  19  20
ENDBRANCH   1  19
TORSDOF 5
ENDMDL
