MODEL 1
REMARK VINA RESULT:      -9.2      0.000      0.000
REMARK  6 active torsions:
REMARK  status: ('A' for Active; 'I' for Inactive)
REMARK    1  A    between atoms: O_2  and  C_3 
REMARK    2  A    between atoms: C_3  and  C_4 
REMARK    3  A    between atoms: C_4  and  N_5 
REMARK       I    between atoms: N_5  and  C_6 
REMARK    4  A    between atoms: C_6  and  C_7 
REMARK    5  A    between atoms: C_12  and  C_13 
REMARK    6  A    between atoms: C_20  and  C_21 
ROOT
HETATM    1  C   UNL     1      25.798  44.652  51.971  1.00  0.00     0.165 A 
HETATM    2  N   UNL     1      26.561  43.548  51.771  1.00  0.00    -0.163 NA
HETATM    3  N   UNL     1      27.458  43.583  52.772  1.00  0.00    -0.238 N 
HETATM    4  C   UNL     1      27.391  44.723  53.529  1.00  0.00     0.141 A 
HETATM    5  N   UNL     1      28.301  44.969  54.505  1.00  0.00    -0.365 N 
HETATM    6  C   UNL     1      29.565  44.236  54.498  1.00  0.00     0.118 C 
HETATM    7  C   UNL     1      29.278  42.756  54.217  1.00  0.00     0.066 C 
HETATM    8  C   UNL     1      28.518  42.594  52.885  1.00  0.00     0.221 C 
HETATM    9  C   UNL     1      26.297  45.406  53.063  1.00  0.00     0.092 A 
HETATM   10 BR   UNL     1      25.643  47.033  53.719  1.00  0.00    -0.044 Br
HETATM   11  H   UNL     1      28.356  45.907  54.903  1.00  0.00     0.162 HD
ENDROOT
BRANCH   1  12
HETATM   12  C   UNL     1      24.645  44.935  51.098  1.00  0.00     0.273 C 
HETATM   13  N   UNL     1      24.738  46.148  50.451  1.00  0.00    -0.353 N 
HETATM   14  H   UNL     1      25.636  46.623  50.531  1.00  0.00     0.162 HD
HETATM   15  O   UNL     1      23.695  44.172  50.952  1.00  0.00    -0.266 OA
BRANCH  13  16
HETATM   16  C   UNL     1      23.839  46.543  49.388  1.00  0.00     0.149 C 
BRANCH  16  17
HETATM   17  C   UNL     1      23.691  48.062  49.314  1.00  0.00     0.186 C 
BRANCH  17  18
HETATM   18  O   UNL     1      24.953  48.672  49.607  1.00  0.00    -0.394 OA
HETATM   19  C   UNL     1      25.333  49.594  48.593  1.00  0.00     0.201 C 
ENDBRANCH  17  18
ENDBRANCH  16  17
ENDBRANCH  13  16
ENDBRANCH   1  12
BRANCH   8  20
HETATM   20  C   UNL     1      27.989  41.181  52.771  1.00  0.00     0.409 C 
HETATM   21  F   UNL     1      27.274  40.807  53.856  1.00  0.00    -0.169 F 
HETATM   22  F   UNL     1      27.230  40.981  51.674  1.00  0.00    -0.169 F 
HETATM   23  F   UNL     1      29.030  40.311  52.673  1.00  0.00    -0.169 F 
ENDBRANCH   8  20
BRANCH   6  24
HETATM   24  C   UNL     1      30.291  44.411  55.817  1.00  0.00    -0.035 A 
HETATM   25  C   UNL     1      30.027  45.501  56.664  1.00  0.00     0.009 A 
HETATM   26  C   UNL     1      30.691  45.633  57.885  1.00  0.00     0.001 A 
HETATM   27  C   UNL     1      31.619  44.673  58.281  1.00  0.00     0.000 A 
HETATM   28  C   UNL     1      31.884  43.581  57.458  1.00  0.00     0.001 A 
HETATM   29  C   UNL     1      31.225  43.450  56.234  1.00  0.00     0.009 A 
ENDBRANCH   6  24
TORSDOF 6
ENDMDL
MODEL 2
REMARK VINA RESULT:      -9.0      1.722      2.771
REMARK  6 active torsions:
REMARK  status: ('A' for Active; 'I' for Inactive)
REMARK    1  A    between atoms: O_2  and  C_3 
REMARK    2  A    between atoms: C_3  and  C_4 
REMARK    3  A    between atoms: C_4  and  N_5 
REMARK       I    between atoms: N_5  and  C_6 
REMARK    4  A    between atoms: C_6  and  C_7 
REMARK    5  A    between atoms: C_12  and  C_13 
REMARK    6  A    between atoms: C_20  and  C_21 
ROOT
HETATM    1  C   UNL     1      26.188  44.421  51.174  1.00  0.00     0.165 A 
HETATM    2  N   UNL     1      27.014  43.352  51.039  1.00  0.00    -0.163 NA
HETATM    3  N   UNL     1      27.781  43.388  52.141  1.00  0.00    -0.238 N 
HETATM    4  C   UNL     1      27.578  44.501  52.915  1.00  0.00     0.141 A 
HETATM    5  N   UNL     1      28.353  44.749  54.001  1.00  0.00    -0.365 N 
HETATM    6  C   UNL     1      29.637  44.064  54.128  1.00  0.00     0.118 C 
HETATM    7  C   UNL     1      29.445  42.584  53.775  1.00  0.00     0.066 C 
HETATM    8  C   UNL     1      28.858  42.436  52.357  1.00  0.00     0.221 C 
HETATM    9  C   UNL     1      26.521  45.157  52.338  1.00  0.00     0.092 A 
HETATM   10 BR   UNL     1      25.728  46.738  52.953  1.00  0.00    -0.044 Br
HETATM   11  H   UNL     1      28.322  45.676  54.427  1.00  0.00     0.162 HD
ENDROOT
BRANCH   1  12
HETATM   12  C   UNL     1      25.138  44.688  50.175  1.00  0.00     0.273 C 
HETATM   13  N   UNL     1      23.994  43.947  50.377  1.00  0.00    -0.353 N 
HETATM   14  H   UNL     1      23.953  43.430  51.255  1.00  0.00     0.162 HD
HETATM   15  O   UNL     1      25.258  45.492  49.255  1.00  0.00    -0.266 OA
BRANCH  13  16
HETATM   16  C   UNL     1      22.761  44.192  49.660  1.00  0.00     0.149 C 
BRANCH  16  17
HETATM   17  C   UNL     1      22.666  43.336  48.399  1.00  0.00     0.186 C 
BRANCH  17  18
HETATM   18  O   UNL     1      22.471  41.967  48.773  1.00  0.00    -0.394 OA
HETATM   19  C   UNL     1      23.433  41.118  48.159  1.00  0.00     0.201 C 
ENDBRANCH  17  18
ENDBRANCH  16  17
ENDBRANCH  13  16
ENDBRANCH   1  12
BRANCH   8  20
HETATM   20  C   UNL     1      28.404  41.008  52.142  1.00  0.00     0.409 C 
HETATM   21  F   UNL     1      27.075  40.853  52.335  1.00  0.00    -0.169 F 
HETATM   22  F   UNL     1      28.714  40.528  50.920  1.00  0.00    -0.169 F 
HETATM   23  F   UNL     1      29.025  40.193  53.036  1.00  0.00    -0.169 F 
ENDBRANCH   8  20
BRANCH   6  24
HETATM   24  C   UNL     1      30.191  44.224  55.529  1.00  0.00    -0.035 A 
HETATM   25  C   UNL     1      31.104  43.303  56.070  1.00  0.00     0.009 A 
HETATM   26  C   UNL     1      31.621  43.480  57.355  1.00  0.00     0.001 A 
HETATM   27  C   UNL     1      31.241  44.585  58.113  1.00  0.00     0.000 A 
HETATM   28  C   UNL     1      30.346  45.514  57.587  1.00  0.00     0.001 A 
HETATM   29  C   UNL     1      29.825  45.336  56.304  1.00  0.00     0.009 A 
ENDBRANCH   6  24
TORSDOF 6
ENDMDL
MODEL 3
REMARK VINA RESULT:      -8.8      0.795      1.332
REMARK  6 active torsions:
REMARK  status: ('A' for Active; 'I' for Inactive)
REMARK    1  A    between atoms: O_2  and  C_3 
REMARK    2  A    between atoms: C_3  and  C_4 
REMARK    3  A    between atoms: C_4  and  N_5 
REMARK       I    between atoms: N_5  and  C_6 
REMARK    4  A    between atoms: C_6  and  C_7 
REMARK    5  A    between atoms: C_12  and  C_13 
REMARK    6  A    between atoms: C_20  and  C_21 
ROOT
HETATM    1  C   UNL     1      25.988  44.729  51.555  1.00  0.00     0.165 A 
HETATM    2  N   UNL     1      26.826  43.700  51.268  1.00  0.00    -0.163 NA
HETATM    3  N   UNL     1      27.667  43.659  52.316  1.00  0.00    -0.238 N 
HETATM    4  C   UNL     1      27.493  44.692  53.200  1.00  0.00     0.141 A 
HETATM    5  N   UNL     1      28.335  44.864  54.250  1.00  0.00    -0.365 N 
HETATM    6  C   UNL     1      29.639  44.206  54.227  1.00  0.00     0.118 C 
HETATM    7  C   UNL     1      29.457  42.759  53.755  1.00  0.00     0.066 C 
HETATM    8  C   UNL     1      28.777  42.722  52.371  1.00  0.00     0.221 C 
HETATM    9  C   UNL     1      26.385  45.367  52.757  1.00  0.00     0.092 A 
HETATM   10 BR   UNL     1      25.601  46.863  53.566  1.00  0.00    -0.044 Br
HETATM   11  H   UNL     1      28.313  45.747  54.760  1.00  0.00     0.162 HD
ENDROOT
BRANCH   1  12
HETATM   12  C   UNL     1      24.866  45.055  50.657  1.00  0.00     0.273 C 
HETATM   13  N   UNL     1      24.908  46.348  50.183  1.00  0.00    -0.353 N 
HETATM   14  H   UNL     1      25.766  46.862  50.380  1.00  0.00     0.162 HD
HETATM   15  O   UNL     1      23.981  44.262  50.353  1.00  0.00    -0.266 OA
BRANCH  13  16
HETATM   16  C   UNL     1      24.042  46.827  49.127  1.00  0.00     0.149 C 
BRANCH  16  17
HETATM   17  C   UNL     1      23.862  48.342  49.194  1.00  0.00     0.186 C 
BRANCH  17  18
HETATM   18  O   UNL     1      23.386  48.817  47.929  1.00  0.00    -0.394 OA
HETATM   19  C   UNL     1      23.401  50.237  47.867  1.00  0.00     0.201 C 
ENDBRANCH  17  18
ENDBRANCH  16  17
ENDBRANCH  13  16
ENDBRANCH   1  12
BRANCH   8  20
HETATM   20  C   UNL     1      28.340  41.307  52.057  1.00  0.00     0.409 C 
HETATM   21  F   UNL     1      29.131  40.380  52.641  1.00  0.00    -0.169 F 
HETATM   22  F   UNL     1      27.061  41.054  52.405  1.00  0.00    -0.169 F 
HETATM   23  F   UNL     1      28.415  41.094  50.716  1.00  0.00    -0.169 F 
ENDBRANCH   8  20
BRANCH   6  24
HETATM   24  C   UNL     1      30.286  44.255  55.598  1.00  0.00    -0.035 A 
HETATM   25  C   UNL     1      31.172  43.254  56.031  1.00  0.00     0.009 A 
HETATM   26  C   UNL     1      31.774  43.329  57.288  1.00  0.00     0.001 A 
HETATM   27  C   UNL     1      31.509  44.411  58.125  1.00  0.00     0.000 A 
HETATM   28  C   UNL     1      30.641  45.417  57.707  1.00  0.00     0.001 A 
HETATM   29  C   UNL     1      30.034  45.341  56.451  1.00  0.00     0.009 A 
ENDBRANCH   6  24
TORSDOF 6
ENDMDL
MODEL 4
REMARK VINA RESULT:      -8.1      3.547      4.608
REMARK  6 active torsions:
REMARK  status: ('A' for Active; 'I' for Inactive)
REMARK    1  A    between atoms: O_2  and  C_3 
REMARK    2  A    between atoms: C_3  and  C_4 
REMARK    3  A    between atoms: C_4  and  N_5 
REMARK       I    between atoms: N_5  and  C_6 
REMARK    4  A    between atoms: C_6  and  C_7 
REMARK    5  A    between atoms: C_12  and  C_13 
REMARK    6  A    between atoms: C_20  and  C_21 
ROOT
HETATM    1  C   UNL     1      25.877  42.305  49.882  1.00  0.00     0.165 A 
HETATM    2  N   UNL     1      25.366  43.461  50.378  1.00  0.00    -0.163 NA
HETATM    3  N   UNL     1      26.190  43.777  51.392  1.00  0.00    -0.238 N 
HETATM    4  C   UNL     1      27.128  42.814  51.656  1.00  0.00     0.141 A 
HETATM    5  N   UNL     1      27.962  42.923  52.721  1.00  0.00    -0.365 N 
HETATM    6  C   UNL     1      27.615  43.843  53.802  1.00  0.00     0.118 C 
HETATM    7  C   UNL     1      27.143  45.168  53.192  1.00  0.00     0.066 C 
HETATM    8  C   UNL     1      25.952  44.933  52.240  1.00  0.00     0.221 C 
HETATM    9  C   UNL     1      26.979  41.878  50.665  1.00  0.00     0.092 A 
HETATM   10 BR   UNL     1      28.002  40.325  50.442  1.00  0.00    -0.044 Br
HETATM   11  H   UNL     1      28.496  42.104  53.015  1.00  0.00     0.162 HD
ENDROOT
BRANCH   1  12
HETATM   12  C   UNL     1      25.275  41.665  48.699  1.00  0.00     0.273 C 
HETATM   13  N   UNL     1      23.925  41.429  48.838  1.00  0.00    -0.353 N 
HETATM   14  H   UNL     1      23.484  41.851  49.655  1.00  0.00     0.162 HD
HETATM   15  O   UNL     1      25.903  41.372  47.687  1.00  0.00    -0.266 OA
BRANCH  13  16
HETATM   16  C   UNL     1      23.082  41.011  47.737  1.00  0.00     0.149 C 
BRANCH  16  17
HETATM   17  C   UNL     1      22.328  42.192  47.130  1.00  0.00     0.186 C 
BRANCH  17  18
HETATM   18  O   UNL     1      21.953  43.099  48.172  1.00  0.00    -0.394 OA
HETATM   19  C   UNL     1      22.330  44.434  47.861  1.00  0.00     0.201 C 
ENDBRANCH  17  18
ENDBRANCH  16  17
ENDBRANCH  13  16
ENDBRANCH   1  12
BRANCH   8  20
HETATM   20  C   UNL     1      25.694  46.186  51.432  1.00  0.00     0.409 C 
HETATM   21  F   UNL     1      26.509  46.286  50.358  1.00  0.00    -0.169 F 
HETATM   22  F   UNL     1      24.418  46.294  51.007  1.00  0.00    -0.169 F 
HETATM   23  F   UNL     1      25.929  47.282  52.202  1.00  0.00    -0.169 F 
ENDBRANCH   8  20
BRANCH   6  24
HETATM   24  C   UNL     1      28.800  44.056  54.722  1.00  0.00    -0.035 A 
HETATM   25  C   UNL     1      29.820  43.097  54.846  1.00  0.00     0.009 A 
HETATM   26  C   UNL     1      30.915  43.322  55.682  1.00  0.00     0.001 A 
HETATM   27  C   UNL     1      31.012  44.513  56.397  1.00  0.00     0.000 A 
HETATM   28  C   UNL     1      30.016  45.479  56.278  1.00  0.00     0.001 A 
HETATM   29  C   UNL     1      28.918  45.253  55.445  1.00  0.00     0.009 A 
ENDBRANCH   6  24
TORSDOF 6
ENDMDL
MODEL 5
REMARK VINA RESULT:      -8.1      3.969      5.072
REMARK  6 active torsions:
REMARK  status: ('A' for Active; 'I' for Inactive)
REMARK    1  A    between atoms: O_2  and  C_3 
REMARK    2  A    between atoms: C_3  and  C_4 
REMARK    3  A    between atoms: C_4  and  N_5 
REMARK       I    between atoms: N_5  and  C_6 
REMARK    4  A    between atoms: C_6  and  C_7 
REMARK    5  A    between atoms: C_12  and  C_13 
REMARK    6  A    between atoms: C_20  and  C_21 
ROOT
HETATM    1  C   UNL     1      24.729  42.845  49.956  1.00  0.00     0.165 A 
HETATM    2  N   UNL     1      24.564  44.130  50.363  1.00  0.00    -0.163 NA
HETATM    3  N   UNL     1      25.523  44.310  51.286  1.00  0.00    -0.238 N 
HETATM    4  C   UNL     1      26.215  43.166  51.588  1.00  0.00     0.141 A 
HETATM    5  N   UNL     1      27.138  43.148  52.583  1.00  0.00    -0.365 N 
HETATM    6  C   UNL     1      27.122  44.212  53.583  1.00  0.00     0.118 C 
HETATM    7  C   UNL     1      26.940  45.558  52.873  1.00  0.00     0.066 C 
HETATM    8  C   UNL     1      25.652  45.554  52.025  1.00  0.00     0.221 C 
HETATM    9  C   UNL     1      25.755  42.219  50.709  1.00  0.00     0.092 A 
HETATM   10 BR   UNL     1      26.341  40.445  50.581  1.00  0.00    -0.044 Br
HETATM   11  H   UNL     1      27.478  42.248  52.924  1.00  0.00     0.162 HD
ENDROOT
BRANCH   1  12
HETATM   12  C   UNL     1      23.889  42.283  48.885  1.00  0.00     0.273 C 
HETATM   13  N   UNL     1      24.519  42.251  47.660  1.00  0.00    -0.353 N 
HETATM   14  H   UNL     1      25.514  42.471  47.670  1.00  0.00     0.162 HD
HETATM   15  O   UNL     1      22.744  41.876  49.057  1.00  0.00    -0.266 OA
BRANCH  13  16
HETATM   16  C   UNL     1      23.977  41.552  46.515  1.00  0.00     0.149 C 
BRANCH  16  17
HETATM   17  C   UNL     1      25.013  40.624  45.883  1.00  0.00     0.186 C 
BRANCH  17  18
HETATM   18  O   UNL     1      26.168  40.564  46.728  1.00  0.00    -0.394 OA
HETATM   19  C   UNL     1      27.367  40.743  45.985  1.00  0.00     0.201 C 
ENDBRANCH  17  18
ENDBRANCH  16  17
ENDBRANCH  13  16
ENDBRANCH   1  12
BRANCH   8  20
HETATM   20  C   UNL     1      25.642  46.760  51.111  1.00  0.00     0.409 C 
HETATM   21  F   UNL     1      26.196  46.501  49.906  1.00  0.00    -0.169 F 
HETATM   22  F   UNL     1      24.408  47.268  50.910  1.00  0.00    -0.169 F 
HETATM   23  F   UNL     1      26.374  47.762  51.669  1.00  0.00    -0.169 F 
ENDBRANCH   8  20
BRANCH   6  24
HETATM   24  C   UNL     1      28.399  44.194  54.402  1.00  0.00    -0.035 A 
HETATM   25  C   UNL     1      28.746  45.260  55.249  1.00  0.00     0.009 A 
HETATM   26  C   UNL     1      29.914  45.215  56.011  1.00  0.00     0.001 A 
HETATM   27  C   UNL     1      30.746  44.100  55.946  1.00  0.00     0.000 A 
HETATM   28  C   UNL     1      30.411  43.030  55.120  1.00  0.00     0.001 A 
HETATM   29  C   UNL     1      29.245  43.075  54.353  1.00  0.00     0.009 A 
ENDBRANCH   6  24
TORSDOF 6
ENDMDL
MODEL 6
REMARK VINA RESULT:      -8.0      4.009      5.319
REMARK  6 active torsions:
REMARK  status: ('A' for Active; 'I' for Inactive)
REMARK    1  A    between atoms: O_2  and  C_3 
REMARK    2  A    between atoms: C_3  and  C_4 
REMARK    3  A    between atoms: C_4  and  N_5 
REMARK       I    between atoms: N_5  and  C_6 
REMARK    4  A    between atoms: C_6  and  C_7 
REMARK    5  A    between atoms: C_12  and  C_13 
REMARK    6  A    between atoms: C_20  and  C_21 
ROOT
HETATM    1  C   UNL     1      25.885  42.293  49.909  1.00  0.00     0.165 A 
HETATM    2  N   UNL     1      25.359  43.440  50.410  1.00  0.00    -0.163 NA
HETATM    3  N   UNL     1      26.191  43.774  51.411  1.00  0.00    -0.238 N 
HETATM    4  C   UNL     1      27.151  42.829  51.664  1.00  0.00     0.141 A 
HETATM    5  N   UNL     1      27.998  42.956  52.718  1.00  0.00    -0.365 N 
HETATM    6  C   UNL     1      27.649  43.872  53.801  1.00  0.00     0.118 C 
HETATM    7  C   UNL     1      27.143  45.186  53.196  1.00  0.00     0.066 C 
HETATM    8  C   UNL     1      25.944  44.927  52.261  1.00  0.00     0.221 C 
HETATM    9  C   UNL     1      27.006  41.888  50.678  1.00  0.00     0.092 A 
HETATM   10 BR   UNL     1      28.055  40.355  50.442  1.00  0.00    -0.044 Br
HETATM   11  H   UNL     1      28.552  42.149  53.005  1.00  0.00     0.162 HD
ENDROOT
BRANCH   1  12
HETATM   12  C   UNL     1      25.278  41.639  48.736  1.00  0.00     0.273 C 
HETATM   13  N   UNL     1      26.114  41.603  47.642  1.00  0.00    -0.353 N 
HETATM   14  H   UNL     1      27.078  41.887  47.813  1.00  0.00     0.162 HD
HETATM   15  O   UNL     1      24.146  41.166  48.727  1.00  0.00    -0.266 OA
BRANCH  13  16
HETATM   16  C   UNL     1      25.822  40.829  46.454  1.00  0.00     0.149 C 
BRANCH  16  17
HETATM   17  C   UNL     1      26.364  39.405  46.567  1.00  0.00     0.186 C 
BRANCH  17  18
HETATM   18  O   UNL     1      27.790  39.452  46.688  1.00  0.00    -0.394 OA
HETATM   19  C   UNL     1      28.305  38.252  47.250  1.00  0.00     0.201 C 
ENDBRANCH  17  18
ENDBRANCH  16  17
ENDBRANCH  13  16
ENDBRANCH   1  12
BRANCH   8  20
HETATM   20  C   UNL     1      25.650  46.173  51.454  1.00  0.00     0.409 C 
HETATM   21  F   UNL     1      24.371  46.220  51.021  1.00  0.00    -0.169 F 
HETATM   22  F   UNL     1      25.915  47.315  52.121  1.00  0.00    -0.169 F 
HETATM   23  F   UNL     1      26.437  46.193  50.345  1.00  0.00    -0.169 F 
ENDBRANCH   8  20
BRANCH   6  24
HETATM   24  C   UNL     1      28.843  44.110  54.704  1.00  0.00    -0.035 A 
HETATM   25  C   UNL     1      28.980  45.296  55.446  1.00  0.00     0.009 A 
HETATM   26  C   UNL     1      30.076  45.487  56.289  1.00  0.00     0.001 A 
HETATM   27  C   UNL     1      31.044  44.492  56.411  1.00  0.00     0.000 A 
HETATM   28  C   UNL     1      30.917  43.307  55.691  1.00  0.00     0.001 A 
HETATM   29  C   UNL     1      29.824  43.116  54.844  1.00  0.00     0.009 A 
ENDBRANCH   6  24
TORSDOF 6
ENDMDL
MODEL 7
REMARK VINA RESULT:      -7.6      3.229      7.556
REMARK  6 active torsions:
REMARK  status: ('A' for Active; 'I' for Inactive)
REMARK    1  A    between atoms: O_2  and  C_3 
REMARK    2  A    between atoms: C_3  and  C_4 
REMARK    3  A    between atoms: C_4  and  N_5 
REMARK       I    between atoms: N_5  and  C_6 
REMARK    4  A    between atoms: C_6  and  C_7 
REMARK    5  A    between atoms: C_12  and  C_13 
REMARK    6  A    between atoms: C_20  and  C_21 
ROOT
HETATM    1  C   UNL     1      27.716  44.905  54.334  1.00  0.00     0.165 A 
HETATM    2  N   UNL     1      27.953  43.578  54.176  1.00  0.00    -0.163 NA
HETATM    3  N   UNL     1      27.296  43.259  53.048  1.00  0.00    -0.238 N 
HETATM    4  C   UNL     1      26.541  44.285  52.543  1.00  0.00     0.141 A 
HETATM    5  N   UNL     1      25.726  44.095  51.476  1.00  0.00    -0.365 N 
HETATM    6  C   UNL     1      25.347  42.733  51.106  1.00  0.00     0.118 C 
HETATM    7  C   UNL     1      26.594  41.842  51.154  1.00  0.00     0.066 C 
HETATM    8  C   UNL     1      27.243  41.893  52.552  1.00  0.00     0.221 C 
HETATM    9  C   UNL     1      26.834  45.371  53.327  1.00  0.00     0.092 A 
HETATM   10 BR   UNL     1      26.152  47.103  53.123  1.00  0.00    -0.044 Br
HETATM   11  H   UNL     1      25.026  44.805  51.257  1.00  0.00     0.162 HD
ENDROOT
BRANCH   1  12
HETATM   12  C   UNL     1      28.331  45.650  55.447  1.00  0.00     0.273 C 
HETATM   13  N   UNL     1      29.504  45.084  55.896  1.00  0.00    -0.353 N 
HETATM   14  H   UNL     1      29.877  44.327  55.324  1.00  0.00     0.162 HD
HETATM   15  O   UNL     1      27.857  46.674  55.929  1.00  0.00    -0.266 OA
BRANCH  13  16
HETATM   16  C   UNL     1      30.391  45.747  56.828  1.00  0.00     0.149 C 
BRANCH  16  17
HETATM   17  C   UNL     1      30.534  44.956  58.126  1.00  0.00     0.186 C 
BRANCH  17  18
HETATM   18  O   UNL     1      31.848  44.392  58.193  1.00  0.00    -0.394 OA
HETATM   19  C   UNL     1      31.984  43.283  57.312  1.00  0.00     0.201 C 
ENDBRANCH  17  18
ENDBRANCH  16  17
ENDBRANCH  13  16
ENDBRANCH   1  12
BRANCH   8  20
HETATM   20  C   UNL     1      28.615  41.256  52.499  1.00  0.00     0.409 C 
HETATM   21  F   UNL     1      28.737  40.376  51.480  1.00  0.00    -0.169 F 
HETATM   22  F   UNL     1      29.617  42.154  52.407  1.00  0.00    -0.169 F 
HETATM   23  F   UNL     1      28.838  40.558  53.645  1.00  0.00    -0.169 F 
ENDBRANCH   8  20
BRANCH   6  24
HETATM   24  C   UNL     1      24.712  42.710  49.729  1.00  0.00    -0.035 A 
HETATM   25  C   UNL     1      24.174  43.871  49.147  1.00  0.00     0.009 A 
HETATM   26  C   UNL     1      23.613  43.834  47.869  1.00  0.00     0.001 A 
HETATM   27  C   UNL     1      23.593  42.641  47.151  1.00  0.00     0.000 A 
HETATM   28  C   UNL     1      24.132  41.484  47.709  1.00  0.00     0.001 A 
HETATM   29  C   UNL     1      24.689  41.518  48.990  1.00  0.00     0.009 A 
ENDBRANCH   6  24
TORSDOF 6
ENDMDL
MODEL 8
REMARK VINA RESULT:      -7.5     13.641     14.246
REMARK  6 active torsions:
REMARK  status: ('A' for Active; 'I' for Inactive)
REMARK    1  A    between atoms: O_2  and  C_3 
REMARK    2  A    between atoms: C_3  and  C_4 
REMARK    3  A    between atoms: C_4  and  N_5 
REMARK       I    between atoms: N_5  and  C_6 
REMARK    4  A    between atoms: C_6  and  C_7 
REMARK    5  A    between atoms: C_12  and  C_13 
REMARK    6  A    between atoms: C_20  and  C_21 
ROOT
HETATM    1  C   UNL     1      27.358  48.633  40.357  1.00  0.00     0.165 A 
HETATM    2  N   UNL     1      27.307  49.906  40.826  1.00  0.00    -0.163 NA
HETATM    3  N   UNL     1      28.588  50.207  41.100  1.00  0.00    -0.238 N 
HETATM    4  C   UNL     1      29.444  49.146  40.954  1.00  0.00     0.141 A 
HETATM    5  N   UNL     1      30.751  49.249  41.303  1.00  0.00    -0.365 N 
HETATM    6  C   UNL     1      31.166  50.335  42.188  1.00  0.00     0.118 C 
HETATM    7  C   UNL     1      30.500  51.635  41.723  1.00  0.00     0.066 C 
HETATM    8  C   UNL     1      28.966  51.479  41.693  1.00  0.00     0.221 C 
HETATM    9  C   UNL     1      28.683  48.134  40.429  1.00  0.00     0.092 A 
HETATM   10 BR   UNL     1      29.283  46.424  39.958  1.00  0.00    -0.044 Br
HETATM   11  H   UNL     1      31.308  48.398  41.385  1.00  0.00     0.162 HD
ENDROOT
BRANCH   1  12
HETATM   12  C   UNL     1      26.136  47.959  39.883  1.00  0.00     0.273 C 
HETATM   13  N   UNL     1      25.164  47.852  40.853  1.00  0.00    -0.353 N 
HETATM   14  H   UNL     1      25.339  48.370  41.713  1.00  0.00     0.162 HD
HETATM   15  O   UNL     1      25.988  47.538  38.740  1.00  0.00    -0.266 OA
BRANCH  13  16
HETATM   16  C   UNL     1      23.811  47.425  40.566  1.00  0.00     0.149 C 
BRANCH  16  17
HETATM   17  C   UNL     1      22.923  48.604  40.172  1.00  0.00     0.186 C 
BRANCH  17  18
HETATM   18  O   UNL     1      22.856  48.686  38.744  1.00  0.00    -0.394 OA
HETATM   19  C   UNL     1      23.352  49.931  38.269  1.00  0.00     0.201 C 
ENDBRANCH  17  18
ENDBRANCH  16  17
ENDBRANCH  13  16
ENDBRANCH   1  12
BRANCH   8  20
HETATM   20  C   UNL     1      28.351  52.651  40.960  1.00  0.00     0.409 C 
HETATM   21  F   UNL     1      29.200  53.697  40.850  1.00  0.00    -0.169 F 
HETATM   22  F   UNL     1      27.906  52.335  39.726  1.00  0.00    -0.169 F 
HETATM   23  F   UNL     1      27.267  53.101  41.648  1.00  0.00    -0.169 F 
ENDBRANCH   8  20
BRANCH   6  24
HETATM   24  C   UNL     1      32.676  50.467  42.199  1.00  0.00    -0.035 A 
HETATM   25  C   UNL     1      33.488  49.716  41.333  1.00  0.00     0.009 A 
HETATM   26  C   UNL     1      34.876  49.868  41.343  1.00  0.00     0.001 A 
HETATM   27  C   UNL     1      35.470  50.781  42.211  1.00  0.00     0.000 A 
HETATM   28  C   UNL     1      34.679  51.541  43.068  1.00  0.00     0.001 A 
HETATM   29  C   UNL     1      33.291  51.387  43.063  1.00  0.00     0.009 A 
ENDBRANCH   6  24
TORSDOF 6
ENDMDL
MODEL 9
REMARK VINA RESULT:      -7.5      3.736      7.273
REMARK  6 active torsions:
REMARK  status: ('A' for Active; 'I' for Inactive)
REMARK    1  A    between atoms: O_2  and  C_3 
REMARK    2  A    between atoms: C_3  and  C_4 
REMARK    3  A    between atoms: C_4  and  N_5 
REMARK       I    between atoms: N_5  and  C_6 
REMARK    4  A    between atoms: C_6  and  C_7 
REMARK    5  A    between atoms: C_12  and  C_13 
REMARK    6  A    between atoms: C_20  and  C_21 
ROOT
HETATM    1  C   UNL     1      26.779  44.490  53.030  1.00  0.00     0.165 A 
HETATM    2  N   UNL     1      27.179  43.214  53.265  1.00  0.00    -0.163 NA
HETATM    3  N   UNL     1      27.215  42.650  52.046  1.00  0.00    -0.238 N 
HETATM    4  C   UNL     1      26.734  43.461  51.052  1.00  0.00     0.141 A 
HETATM    5  N   UNL     1      26.592  43.003  49.782  1.00  0.00    -0.365 N 
HETATM    6  C   UNL     1      26.574  41.562  49.546  1.00  0.00     0.118 C 
HETATM    7  C   UNL     1      27.697  40.912  50.364  1.00  0.00     0.066 C 
HETATM    8  C   UNL     1      27.540  41.245  51.861  1.00  0.00     0.221 C 
HETATM    9  C   UNL     1      26.492  44.669  51.653  1.00  0.00     0.092 A 
HETATM   10 BR   UNL     1      25.859  46.219  50.814  1.00  0.00    -0.044 Br
HETATM   11  H   UNL     1      26.041  43.550  49.120  1.00  0.00     0.162 HD
ENDROOT
BRANCH   1  12
HETATM   12  C   UNL     1      26.677  45.460  54.134  1.00  0.00     0.273 C 
HETATM   13  N   UNL     1      27.872  45.666  54.788  1.00  0.00    -0.353 N 
HETATM   14  H   UNL     1      28.693  45.252  54.348  1.00  0.00     0.162 HD
HETATM   15  O   UNL     1      25.639  46.036  54.444  1.00  0.00    -0.266 OA
BRANCH  13  16
HETATM   16  C   UNL     1      28.066  46.724  55.757  1.00  0.00     0.149 C 
BRANCH  16  17
HETATM   17  C   UNL     1      28.687  46.193  57.048  1.00  0.00     0.186 C 
BRANCH  17  18
HETATM   18  O   UNL     1      29.826  45.387  56.727  1.00  0.00    -0.394 OA
HETATM   19  C   UNL     1      30.650  45.172  57.865  1.00  0.00     0.201 C 
ENDBRANCH  17  18
ENDBRANCH  16  17
ENDBRANCH  13  16
ENDBRANCH   1  12
BRANCH   8  20
HETATM   20  C   UNL     1      28.799  40.853  52.603  1.00  0.00     0.409 C 
HETATM   21  F   UNL     1      29.394  39.761  52.072  1.00  0.00    -0.169 F 
HETATM   22  F   UNL     1      29.712  41.844  52.668  1.00  0.00    -0.169 F 
HETATM   23  F   UNL     1      28.491  40.540  53.891  1.00  0.00    -0.169 F 
ENDBRANCH   8  20
BRANCH   6  24
HETATM   24  C   UNL     1      26.730  41.261  48.069  1.00  0.00    -0.035 A 
HETATM   25  C   UNL     1      27.996  41.143  47.470  1.00  0.00     0.009 A 
HETATM   26  C   UNL     1      28.118  40.843  46.112  1.00  0.00     0.001 A 
HETATM   27  C   UNL     1      26.978  40.647  45.336  1.00  0.00     0.000 A 
HETATM   28  C   UNL     1      25.716  40.749  45.916  1.00  0.00     0.001 A 
HETATM   29  C   UNL     1      25.592  41.054  47.273  1.00  0.00     0.009 A 
ENDBRANCH   6  24
TORSDOF 6
ENDMDL
MODEL 10
REMARK VINA RESULT:      -7.5      6.766     11.648
REMARK  6 active torsions:
REMARK  status: ('A' for Active; 'I' for Inactive)
REMARK    1  A    between atoms: O_2  and  C_3 
REMARK    2  A    between atoms: C_3  and  C_4 
REMARK    3  A    between atoms: C_4  and  N_5 
REMARK       I    between atoms: N_5  and  C_6 
REMARK    4  A    between atoms: C_6  and  C_7 
REMARK    5  A    between atoms: C_12  and  C_13 
REMARK    6  A    between atoms: C_20  and  C_21 
ROOT
HETATM    1  C   UNL     1      21.728  46.521  47.484  1.00  0.00     0.165 A 
HETATM    2  N   UNL     1      22.368  47.712  47.358  1.00  0.00    -0.163 NA
HETATM    3  N   UNL     1      21.443  48.621  47.709  1.00  0.00    -0.238 N 
HETATM    4  C   UNL     1      20.201  48.083  47.930  1.00  0.00     0.141 A 
HETATM    5  N   UNL     1      19.129  48.877  48.179  1.00  0.00    -0.365 N 
HETATM    6  C   UNL     1      19.199  50.294  47.829  1.00  0.00     0.118 C 
HETATM    7  C   UNL     1      20.555  50.849  48.283  1.00  0.00     0.066 C 
HETATM    8  C   UNL     1      21.709  50.048  47.648  1.00  0.00     0.221 C 
HETATM    9  C   UNL     1      20.371  46.726  47.839  1.00  0.00     0.092 A 
HETATM   10 BR   UNL     1      19.049  45.423  48.086  1.00  0.00    -0.044 Br
HETATM   11  H   UNL     1      18.194  48.472  48.128  1.00  0.00     0.162 HD
ENDROOT
BRANCH   1  12
HETATM   12  C   UNL     1      22.444  45.255  47.243  1.00  0.00     0.273 C 
HETATM   13  N   UNL     1      23.252  44.880  48.294  1.00  0.00    -0.353 N 
HETATM   14  H   UNL     1      23.145  45.424  49.149  1.00  0.00     0.162 HD
HETATM   15  O   UNL     1      22.335  44.594  46.215  1.00  0.00    -0.266 OA
BRANCH  13  16
HETATM   16  C   UNL     1      23.880  43.578  48.376  1.00  0.00     0.149 C 
BRANCH  16  17
HETATM   17  C   UNL     1      23.142  42.660  49.348  1.00  0.00     0.186 C 
BRANCH  17  18
HETATM   18  O   UNL     1      23.317  43.148  50.683  1.00  0.00    -0.394 OA
HETATM   19  C   UNL     1      24.662  43.002  51.119  1.00  0.00     0.201 C 
ENDBRANCH  17  18
ENDBRANCH  16  17
ENDBRANCH  13  16
ENDBRANCH   1  12
BRANCH   8  20
HETATM   20  C   UNL     1      23.012  50.411  48.327  1.00  0.00     0.409 C 
HETATM   21  F   UNL     1      23.165  49.793  49.519  1.00  0.00    -0.169 F 
HETATM   22  F   UNL     1      24.099  50.150  47.571  1.00  0.00    -0.169 F 
HETATM   23  F   UNL     1      23.040  51.748  48.576  1.00  0.00    -0.169 F 
ENDBRANCH   8  20
BRANCH   6  24
HETATM   24  C   UNL     1      18.055  51.058  48.466  1.00  0.00    -0.035 A 
HETATM   25  C   UNL     1      18.280  52.191  49.266  1.00  0.00     0.009 A 
HETATM   26  C   UNL     1      17.212  52.894  49.825  1.00  0.00     0.001 A 
HETATM   27  C   UNL     1      15.903  52.482  49.583  1.00  0.00     0.000 A 
HETATM   28  C   UNL     1      15.662  51.368  48.783  1.00  0.00     0.001 A 
HETATM   29  C   UNL     1      16.730  50.660  48.227  1.00  0.00     0.009 A 
ENDBRANCH   6  24
TORSDOF 6
ENDMDL
