MODEL 1
REMARK VINA RESULT:     -10.0      0.000      0.000
REMARK  5 active torsions:
REMARK  status: ('A' for Active; 'I' for Inactive)
REMARK    1  A    between atoms: C_4  and  C_5 
REMARK    2  A    between atoms: C_5  and  O_6 
REMARK    3  A    between atoms: O_6  and  C_7 
REMARK    4  A    between atoms: C_8  and  N_9 
REMARK       I    between atoms: N_9  and  C_10 
REMARK       I    between atoms: C_10  and  N_11 
REMARK    5  A    between atoms: N_11  and  C_12 
ROOT
HETATM    1  C   UNL     1      26.180  47.838  49.926  1.00  0.00     0.037 A 
HETATM    2  C   UNL     1      25.052  48.413  49.331  1.00  0.00     0.052 A 
HETATM    3  C   UNL     1      25.181  49.533  48.500  1.00  0.00     0.046 A 
HETATM    4  C   UNL     1      24.028  50.073  47.845  1.00  0.00     0.099 C 
HETATM    5  N   UNL     1      23.092  50.499  47.307  1.00  0.00    -0.191 NA
HETATM    6  C   UNL     1      26.438  50.108  48.297  1.00  0.00     0.023 A 
HETATM    7  C   UNL     1      27.561  49.556  48.913  1.00  0.00     0.004 A 
HETATM    8  C   UNL     1      27.432  48.417  49.714  1.00  0.00     0.029 A 
ENDROOT
BRANCH   1   9
HETATM    9  N   UNL     1      25.979  46.691  50.708  1.00  0.00    -0.309 N 
HETATM   10  C   UNL     1      25.636  46.622  52.028  1.00  0.00     0.326 C 
HETATM   11  N   UNL     1      25.607  45.373  52.585  1.00  0.00    -0.291 N 
HETATM   12  O   UNL     1      25.427  47.582  52.767  1.00  0.00    -0.247 OA
HETATM   13  H   UNL     1      25.527  45.427  53.586  1.00  0.00     0.172 HD
HETATM   14  H   UNL     1      26.213  45.788  50.304  1.00  0.00     0.170 HD
BRANCH  11  15
HETATM   15  C   UNL     1      25.644  44.114  51.966  1.00  0.00     0.165 A 
HETATM   16  C   UNL     1      26.819  43.346  51.943  1.00  0.00     0.115 A 
HETATM   17  C   UNL     1      26.784  42.114  51.279  1.00  0.00     0.042 A 
HETATM   18  C   UNL     1      25.612  41.662  50.691  1.00  0.00     0.022 A 
HETATM   19  C   UNL     1      24.504  42.479  50.762  1.00  0.00     0.119 A 
HETATM   20  N   UNL     1      24.499  43.684  51.373  1.00  0.00    -0.240 NA
BRANCH  16  21
HETATM   21  O   UNL     1      28.077  43.706  52.327  1.00  0.00    -0.343 OA
BRANCH  21  22
HETATM   22  C   UNL     1      28.815  42.859  53.205  1.00  0.00     0.214 C 
BRANCH  22  23
HETATM   23  C   UNL     1      29.373  43.687  54.344  1.00  0.00    -0.034 A 
HETATM   24  C   UNL     1      30.513  43.283  55.063  1.00  0.00     0.009 A 
HETATM   25  C   UNL     1      31.020  44.061  56.104  1.00  0.00     0.001 A 
HETATM   26  C   UNL     1      30.395  45.255  56.446  1.00  0.00     0.000 A 
HETATM   27  C   UNL     1      29.268  45.675  55.743  1.00  0.00     0.001 A 
HETATM   28  C   UNL     1      28.764  44.901  54.692  1.00  0.00     0.009 A 
ENDBRANCH  22  23
ENDBRANCH  21  22
ENDBRANCH  16  21
ENDBRANCH  11  15
ENDBRANCH   1   9
TORSDOF 5
ENDMDL
MODEL 2
REMARK VINA RESULT:      -9.2      1.844      2.850
REMARK  5 active torsions:
REMARK  status: ('A' for Active; 'I' for Inactive)
REMARK    1  A    between atoms: C_4  and  C_5 
REMARK    2  A    between atoms: C_5  and  O_6 
REMARK    3  A    between atoms: O_6  and  C_7 
REMARK    4  A    between atoms: C_8  and  N_9 
REMARK       I    between atoms: N_9  and  C_10 
REMARK       I    between atoms: C_10  and  N_11 
REMARK    5  A    between atoms: N_11  and  C_12 
ROOT
HETATM    1  C   UNL     1      25.555  45.844  50.619  1.00  0.00     0.037 A 
HETATM    2  C   UNL     1      26.546  46.753  50.234  1.00  0.00     0.052 A 
HETATM    3  C   UNL     1      26.205  47.930  49.555  1.00  0.00     0.046 A 
HETATM    4  C   UNL     1      27.220  48.883  49.225  1.00  0.00     0.099 C 
HETATM    5  N   UNL     1      28.047  49.658  48.969  1.00  0.00    -0.191 NA
HETATM    6  C   UNL     1      24.871  48.180  49.222  1.00  0.00     0.023 A 
HETATM    7  C   UNL     1      23.884  47.262  49.578  1.00  0.00     0.004 A 
HETATM    8  C   UNL     1      24.224  46.105  50.285  1.00  0.00     0.029 A 
ENDROOT
BRANCH   1   9
HETATM    9  N   UNL     1      25.965  44.710  51.335  1.00  0.00    -0.309 N 
HETATM   10  C   UNL     1      25.607  44.337  52.598  1.00  0.00     0.326 C 
HETATM   11  N   UNL     1      26.236  43.234  53.109  1.00  0.00    -0.291 N 
HETATM   12  O   UNL     1      24.833  44.945  53.335  1.00  0.00    -0.247 OA
HETATM   13  H   UNL     1      26.053  43.139  54.093  1.00  0.00     0.172 HD
HETATM   14  H   UNL     1      26.700  44.132  50.935  1.00  0.00     0.170 HD
BRANCH  11  15
HETATM   15  C   UNL     1      27.027  42.273  52.462  1.00  0.00     0.165 A 
HETATM   16  C   UNL     1      28.217  41.799  53.035  1.00  0.00     0.115 A 
HETATM   17  C   UNL     1      28.966  40.863  52.313  1.00  0.00     0.042 A 
HETATM   18  C   UNL     1      28.524  40.403  51.081  1.00  0.00     0.022 A 
HETATM   19  C   UNL     1      27.343  40.920  50.592  1.00  0.00     0.119 A 
HETATM   20  N   UNL     1      26.600  41.841  51.245  1.00  0.00    -0.240 NA
BRANCH  16  21
HETATM   21  O   UNL     1      28.866  42.256  54.145  1.00  0.00    -0.343 OA
BRANCH  21  22
HETATM   22  C   UNL     1      29.989  43.122  53.998  1.00  0.00     0.214 C 
BRANCH  22  23
HETATM   23  C   UNL     1      30.270  43.801  55.323  1.00  0.00    -0.034 A 
HETATM   24  C   UNL     1      29.648  45.011  55.681  1.00  0.00     0.009 A 
HETATM   25  C   UNL     1      29.911  45.619  56.908  1.00  0.00     0.001 A 
HETATM   26  C   UNL     1      30.803  45.031  57.798  1.00  0.00     0.000 A 
HETATM   27  C   UNL     1      31.426  43.831  57.463  1.00  0.00     0.001 A 
HETATM   28  C   UNL     1      31.155  43.214  56.237  1.00  0.00     0.009 A 
ENDBRANCH  22  23
ENDBRANCH  21  22
ENDBRANCH  16  21
ENDBRANCH  11  15
ENDBRANCH   1   9
TORSDOF 5
ENDMDL
MODEL 3
REMARK VINA RESULT:      -9.0     11.670     13.793
REMARK  5 active torsions:
REMARK  status: ('A' for Active; 'I' for Inactive)
REMARK    1  A    between atoms: C_4  and  C_5 
REMARK    2  A    between atoms: C_5  and  O_6 
REMARK    3  A    between atoms: O_6  and  C_7 
REMARK    4  A    between atoms: C_8  and  N_9 
REMARK       I    between atoms: N_9  and  C_10 
REMARK       I    between atoms: C_10  and  N_11 
REMARK    5  A    between atoms: N_11  and  C_12 
ROOT
HETATM    1  C   UNL     1      32.303  49.836  42.029  1.00  0.00     0.037 A 
HETATM    2  C   UNL     1      33.519  50.315  41.530  1.00  0.00     0.052 A 
HETATM    3  C   UNL     1      34.284  51.222  42.274  1.00  0.00     0.046 A 
HETATM    4  C   UNL     1      35.558  51.653  41.782  1.00  0.00     0.099 C 
HETATM    5  N   UNL     1      36.595  51.990  41.384  1.00  0.00    -0.191 NA
HETATM    6  C   UNL     1      33.811  51.687  43.503  1.00  0.00     0.023 A 
HETATM    7  C   UNL     1      32.585  51.237  43.990  1.00  0.00     0.004 A 
HETATM    8  C   UNL     1      31.840  50.305  43.260  1.00  0.00     0.029 A 
ENDROOT
BRANCH   1   9
HETATM    9  N   UNL     1      31.614  48.896  41.250  1.00  0.00    -0.309 N 
HETATM   10  C   UNL     1      32.032  47.655  40.862  1.00  0.00     0.326 C 
HETATM   11  N   UNL     1      31.207  46.974  40.009  1.00  0.00    -0.291 N 
HETATM   12  O   UNL     1      33.109  47.137  41.152  1.00  0.00    -0.247 OA
HETATM   13  H   UNL     1      31.669  46.162  39.636  1.00  0.00     0.172 HD
HETATM   14  H   UNL     1      30.739  49.182  40.816  1.00  0.00     0.170 HD
BRANCH  11  15
HETATM   15  C   UNL     1      29.879  47.239  39.643  1.00  0.00     0.165 A 
HETATM   16  C   UNL     1      29.548  48.348  38.850  1.00  0.00     0.115 A 
HETATM   17  C   UNL     1      28.196  48.561  38.553  1.00  0.00     0.042 A 
HETATM   18  C   UNL     1      27.226  47.682  39.009  1.00  0.00     0.022 A 
HETATM   19  C   UNL     1      27.639  46.617  39.780  1.00  0.00     0.119 A 
HETATM   20  N   UNL     1      28.929  46.386  40.110  1.00  0.00    -0.240 NA
BRANCH  16  21
HETATM   21  O   UNL     1      30.347  49.382  38.459  1.00  0.00    -0.343 OA
BRANCH  21  22
HETATM   22  C   UNL     1      29.773  50.666  38.223  1.00  0.00     0.214 C 
BRANCH  22  23
HETATM   23  C   UNL     1      30.130  51.589  39.371  1.00  0.00    -0.034 A 
HETATM   24  C   UNL     1      31.323  52.334  39.377  1.00  0.00     0.009 A 
HETATM   25  C   UNL     1      31.633  53.186  40.437  1.00  0.00     0.001 A 
HETATM   26  C   UNL     1      30.759  53.305  41.511  1.00  0.00     0.000 A 
HETATM   27  C   UNL     1      29.570  52.578  41.521  1.00  0.00     0.001 A 
HETATM   28  C   UNL     1      29.252  51.731  40.454  1.00  0.00     0.009 A 
ENDBRANCH  22  23
ENDBRANCH  21  22
ENDBRANCH  16  21
ENDBRANCH  11  15
ENDBRANCH   1   9
TORSDOF 5
ENDMDL
MODEL 4
REMARK VINA RESULT:      -8.7      1.906      2.689
REMARK  5 active torsions:
REMARK  status: ('A' for Active; 'I' for Inactive)
REMARK    1  A    between atoms: C_4  and  C_5 
REMARK    2  A    between atoms: C_5  and  O_6 
REMARK    3  A    between atoms: O_6  and  C_7 
REMARK    4  A    between atoms: C_8  and  N_9 
REMARK       I    between atoms: N_9  and  C_10 
REMARK       I    between atoms: C_10  and  N_11 
REMARK    5  A    between atoms: N_11  and  C_12 
ROOT
HETATM    1  C   UNL     1      24.007  48.765  49.061  1.00  0.00     0.037 A 
HETATM    2  C   UNL     1      22.708  48.843  49.574  1.00  0.00     0.052 A 
HETATM    3  C   UNL     1      21.857  49.890  49.198  1.00  0.00     0.046 A 
HETATM    4  C   UNL     1      20.509  49.923  49.678  1.00  0.00     0.099 C 
HETATM    5  N   UNL     1      19.413  49.937  50.061  1.00  0.00    -0.191 NA
HETATM    6  C   UNL     1      22.321  50.889  48.338  1.00  0.00     0.023 A 
HETATM    7  C   UNL     1      23.626  50.832  47.849  1.00  0.00     0.004 A 
HETATM    8  C   UNL     1      24.460  49.767  48.200  1.00  0.00     0.029 A 
ENDROOT
BRANCH   1   9
HETATM    9  N   UNL     1      24.786  47.665  49.447  1.00  0.00    -0.309 N 
HETATM   10  C   UNL     1      26.098  47.653  49.824  1.00  0.00     0.326 C 
HETATM   11  N   UNL     1      26.655  46.424  50.051  1.00  0.00    -0.291 N 
HETATM   12  O   UNL     1      26.832  48.637  49.901  1.00  0.00    -0.247 OA
HETATM   13  H   UNL     1      27.654  46.494  50.142  1.00  0.00     0.172 HD
HETATM   14  H   UNL     1      24.387  46.735  49.342  1.00  0.00     0.170 HD
BRANCH  11  15
HETATM   15  C   UNL     1      26.038  45.172  50.189  1.00  0.00     0.165 A 
HETATM   16  C   UNL     1      26.308  44.342  51.288  1.00  0.00     0.115 A 
HETATM   17  C   UNL     1      25.676  43.094  51.339  1.00  0.00     0.042 A 
HETATM   18  C   UNL     1      24.790  42.710  50.343  1.00  0.00     0.022 A 
HETATM   19  C   UNL     1      24.582  43.586  49.300  1.00  0.00     0.119 A 
HETATM   20  N   UNL     1      25.187  44.791  49.199  1.00  0.00    -0.240 NA
BRANCH  16  21
HETATM   21  O   UNL     1      27.256  44.496  52.257  1.00  0.00    -0.343 OA
BRANCH  21  22
HETATM   22  C   UNL     1      27.463  43.458  53.212  1.00  0.00     0.214 C 
BRANCH  22  23
HETATM   23  C   UNL     1      28.557  43.877  54.173  1.00  0.00    -0.034 A 
HETATM   24  C   UNL     1      28.525  45.118  54.835  1.00  0.00     0.009 A 
HETATM   25  C   UNL     1      29.535  45.486  55.723  1.00  0.00     0.001 A 
HETATM   26  C   UNL     1      30.596  44.621  55.965  1.00  0.00     0.000 A 
HETATM   27  C   UNL     1      30.643  43.385  55.323  1.00  0.00     0.001 A 
HETATM   28  C   UNL     1      29.626  43.010  54.439  1.00  0.00     0.009 A 
ENDBRANCH  22  23
ENDBRANCH  21  22
ENDBRANCH  16  21
ENDBRANCH  11  15
ENDBRANCH   1   9
TORSDOF 5
ENDMDL
MODEL 5
REMARK VINA RESULT:      -8.6      1.672      2.100
REMARK  5 active torsions:
REMARK  status: ('A' for Active; 'I' for Inactive)
REMARK    1  A    between atoms: C_4  and  C_5 
REMARK    2  A    between atoms: C_5  and  O_6 
REMARK    3  A    between atoms: O_6  and  C_7 
REMARK    4  A    between atoms: C_8  and  N_9 
REMARK       I    between atoms: N_9  and  C_10 
REMARK       I    between atoms: C_10  and  N_11 
REMARK    5  A    between atoms: N_11  and  C_12 
ROOT
HETATM    1  C   UNL     1      25.523  46.106  50.050  1.00  0.00     0.037 A 
HETATM    2  C   UNL     1      24.236  46.584  49.781  1.00  0.00     0.052 A 
HETATM    3  C   UNL     1      24.044  47.900  49.342  1.00  0.00     0.046 A 
HETATM    4  C   UNL     1      22.730  48.357  49.007  1.00  0.00     0.099 C 
HETATM    5  N   UNL     1      21.663  48.718  48.725  1.00  0.00    -0.191 NA
HETATM    6  C   UNL     1      25.140  48.757  49.213  1.00  0.00     0.023 A 
HETATM    7  C   UNL     1      26.421  48.294  49.510  1.00  0.00     0.004 A 
HETATM    8  C   UNL     1      26.612  46.969  49.914  1.00  0.00     0.029 A 
ENDROOT
BRANCH   1   9
HETATM    9  N   UNL     1      25.642  44.765  50.441  1.00  0.00    -0.309 N 
HETATM   10  C   UNL     1      24.847  44.066  51.304  1.00  0.00     0.326 C 
HETATM   11  N   UNL     1      25.245  42.791  51.601  1.00  0.00    -0.291 N 
HETATM   12  O   UNL     1      23.860  44.508  51.889  1.00  0.00    -0.247 OA
HETATM   13  H   UNL     1      24.716  42.420  52.371  1.00  0.00     0.172 HD
HETATM   14  H   UNL     1      26.470  44.252  50.149  1.00  0.00     0.170 HD
BRANCH  11  15
HETATM   15  C   UNL     1      26.214  41.987  50.983  1.00  0.00     0.165 A 
HETATM   16  C   UNL     1      27.424  41.679  51.623  1.00  0.00     0.115 A 
HETATM   17  C   UNL     1      28.354  40.896  50.928  1.00  0.00     0.042 A 
HETATM   18  C   UNL     1      28.066  40.421  49.657  1.00  0.00     0.022 A 
HETATM   19  C   UNL     1      26.853  40.770  49.103  1.00  0.00     0.119 A 
HETATM   20  N   UNL     1      25.937  41.541  49.729  1.00  0.00    -0.240 NA
BRANCH  16  21
HETATM   21  O   UNL     1      27.924  42.187  52.787  1.00  0.00    -0.343 OA
BRANCH  21  22
HETATM   22  C   UNL     1      29.329  42.380  52.926  1.00  0.00     0.214 C 
BRANCH  22  23
HETATM   23  C   UNL     1      29.589  43.344  54.065  1.00  0.00    -0.034 A 
HETATM   24  C   UNL     1      30.660  43.161  54.959  1.00  0.00     0.009 A 
HETATM   25  C   UNL     1      30.892  44.062  55.998  1.00  0.00     0.001 A 
HETATM   26  C   UNL     1      30.055  45.160  56.165  1.00  0.00     0.000 A 
HETATM   27  C   UNL     1      28.992  45.361  55.287  1.00  0.00     0.001 A 
HETATM   28  C   UNL     1      28.764  44.464  54.238  1.00  0.00     0.009 A 
ENDBRANCH  22  23
ENDBRANCH  21  22
ENDBRANCH  16  21
ENDBRANCH  11  15
ENDBRANCH   1   9
TORSDOF 5
ENDMDL
MODEL 6
REMARK VINA RESULT:      -8.6     11.087     13.248
REMARK  5 active torsions:
REMARK  status: ('A' for Active; 'I' for Inactive)
REMARK    1  A    between atoms: C_4  and  C_5 
REMARK    2  A    between atoms: C_5  and  O_6 
REMARK    3  A    between atoms: O_6  and  C_7 
REMARK    4  A    between atoms: C_8  and  N_9 
REMARK       I    between atoms: N_9  and  C_10 
REMARK       I    between atoms: C_10  and  N_11 
REMARK    5  A    between atoms: N_11  and  C_12 
ROOT
HETATM    1  C   UNL     1      30.779  49.617  40.804  1.00  0.00     0.037 A 
HETATM    2  C   UNL     1      31.046  49.970  42.131  1.00  0.00     0.052 A 
HETATM    3  C   UNL     1      31.959  50.990  42.425  1.00  0.00     0.046 A 
HETATM    4  C   UNL     1      32.174  51.387  43.783  1.00  0.00     0.099 C 
HETATM    5  N   UNL     1      32.336  51.713  44.886  1.00  0.00    -0.191 NA
HETATM    6  C   UNL     1      32.642  51.632  41.388  1.00  0.00     0.023 A 
HETATM    7  C   UNL     1      32.402  51.262  40.066  1.00  0.00     0.004 A 
HETATM    8  C   UNL     1      31.464  50.266  39.776  1.00  0.00     0.029 A 
ENDROOT
BRANCH   1   9
HETATM    9  N   UNL     1      29.820  48.617  40.585  1.00  0.00    -0.309 N 
HETATM   10  C   UNL     1      30.028  47.305  40.271  1.00  0.00     0.326 C 
HETATM   11  N   UNL     1      28.913  46.559  40.003  1.00  0.00    -0.291 N 
HETATM   12  O   UNL     1      31.124  46.764  40.135  1.00  0.00    -0.247 OA
HETATM   13  H   UNL     1      29.163  45.669  39.607  1.00  0.00     0.172 HD
HETATM   14  H   UNL     1      28.842  48.893  40.543  1.00  0.00     0.170 HD
BRANCH  11  15
HETATM   15  C   UNL     1      27.560  46.857  40.224  1.00  0.00     0.165 A 
HETATM   16  C   UNL     1      26.927  47.917  39.559  1.00  0.00     0.115 A 
HETATM   17  C   UNL     1      25.582  48.170  39.858  1.00  0.00     0.042 A 
HETATM   18  C   UNL     1      24.899  47.373  40.764  1.00  0.00     0.022 A 
HETATM   19  C   UNL     1      25.596  46.351  41.371  1.00  0.00     0.119 A 
HETATM   20  N   UNL     1      26.900  46.086  41.129  1.00  0.00    -0.240 NA
BRANCH  16  21
HETATM   21  O   UNL     1      27.485  48.881  38.771  1.00  0.00    -0.343 OA
BRANCH  21  22
HETATM   22  C   UNL     1      26.818  50.130  38.606  1.00  0.00     0.214 C 
BRANCH  22  23
HETATM   23  C   UNL     1      27.620  51.217  39.292  1.00  0.00    -0.034 A 
HETATM   24  C   UNL     1      27.576  51.401  40.686  1.00  0.00     0.009 A 
HETATM   25  C   UNL     1      28.327  52.401  41.304  1.00  0.00     0.001 A 
HETATM   26  C   UNL     1      29.133  53.238  40.539  1.00  0.00     0.000 A 
HETATM   27  C   UNL     1      29.193  53.068  39.157  1.00  0.00     0.001 A 
HETATM   28  C   UNL     1      28.449  52.059  38.537  1.00  0.00     0.009 A 
ENDBRANCH  22  23
ENDBRANCH  21  22
ENDBRANCH  16  21
ENDBRANCH  11  15
ENDBRANCH   1   9
TORSDOF 5
ENDMDL
MODEL 7
REMARK VINA RESULT:      -8.3     11.655     13.268
REMARK  5 active torsions:
REMARK  status: ('A' for Active; 'I' for Inactive)
REMARK    1  A    between atoms: C_4  and  C_5 
REMARK    2  A    between atoms: C_5  and  O_6 
REMARK    3  A    between atoms: O_6  and  C_7 
REMARK    4  A    between atoms: C_8  and  N_9 
REMARK       I    between atoms: N_9  and  C_10 
REMARK       I    between atoms: C_10  and  N_11 
REMARK    5  A    between atoms: N_11  and  C_12 
ROOT
HETATM    1  C   UNL     1      29.265  51.635  40.378  1.00  0.00     0.037 A 
HETATM    2  C   UNL     1      30.468  51.700  39.666  1.00  0.00     0.052 A 
HETATM    3  C   UNL     1      31.627  52.199  40.274  1.00  0.00     0.046 A 
HETATM    4  C   UNL     1      32.866  52.199  39.557  1.00  0.00     0.099 C 
HETATM    5  N   UNL     1      33.870  52.185  38.974  1.00  0.00    -0.191 NA
HETATM    6  C   UNL     1      31.575  52.677  41.586  1.00  0.00     0.023 A 
HETATM    7  C   UNL     1      30.371  52.642  42.289  1.00  0.00     0.004 A 
HETATM    8  C   UNL     1      29.224  52.112  41.690  1.00  0.00     0.029 A 
ENDROOT
BRANCH   1   9
HETATM    9  N   UNL     1      28.158  51.082  39.720  1.00  0.00    -0.309 N 
HETATM   10  C   UNL     1      27.654  51.413  38.495  1.00  0.00     0.326 C 
HETATM   11  N   UNL     1      26.493  50.792  38.125  1.00  0.00    -0.291 N 
HETATM   12  O   UNL     1      28.111  52.269  37.738  1.00  0.00    -0.247 OA
HETATM   13  H   UNL     1      26.101  51.222  37.305  1.00  0.00     0.172 HD
HETATM   14  H   UNL     1      27.573  50.428  40.234  1.00  0.00     0.170 HD
BRANCH  11  15
HETATM   15  C   UNL     1      25.846  49.687  38.697  1.00  0.00     0.165 A 
HETATM   16  C   UNL     1      26.556  48.531  39.060  1.00  0.00     0.115 A 
HETATM   17  C   UNL     1      25.834  47.459  39.597  1.00  0.00     0.042 A 
HETATM   18  C   UNL     1      24.463  47.555  39.787  1.00  0.00     0.022 A 
HETATM   19  C   UNL     1      23.845  48.727  39.405  1.00  0.00     0.119 A 
HETATM   20  N   UNL     1      24.499  49.778  38.863  1.00  0.00    -0.240 NA
BRANCH  16  21
HETATM   21  O   UNL     1      27.857  48.217  38.798  1.00  0.00    -0.343 OA
BRANCH  21  22
HETATM   22  C   UNL     1      28.490  47.169  39.530  1.00  0.00     0.214 C 
BRANCH  22  23
HETATM   23  C   UNL     1      29.595  47.756  40.384  1.00  0.00    -0.034 A 
HETATM   24  C   UNL     1      30.912  47.883  39.905  1.00  0.00     0.009 A 
HETATM   25  C   UNL     1      31.917  48.433  40.699  1.00  0.00     0.001 A 
HETATM   26  C   UNL     1      31.625  48.863  41.989  1.00  0.00     0.000 A 
HETATM   27  C   UNL     1      30.326  48.750  42.480  1.00  0.00     0.001 A 
HETATM   28  C   UNL     1      29.314  48.208  41.681  1.00  0.00     0.009 A 
ENDBRANCH  22  23
ENDBRANCH  21  22
ENDBRANCH  16  21
ENDBRANCH  11  15
ENDBRANCH   1   9
TORSDOF 5
ENDMDL
MODEL 8
REMARK VINA RESULT:      -8.2     12.252     14.154
REMARK  5 active torsions:
REMARK  status: ('A' for Active; 'I' for Inactive)
REMARK    1  A    between atoms: C_4  and  C_5 
REMARK    2  A    between atoms: C_5  and  O_6 
REMARK    3  A    between atoms: O_6  and  C_7 
REMARK    4  A    between atoms: C_8  and  N_9 
REMARK       I    between atoms: N_9  and  C_10 
REMARK       I    between atoms: C_10  and  N_11 
REMARK    5  A    between atoms: N_11  and  C_12 
ROOT
HETATM    1  C   UNL     1      32.181  50.495  41.635  1.00  0.00     0.037 A 
HETATM    2  C   UNL     1      33.577  50.452  41.544  1.00  0.00     0.052 A 
HETATM    3  C   UNL     1      34.371  51.009  42.554  1.00  0.00     0.046 A 
HETATM    4  C   UNL     1      35.797  50.901  42.482  1.00  0.00     0.099 C 
HETATM    5  N   UNL     1      36.952  50.800  42.424  1.00  0.00    -0.191 NA
HETATM    6  C   UNL     1      33.769  51.650  43.639  1.00  0.00     0.023 A 
HETATM    7  C   UNL     1      32.379  51.722  43.719  1.00  0.00     0.004 A 
HETATM    8  C   UNL     1      31.589  51.135  42.725  1.00  0.00     0.029 A 
ENDROOT
BRANCH   1   9
HETATM    9  N   UNL     1      31.451  49.878  40.609  1.00  0.00    -0.309 N 
HETATM   10  C   UNL     1      31.426  50.200  39.282  1.00  0.00     0.326 C 
HETATM   11  N   UNL     1      30.543  49.504  38.503  1.00  0.00    -0.291 N 
HETATM   12  O   UNL     1      32.068  51.104  38.750  1.00  0.00    -0.247 OA
HETATM   13  H   UNL     1      30.459  49.923  37.593  1.00  0.00     0.172 HD
HETATM   14  H   UNL     1      30.767  49.171  40.866  1.00  0.00     0.170 HD
BRANCH  11  15
HETATM   15  C   UNL     1      29.813  48.341  38.794  1.00  0.00     0.165 A 
HETATM   16  C   UNL     1      28.431  48.270  38.566  1.00  0.00     0.115 A 
HETATM   17  C   UNL     1      27.769  47.085  38.910  1.00  0.00     0.042 A 
HETATM   18  C   UNL     1      28.473  46.011  39.435  1.00  0.00     0.022 A 
HETATM   19  C   UNL     1      29.829  46.166  39.626  1.00  0.00     0.119 A 
HETATM   20  N   UNL     1      30.504  47.298  39.328  1.00  0.00    -0.240 NA
BRANCH  16  21
HETATM   21  O   UNL     1      27.575  49.271  38.211  1.00  0.00    -0.343 OA
BRANCH  21  22
HETATM   22  C   UNL     1      26.874  49.990  39.222  1.00  0.00     0.214 C 
BRANCH  22  23
HETATM   23  C   UNL     1      27.693  51.198  39.632  1.00  0.00    -0.034 A 
HETATM   24  C   UNL     1      27.930  51.507  40.984  1.00  0.00     0.009 A 
HETATM   25  C   UNL     1      28.693  52.617  41.345  1.00  0.00     0.001 A 
HETATM   26  C   UNL     1      29.230  53.440  40.361  1.00  0.00     0.000 A 
HETATM   27  C   UNL     1      29.011  53.148  39.017  1.00  0.00     0.001 A 
HETATM   28  C   UNL     1      28.255  52.029  38.652  1.00  0.00     0.009 A 
ENDBRANCH  22  23
ENDBRANCH  21  22
ENDBRANCH  16  21
ENDBRANCH  11  15
ENDBRANCH   1   9
TORSDOF 5
ENDMDL
MODEL 9
REMARK VINA RESULT:      -8.2      2.300      3.332
REMARK  5 active torsions:
REMARK  status: ('A' for Active; 'I' for Inactive)
REMARK    1  A    between atoms: C_4  and  C_5 
REMARK    2  A    between atoms: C_5  and  O_6 
REMARK    3  A    between atoms: O_6  and  C_7 
REMARK    4  A    between atoms: C_8  and  N_9 
REMARK       I    between atoms: N_9  and  C_10 
REMARK       I    between atoms: C_10  and  N_11 
REMARK    5  A    between atoms: N_11  and  C_12 
ROOT
HETATM    1  C   UNL     1      25.111  45.119  50.318  1.00  0.00     0.037 A 
HETATM    2  C   UNL     1      24.127  45.565  49.429  1.00  0.00     0.052 A 
HETATM    3  C   UNL     1      23.825  46.929  49.330  1.00  0.00     0.046 A 
HETATM    4  C   UNL     1      22.863  47.379  48.370  1.00  0.00     0.099 C 
HETATM    5  N   UNL     1      22.090  47.740  47.582  1.00  0.00    -0.191 NA
HETATM    6  C   UNL     1      24.478  47.848  50.154  1.00  0.00     0.023 A 
HETATM    7  C   UNL     1      25.438  47.405  51.063  1.00  0.00     0.004 A 
HETATM    8  C   UNL     1      25.761  46.046  51.135  1.00  0.00     0.029 A 
ENDROOT
BRANCH   1   9
HETATM    9  N   UNL     1      25.391  43.745  50.330  1.00  0.00    -0.309 N 
HETATM   10  C   UNL     1      24.594  42.727  50.770  1.00  0.00     0.326 C 
HETATM   11  N   UNL     1      25.149  41.477  50.772  1.00  0.00    -0.291 N 
HETATM   12  O   UNL     1      23.460  42.850  51.230  1.00  0.00    -0.247 OA
HETATM   13  H   UNL     1      24.569  40.827  51.274  1.00  0.00     0.172 HD
HETATM   14  H   UNL     1      26.333  43.446  50.090  1.00  0.00     0.170 HD
BRANCH  11  15
HETATM   15  C   UNL     1      26.333  41.020  50.174  1.00  0.00     0.165 A 
HETATM   16  C   UNL     1      27.455  40.676  50.944  1.00  0.00     0.115 A 
HETATM   17  C   UNL     1      28.609  40.258  50.272  1.00  0.00     0.042 A 
HETATM   18  C   UNL     1      28.625  40.164  48.888  1.00  0.00     0.022 A 
HETATM   19  C   UNL     1      27.480  40.520  48.209  1.00  0.00     0.119 A 
HETATM   20  N   UNL     1      26.351  40.950  48.816  1.00  0.00    -0.240 NA
BRANCH  16  21
HETATM   21  O   UNL     1      27.656  40.859  52.281  1.00  0.00    -0.343 OA
BRANCH  21  22
HETATM   22  C   UNL     1      28.953  41.212  52.756  1.00  0.00     0.214 C 
BRANCH  22  23
HETATM   23  C   UNL     1      28.857  42.491  53.563  1.00  0.00    -0.034 A 
HETATM   24  C   UNL     1      27.716  43.312  53.515  1.00  0.00     0.009 A 
HETATM   25  C   UNL     1      27.638  44.482  54.270  1.00  0.00     0.001 A 
HETATM   26  C   UNL     1      28.701  44.853  55.086  1.00  0.00     0.000 A 
HETATM   27  C   UNL     1      29.838  44.051  55.151  1.00  0.00     0.001 A 
HETATM   28  C   UNL     1      29.914  42.872  54.402  1.00  0.00     0.009 A 
ENDBRANCH  22  23
ENDBRANCH  21  22
ENDBRANCH  16  21
ENDBRANCH  11  15
ENDBRANCH   1   9
TORSDOF 5
ENDMDL
MODEL 10
REMARK VINA RESULT:      -8.2     12.665     14.315
REMARK  5 active torsions:
REMARK  status: ('A' for Active; 'I' for Inactive)
REMARK    1  A    between atoms: C_4  and  C_5 
REMARK    2  A    between atoms: C_5  and  O_6 
REMARK    3  A    between atoms: O_6  and  C_7 
REMARK    4  A    between atoms: C_8  and  N_9 
REMARK       I    between atoms: N_9  and  C_10 
REMARK       I    between atoms: C_10  and  N_11 
REMARK    5  A    between atoms: N_11  and  C_12 
ROOT
HETATM    1  C   UNL     1      31.298  49.993  39.263  1.00  0.00     0.037 A 
HETATM    2  C   UNL     1      31.513  50.303  40.610  1.00  0.00     0.052 A 
HETATM    3  C   UNL     1      32.264  51.429  40.968  1.00  0.00     0.046 A 
HETATM    4  C   UNL     1      32.422  51.773  42.348  1.00  0.00     0.099 C 
HETATM    5  N   UNL     1      32.537  52.053  43.469  1.00  0.00    -0.191 NA
HETATM    6  C   UNL     1      32.840  52.227  39.975  1.00  0.00     0.023 A 
HETATM    7  C   UNL     1      32.653  51.904  38.631  1.00  0.00     0.004 A 
HETATM    8  C   UNL     1      31.874  50.798  38.278  1.00  0.00     0.029 A 
ENDROOT
BRANCH   1   9
HETATM    9  N   UNL     1      30.498  48.876  38.980  1.00  0.00    -0.309 N 
HETATM   10  C   UNL     1      30.657  47.594  39.421  1.00  0.00     0.326 C 
HETATM   11  N   UNL     1      29.796  46.662  38.910  1.00  0.00    -0.291 N 
HETATM   12  O   UNL     1      31.548  47.197  40.172  1.00  0.00    -0.247 OA
HETATM   13  H   UNL     1      30.094  45.731  39.142  1.00  0.00     0.172 HD
HETATM   14  H   UNL     1      29.767  48.975  38.281  1.00  0.00     0.170 HD
BRANCH  11  15
HETATM   15  C   UNL     1      28.613  46.842  38.177  1.00  0.00     0.165 A 
HETATM   16  C   UNL     1      27.672  47.818  38.536  1.00  0.00     0.115 A 
HETATM   17  C   UNL     1      26.502  47.915  37.772  1.00  0.00     0.042 A 
HETATM   18  C   UNL     1      26.303  47.086  36.679  1.00  0.00     0.022 A 
HETATM   19  C   UNL     1      27.279  46.155  36.395  1.00  0.00     0.119 A 
HETATM   20  N   UNL     1      28.412  46.012  37.118  1.00  0.00    -0.240 NA
BRANCH  16  21
HETATM   21  O   UNL     1      27.639  48.596  39.657  1.00  0.00    -0.343 OA
BRANCH  21  22
HETATM   22  C   UNL     1      26.781  49.733  39.701  1.00  0.00     0.214 C 
BRANCH  22  23
HETATM   23  C   UNL     1      27.624  50.993  39.694  1.00  0.00    -0.034 A 
HETATM   24  C   UNL     1      28.045  51.594  38.494  1.00  0.00     0.009 A 
HETATM   25  C   UNL     1      28.813  52.758  38.503  1.00  0.00     0.001 A 
HETATM   26  C   UNL     1      29.177  53.340  39.713  1.00  0.00     0.000 A 
HETATM   27  C   UNL     1      28.766  52.762  40.912  1.00  0.00     0.001 A 
HETATM   28  C   UNL     1      27.986  51.600  40.904  1.00  0.00     0.009 A 
ENDBRANCH  22  23
ENDBRANCH  21  22
ENDBRANCH  16  21
ENDBRANCH  11  15
ENDBRANCH   1   9
TORSDOF 5
ENDMDL
