MODEL 1
REMARK VINA RESULT:     -10.4      0.000      0.000
REMARK  2 active torsions:
REMARK  status: ('A' for Active; 'I' for Inactive)
REMARK    1  A    between atoms: C_2  and  C_3 
REMARK    2  A    between atoms: C_3  and  C_4 
ROOT
HETATM    1  C   UNL     1      26.091  44.179  52.526  1.00  0.00     0.085 A 
HETATM    2  S   UNL     1      26.074  45.495  53.628  1.00  0.00    -0.063 SA
HETATM    3  C   UNL     1      27.585  45.064  54.274  1.00  0.00     0.111 A 
HETATM    4  C   UNL     1      28.137  43.952  53.658  1.00  0.00     0.028 A 
HETATM    5  C   UNL     1      27.272  43.464  52.619  1.00  0.00     0.060 A 
HETATM    6  N   UNL     1      27.605  42.416  51.826  1.00  0.00    -0.397 N 
HETATM    7  N   UNL     1      28.125  45.780  55.279  1.00  0.00    -0.245 NA
HETATM    8  C   UNL     1      29.331  45.349  55.714  1.00  0.00     0.042 A 
HETATM    9  C   UNL     1      30.001  44.239  55.194  1.00  0.00    -0.033 A 
HETATM   10  C   UNL     1      31.336  43.785  55.722  1.00  0.00     0.040 C 
HETATM   11  C   UNL     1      31.277  43.324  57.178  1.00  0.00     0.005 C 
HETATM   12  C   UNL     1      31.284  44.470  58.190  1.00  0.00     0.001 C 
HETATM   13  C   UNL     1      30.058  45.380  58.140  1.00  0.00     0.006 C 
HETATM   14  C   UNL     1      29.928  46.164  56.836  1.00  0.00     0.060 C 
HETATM   15  C   UNL     1      29.395  43.534  54.143  1.00  0.00     0.026 A 
HETATM   16  H   UNL     1      28.552  42.047  51.823  1.00  0.00     0.156 HD
HETATM   17  H   UNL     1      27.121  42.222  50.952  1.00  0.00     0.156 HD
ENDROOT
BRANCH   1  18
HETATM   18  C   UNL     1      24.935  44.009  51.663  1.00  0.00     0.201 C 
HETATM   19  O   UNL     1      24.264  42.978  51.622  1.00  0.00    -0.286 OA
BRANCH  18  20
HETATM   20  C   UNL     1      24.509  45.125  50.768  1.00  0.00     0.018 A 
HETATM   21  C   UNL     1      23.475  44.878  49.834  1.00  0.00     0.018 A 
HETATM   22  C   UNL     1      23.038  45.884  48.965  1.00  0.00     0.040 A 
HETATM   23  C   UNL     1      23.659  47.110  49.045  1.00  0.00     0.105 A 
HETATM   24  C   UNL     1      24.678  47.350  49.939  1.00  0.00     0.106 A 
HETATM   25  O   UNL     1      23.369  48.198  48.283  1.00  0.00    -0.323 OA
HETATM   26  C   UNL     1      25.132  46.382  50.809  1.00  0.00     0.055 A 
HETATM   27  O   UNL     1      25.156  48.621  49.847  1.00  0.00    -0.323 OA
HETATM   28  C   UNL     1      24.329  49.150  48.791  1.00  0.00     0.352 A 
ENDBRANCH  18  20
ENDBRANCH   1  18
TORSDOF 2
ENDMDL
MODEL 2
REMARK VINA RESULT:     -10.4      1.883      2.405
REMARK  2 active torsions:
REMARK  status: ('A' for Active; 'I' for Inactive)
REMARK    1  A    between atoms: C_2  and  C_3 
REMARK    2  A    between atoms: C_3  and  C_4 
ROOT
HETATM    1  C   UNL     1      27.106  42.648  52.111  1.00  0.00     0.085 A 
HETATM    2  S   UNL     1      26.677  44.113  52.896  1.00  0.00    -0.063 SA
HETATM    3  C   UNL     1      28.085  44.099  53.846  1.00  0.00     0.111 A 
HETATM    4  C   UNL     1      28.910  43.019  53.571  1.00  0.00     0.028 A 
HETATM    5  C   UNL     1      28.344  42.197  52.536  1.00  0.00     0.060 A 
HETATM    6  N   UNL     1      28.979  41.106  52.043  1.00  0.00    -0.397 N 
HETATM    7  N   UNL     1      28.308  45.073  54.749  1.00  0.00    -0.245 NA
HETATM    8  C   UNL     1      29.461  44.962  55.447  1.00  0.00     0.042 A 
HETATM    9  C   UNL     1      30.380  43.924  55.283  1.00  0.00    -0.033 A 
HETATM   10  C   UNL     1      31.645  43.832  56.096  1.00  0.00     0.040 C 
HETATM   11  C   UNL     1      31.382  43.639  57.589  1.00  0.00     0.005 C 
HETATM   12  C   UNL     1      31.020  44.927  58.326  1.00  0.00     0.001 C 
HETATM   13  C   UNL     1      29.700  45.566  57.896  1.00  0.00     0.006 C 
HETATM   14  C   UNL     1      29.700  46.064  56.452  1.00  0.00     0.060 C 
HETATM   15  C   UNL     1      30.102  42.940  54.322  1.00  0.00     0.026 A 
HETATM   16  H   UNL     1      29.955  40.928  52.264  1.00  0.00     0.156 HD
HETATM   17  H   UNL     1      28.706  40.670  51.164  1.00  0.00     0.156 HD
ENDROOT
BRANCH   1  18
HETATM   18  C   UNL     1      26.175  42.110  51.135  1.00  0.00     0.201 C 
HETATM   19  O   UNL     1      26.085  40.912  50.869  1.00  0.00    -0.286 OA
BRANCH  18  20
HETATM   20  C   UNL     1      25.262  43.033  50.396  1.00  0.00     0.018 A 
HETATM   21  C   UNL     1      25.838  44.085  49.645  1.00  0.00     0.018 A 
HETATM   22  C   UNL     1      25.033  44.985  48.938  1.00  0.00     0.040 A 
HETATM   23  C   UNL     1      23.669  44.815  49.012  1.00  0.00     0.105 A 
HETATM   24  C   UNL     1      23.103  43.804  49.755  1.00  0.00     0.106 A 
HETATM   25  O   UNL     1      22.737  45.589  48.395  1.00  0.00    -0.323 OA
HETATM   26  C   UNL     1      23.867  42.900  50.464  1.00  0.00     0.055 A 
HETATM   27  O   UNL     1      21.744  43.820  49.698  1.00  0.00    -0.323 OA
HETATM   28  C   UNL     1      21.518  44.959  48.842  1.00  0.00     0.352 A 
ENDBRANCH  18  20
ENDBRANCH   1  18
TORSDOF 2
ENDMDL
MODEL 3
REMARK VINA RESULT:     -10.1      3.725      5.427
REMARK  2 active torsions:
REMARK  status: ('A' for Active; 'I' for Inactive)
REMARK    1  A    between atoms: C_2  and  C_3 
REMARK    2  A    between atoms: C_3  and  C_4 
ROOT
HETATM    1  C   UNL     1      27.223  42.426  51.939  1.00  0.00     0.085 A 
HETATM    2  S   UNL     1      26.815  43.972  52.562  1.00  0.00    -0.063 SA
HETATM    3  C   UNL     1      28.156  43.985  53.604  1.00  0.00     0.111 A 
HETATM    4  C   UNL     1      28.945  42.852  53.481  1.00  0.00     0.028 A 
HETATM    5  C   UNL     1      28.409  41.965  52.484  1.00  0.00     0.060 A 
HETATM    6  N   UNL     1      29.022  40.808  52.133  1.00  0.00    -0.397 N 
HETATM    7  N   UNL     1      28.365  45.026  54.432  1.00  0.00    -0.245 NA
HETATM    8  C   UNL     1      29.464  44.931  55.215  1.00  0.00     0.042 A 
HETATM    9  C   UNL     1      30.343  43.845  55.205  1.00  0.00    -0.033 A 
HETATM   10  C   UNL     1      31.547  43.775  56.107  1.00  0.00     0.040 C 
HETATM   11  C   UNL     1      31.179  43.727  57.590  1.00  0.00     0.005 C 
HETATM   12  C   UNL     1      30.831  45.091  58.186  1.00  0.00     0.001 C 
HETATM   13  C   UNL     1      29.573  45.742  57.612  1.00  0.00     0.006 C 
HETATM   14  C   UNL     1      29.690  46.108  56.134  1.00  0.00     0.060 C 
HETATM   15  C   UNL     1      30.080  42.792  54.316  1.00  0.00     0.026 A 
HETATM   16  H   UNL     1      29.972  40.611  52.435  1.00  0.00     0.156 HD
HETATM   17  H   UNL     1      28.786  40.307  51.278  1.00  0.00     0.156 HD
ENDROOT
BRANCH   1  18
HETATM   18  C   UNL     1      26.333  41.842  50.951  1.00  0.00     0.201 C 
HETATM   19  O   UNL     1      25.123  42.064  50.910  1.00  0.00    -0.286 OA
BRANCH  18  20
HETATM   20  C   UNL     1      26.883  40.918  49.915  1.00  0.00     0.018 A 
HETATM   21  C   UNL     1      27.641  41.473  48.857  1.00  0.00     0.018 A 
HETATM   22  C   UNL     1      28.176  40.659  47.854  1.00  0.00     0.040 A 
HETATM   23  C   UNL     1      27.928  39.307  47.930  1.00  0.00     0.105 A 
HETATM   24  C   UNL     1      27.177  38.763  48.947  1.00  0.00     0.106 A 
HETATM   25  O   UNL     1      28.364  38.368  47.049  1.00  0.00    -0.323 OA
HETATM   26  C   UNL     1      26.634  39.538  49.951  1.00  0.00     0.055 A 
HETATM   27  O   UNL     1      27.047  37.414  48.829  1.00  0.00    -0.323 OA
HETATM   28  C   UNL     1      27.794  37.171  47.620  1.00  0.00     0.352 A 
ENDBRANCH  18  20
ENDBRANCH   1  18
TORSDOF 2
ENDMDL
MODEL 4
REMARK VINA RESULT:      -9.6      4.193      9.670
REMARK  2 active torsions:
REMARK  status: ('A' for Active; 'I' for Inactive)
REMARK    1  A    between atoms: C_2  and  C_3 
REMARK    2  A    between atoms: C_3  and  C_4 
ROOT
HETATM    1  C   UNL     1      24.947  48.289  49.177  1.00  0.00     0.085 A 
HETATM    2  S   UNL     1      23.603  47.258  49.453  1.00  0.00    -0.063 SA
HETATM    3  C   UNL     1      22.493  48.488  49.081  1.00  0.00     0.111 A 
HETATM    4  C   UNL     1      23.107  49.676  48.716  1.00  0.00     0.028 A 
HETATM    5  C   UNL     1      24.538  49.539  48.745  1.00  0.00     0.060 A 
HETATM    6  N   UNL     1      25.373  50.541  48.379  1.00  0.00    -0.397 N 
HETATM    7  N   UNL     1      21.168  48.255  49.153  1.00  0.00    -0.245 NA
HETATM    8  C   UNL     1      20.377  49.304  48.833  1.00  0.00     0.042 A 
HETATM    9  C   UNL     1      20.857  50.561  48.458  1.00  0.00    -0.033 A 
HETATM   10  C   UNL     1      19.937  51.707  48.125  1.00  0.00     0.040 C 
HETATM   11  C   UNL     1      19.091  52.158  49.316  1.00  0.00     0.005 C 
HETATM   12  C   UNL     1      17.871  51.275  49.578  1.00  0.00     0.001 C 
HETATM   13  C   UNL     1      18.193  49.841  49.997  1.00  0.00     0.006 C 
HETATM   14  C   UNL     1      18.895  49.027  48.912  1.00  0.00     0.060 C 
HETATM   15  C   UNL     1      22.246  50.746  48.391  1.00  0.00     0.026 A 
HETATM   16  H   UNL     1      25.018  51.367  47.904  1.00  0.00     0.156 HD
HETATM   17  H   UNL     1      26.356  50.379  48.168  1.00  0.00     0.156 HD
ENDROOT
BRANCH   1  18
HETATM   18  C   UNL     1      26.274  47.740  49.396  1.00  0.00     0.201 C 
HETATM   19  O   UNL     1      27.282  48.149  48.822  1.00  0.00    -0.286 OA
BRANCH  18  20
HETATM   20  C   UNL     1      26.459  46.619  50.365  1.00  0.00     0.018 A 
HETATM   21  C   UNL     1      26.938  45.382  49.875  1.00  0.00     0.018 A 
HETATM   22  C   UNL     1      27.126  44.293  50.733  1.00  0.00     0.040 A 
HETATM   23  C   UNL     1      26.816  44.470  52.063  1.00  0.00     0.105 A 
HETATM   24  C   UNL     1      26.332  45.666  52.543  1.00  0.00     0.106 A 
HETATM   25  O   UNL     1      26.933  43.529  53.038  1.00  0.00    -0.323 OA
HETATM   26  C   UNL     1      26.135  46.758  51.724  1.00  0.00     0.055 A 
HETATM   27  O   UNL     1      26.083  45.623  53.880  1.00  0.00    -0.323 OA
HETATM   28  C   UNL     1      26.457  44.264  54.186  1.00  0.00     0.352 A 
ENDBRANCH  18  20
ENDBRANCH   1  18
TORSDOF 2
ENDMDL
MODEL 5
REMARK VINA RESULT:      -9.5      1.668      2.914
REMARK  2 active torsions:
REMARK  status: ('A' for Active; 'I' for Inactive)
REMARK    1  A    between atoms: C_2  and  C_3 
REMARK    2  A    between atoms: C_3  and  C_4 
ROOT
HETATM    1  C   UNL     1      25.496  45.476  51.544  1.00  0.00     0.085 A 
HETATM    2  S   UNL     1      26.341  43.983  51.532  1.00  0.00    -0.063 SA
HETATM    3  C   UNL     1      27.167  44.357  52.968  1.00  0.00     0.111 A 
HETATM    4  C   UNL     1      26.802  45.587  53.494  1.00  0.00     0.028 A 
HETATM    5  C   UNL     1      25.804  46.217  52.672  1.00  0.00     0.060 A 
HETATM    6  N   UNL     1      25.239  47.405  52.995  1.00  0.00    -0.397 N 
HETATM    7  N   UNL     1      28.066  43.496  53.482  1.00  0.00    -0.245 NA
HETATM    8  C   UNL     1      28.660  43.896  54.629  1.00  0.00     0.042 A 
HETATM    9  C   UNL     1      28.399  45.112  55.265  1.00  0.00    -0.033 A 
HETATM   10  C   UNL     1      29.098  45.523  56.534  1.00  0.00     0.040 C 
HETATM   11  C   UNL     1      30.605  45.707  56.352  1.00  0.00     0.005 C 
HETATM   12  C   UNL     1      31.394  44.398  56.359  1.00  0.00     0.001 C 
HETATM   13  C   UNL     1      31.090  43.457  55.195  1.00  0.00     0.006 C 
HETATM   14  C   UNL     1      29.661  42.918  55.197  1.00  0.00     0.060 C 
HETATM   15  C   UNL     1      27.447  45.967  54.690  1.00  0.00     0.026 A 
HETATM   16  H   UNL     1      25.372  47.812  53.917  1.00  0.00     0.156 HD
HETATM   17  H   UNL     1      24.378  47.733  52.560  1.00  0.00     0.156 HD
ENDROOT
BRANCH   1  18
HETATM   18  C   UNL     1      24.593  45.748  50.439  1.00  0.00     0.201 C 
HETATM   19  O   UNL     1      23.761  44.940  50.026  1.00  0.00    -0.286 OA
BRANCH  18  20
HETATM   20  C   UNL     1      24.649  47.069  49.746  1.00  0.00     0.018 A 
HETATM   21  C   UNL     1      25.915  47.671  49.552  1.00  0.00     0.018 A 
HETATM   22  C   UNL     1      26.029  48.911  48.915  1.00  0.00     0.040 A 
HETATM   23  C   UNL     1      24.869  49.524  48.498  1.00  0.00     0.105 A 
HETATM   24  C   UNL     1      23.634  48.952  48.700  1.00  0.00     0.106 A 
HETATM   25  O   UNL     1      24.788  50.725  47.866  1.00  0.00    -0.323 OA
HETATM   26  C   UNL     1      23.485  47.731  49.325  1.00  0.00     0.055 A 
HETATM   27  O   UNL     1      22.622  49.725  48.221  1.00  0.00    -0.323 OA
HETATM   28  C   UNL     1      23.359  50.851  47.701  1.00  0.00     0.352 A 
ENDBRANCH  18  20
ENDBRANCH   1  18
TORSDOF 2
ENDMDL
MODEL 6
REMARK VINA RESULT:      -9.2      4.427      8.348
REMARK  2 active torsions:
REMARK  status: ('A' for Active; 'I' for Inactive)
REMARK    1  A    between atoms: C_2  and  C_3 
REMARK    2  A    between atoms: C_3  and  C_4 
ROOT
HETATM    1  C   UNL     1      27.451  43.767  52.406  1.00  0.00     0.085 A 
HETATM    2  S   UNL     1      27.368  44.289  50.773  1.00  0.00    -0.063 SA
HETATM    3  C   UNL     1      27.198  42.699  50.199  1.00  0.00     0.111 A 
HETATM    4  C   UNL     1      27.169  41.759  51.218  1.00  0.00     0.028 A 
HETATM    5  C   UNL     1      27.285  42.396  52.502  1.00  0.00     0.060 A 
HETATM    6  N   UNL     1      27.230  41.705  53.666  1.00  0.00    -0.397 N 
HETATM    7  N   UNL     1      27.104  42.458  48.878  1.00  0.00    -0.245 NA
HETATM    8  C   UNL     1      26.969  41.157  48.535  1.00  0.00     0.042 A 
HETATM    9  C   UNL     1      26.934  40.104  49.452  1.00  0.00    -0.033 A 
HETATM   10  C   UNL     1      26.799  38.666  49.023  1.00  0.00     0.040 C 
HETATM   11  C   UNL     1      27.986  38.176  48.194  1.00  0.00     0.005 C 
HETATM   12  C   UNL     1      27.935  38.603  46.728  1.00  0.00     0.001 C 
HETATM   13  C   UNL     1      28.038  40.109  46.492  1.00  0.00     0.006 C 
HETATM   14  C   UNL     1      26.858  40.901  47.051  1.00  0.00     0.060 C 
HETATM   15  C   UNL     1      27.028  40.413  50.817  1.00  0.00     0.026 A 
HETATM   16  H   UNL     1      26.931  40.733  53.680  1.00  0.00     0.156 HD
HETATM   17  H   UNL     1      27.070  42.161  54.561  1.00  0.00     0.156 HD
ENDROOT
BRANCH   1  18
HETATM   18  C   UNL     1      27.648  44.781  53.427  1.00  0.00     0.201 C 
HETATM   19  O   UNL     1      26.970  45.805  53.508  1.00  0.00    -0.286 OA
BRANCH  18  20
HETATM   20  C   UNL     1      28.720  44.601  54.450  1.00  0.00     0.018 A 
HETATM   21  C   UNL     1      29.707  43.613  54.220  1.00  0.00     0.018 A 
HETATM   22  C   UNL     1      30.732  43.394  55.145  1.00  0.00     0.040 A 
HETATM   23  C   UNL     1      30.737  44.164  56.287  1.00  0.00     0.105 A 
HETATM   24  C   UNL     1      29.769  45.114  56.525  1.00  0.00     0.106 A 
HETATM   25  O   UNL     1      31.650  44.090  57.292  1.00  0.00    -0.323 OA
HETATM   26  C   UNL     1      28.745  45.355  55.633  1.00  0.00     0.055 A 
HETATM   27  O   UNL     1      29.955  45.754  57.711  1.00  0.00    -0.323 OA
HETATM   28  C   UNL     1      31.143  45.095  58.196  1.00  0.00     0.352 A 
ENDBRANCH  18  20
ENDBRANCH   1  18
TORSDOF 2
ENDMDL
MODEL 7
REMARK VINA RESULT:      -9.1      3.293      8.693
REMARK  2 active torsions:
REMARK  status: ('A' for Active; 'I' for Inactive)
REMARK    1  A    between atoms: C_2  and  C_3 
REMARK    2  A    between atoms: C_3  and  C_4 
ROOT
HETATM    1  C   UNL     1      25.843  45.298  49.792  1.00  0.00     0.085 A 
HETATM    2  S   UNL     1      24.215  44.831  49.516  1.00  0.00    -0.063 SA
HETATM    3  C   UNL     1      23.721  46.437  49.267  1.00  0.00     0.111 A 
HETATM    4  C   UNL     1      24.767  47.342  49.356  1.00  0.00     0.028 A 
HETATM    5  C   UNL     1      26.005  46.664  49.631  1.00  0.00     0.060 A 
HETATM    6  N   UNL     1      27.190  47.316  49.713  1.00  0.00    -0.397 N 
HETATM    7  N   UNL     1      22.430  46.721  49.012  1.00  0.00    -0.245 NA
HETATM    8  C   UNL     1      22.151  48.031  48.829  1.00  0.00     0.042 A 
HETATM    9  C   UNL     1      23.101  49.053  48.899  1.00  0.00    -0.033 A 
HETATM   10  C   UNL     1      22.741  50.502  48.704  1.00  0.00     0.040 C 
HETATM   11  C   UNL     1      21.792  51.031  49.779  1.00  0.00     0.005 C 
HETATM   12  C   UNL     1      20.328  50.653  49.554  1.00  0.00     0.001 C 
HETATM   13  C   UNL     1      20.030  49.157  49.637  1.00  0.00     0.006 C 
HETATM   14  C   UNL     1      20.700  48.335  48.538  1.00  0.00     0.060 C 
HETATM   15  C   UNL     1      24.433  48.699  49.160  1.00  0.00     0.026 A 
HETATM   16  H   UNL     1      27.274  48.283  49.412  1.00  0.00     0.156 HD
HETATM   17  H   UNL     1      28.083  46.828  49.666  1.00  0.00     0.156 HD
ENDROOT
BRANCH   1  18
HETATM   18  C   UNL     1      26.798  44.253  50.118  1.00  0.00     0.201 C 
HETATM   19  O   UNL     1      27.133  43.369  49.330  1.00  0.00    -0.286 OA
BRANCH  18  20
HETATM   20  C   UNL     1      27.427  44.222  51.472  1.00  0.00     0.018 A 
HETATM   21  C   UNL     1      26.800  44.940  52.518  1.00  0.00     0.018 A 
HETATM   22  C   UNL     1      27.346  44.953  53.806  1.00  0.00     0.040 A 
HETATM   23  C   UNL     1      28.514  44.254  54.010  1.00  0.00     0.105 A 
HETATM   24  C   UNL     1      29.137  43.568  52.993  1.00  0.00     0.106 A 
HETATM   25  O   UNL     1      29.185  44.155  55.189  1.00  0.00    -0.323 OA
HETATM   26  C   UNL     1      28.626  43.535  51.712  1.00  0.00     0.055 A 
HETATM   27  O   UNL     1      30.279  42.955  53.406  1.00  0.00    -0.323 OA
HETATM   28  C   UNL     1      30.308  43.338  54.797  1.00  0.00     0.352 A 
ENDBRANCH  18  20
ENDBRANCH   1  18
TORSDOF 2
ENDMDL
MODEL 8
REMARK VINA RESULT:      -9.0      4.552      6.866
REMARK  2 active torsions:
REMARK  status: ('A' for Active; 'I' for Inactive)
REMARK    1  A    between atoms: C_2  and  C_3 
REMARK    2  A    between atoms: C_3  and  C_4 
ROOT
HETATM    1  C   UNL     1      24.046  48.524  48.771  1.00  0.00     0.085 A 
HETATM    2  S   UNL     1      22.925  47.239  48.960  1.00  0.00    -0.063 SA
HETATM    3  C   UNL     1      24.095  46.226  49.658  1.00  0.00     0.111 A 
HETATM    4  C   UNL     1      25.331  46.841  49.789  1.00  0.00     0.028 A 
HETATM    5  C   UNL     1      25.282  48.191  49.298  1.00  0.00     0.060 A 
HETATM    6  N   UNL     1      26.346  49.028  49.361  1.00  0.00    -0.397 N 
HETATM    7  N   UNL     1      23.778  44.969  50.023  1.00  0.00    -0.245 NA
HETATM    8  C   UNL     1      24.787  44.253  50.571  1.00  0.00     0.042 A 
HETATM    9  C   UNL     1      26.084  44.740  50.755  1.00  0.00    -0.033 A 
HETATM   10  C   UNL     1      27.181  43.901  51.355  1.00  0.00     0.040 C 
HETATM   11  C   UNL     1      27.538  42.685  50.499  1.00  0.00     0.005 C 
HETATM   12  C   UNL     1      26.573  41.511  50.659  1.00  0.00     0.001 C 
HETATM   13  C   UNL     1      25.149  41.778  50.175  1.00  0.00     0.006 C 
HETATM   14  C   UNL     1      24.416  42.848  50.982  1.00  0.00     0.060 C 
HETATM   15  C   UNL     1      26.356  46.060  50.364  1.00  0.00     0.026 A 
HETATM   16  H   UNL     1      27.164  48.789  49.915  1.00  0.00     0.156 HD
HETATM   17  H   UNL     1      26.252  50.035  49.243  1.00  0.00     0.156 HD
ENDROOT
BRANCH   1  18
HETATM   18  C   UNL     1      23.573  49.743  48.139  1.00  0.00     0.201 C 
HETATM   19  O   UNL     1      24.191  50.335  47.254  1.00  0.00    -0.286 OA
BRANCH  18  20
HETATM   20  C   UNL     1      22.269  50.337  48.560  1.00  0.00     0.018 A 
HETATM   21  C   UNL     1      22.083  50.640  49.930  1.00  0.00     0.018 A 
HETATM   22  C   UNL     1      20.880  51.191  50.385  1.00  0.00     0.040 A 
HETATM   23  C   UNL     1      19.889  51.414  49.456  1.00  0.00     0.105 A 
HETATM   24  C   UNL     1      20.058  51.105  48.126  1.00  0.00     0.106 A 
HETATM   25  O   UNL     1      18.662  51.939  49.715  1.00  0.00    -0.323 OA
HETATM   26  C   UNL     1      21.230  50.560  47.644  1.00  0.00     0.055 A 
HETATM   27  O   UNL     1      18.956  51.396  47.383  1.00  0.00    -0.323 OA
HETATM   28  C   UNL     1      18.071  51.917  48.398  1.00  0.00     0.352 A 
ENDBRANCH  18  20
ENDBRANCH   1  18
TORSDOF 2
ENDMDL
MODEL 9
REMARK VINA RESULT:      -8.8     13.066     14.172
REMARK  2 active torsions:
REMARK  status: ('A' for Active; 'I' for Inactive)
REMARK    1  A    between atoms: C_2  and  C_3 
REMARK    2  A    between atoms: C_3  and  C_4 
ROOT
HETATM    1  C   UNL     1      32.570  50.164  42.425  1.00  0.00     0.085 A 
HETATM    2  S   UNL     1      32.659  51.422  43.589  1.00  0.00    -0.063 SA
HETATM    3  C   UNL     1      34.335  51.599  43.373  1.00  0.00     0.111 A 
HETATM    4  C   UNL     1      34.847  50.746  42.408  1.00  0.00     0.028 A 
HETATM    5  C   UNL     1      33.803  49.936  41.839  1.00  0.00     0.060 A 
HETATM    6  N   UNL     1      34.030  49.055  40.835  1.00  0.00    -0.397 N 
HETATM    7  N   UNL     1      35.024  52.500  44.099  1.00  0.00    -0.245 NA
HETATM    8  C   UNL     1      36.351  52.557  43.842  1.00  0.00     0.042 A 
HETATM    9  C   UNL     1      37.004  51.752  42.906  1.00  0.00    -0.033 A 
HETATM   10  C   UNL     1      38.488  51.839  42.665  1.00  0.00     0.040 C 
HETATM   11  C   UNL     1      39.315  51.443  43.887  1.00  0.00     0.005 C 
HETATM   12  C   UNL     1      39.437  52.547  44.937  1.00  0.00     0.001 C 
HETATM   13  C   UNL     1      38.123  52.942  45.611  1.00  0.00     0.006 C 
HETATM   14  C   UNL     1      37.110  53.575  44.659  1.00  0.00     0.060 C 
HETATM   15  C   UNL     1      36.235  50.836  42.172  1.00  0.00     0.026 A 
HETATM   16  H   UNL     1      34.912  49.060  40.328  1.00  0.00     0.156 HD
HETATM   17  H   UNL     1      33.275  48.665  40.274  1.00  0.00     0.156 HD
ENDROOT
BRANCH   1  18
HETATM   18  C   UNL     1      31.274  49.550  42.196  1.00  0.00     0.201 C 
HETATM   19  O   UNL     1      30.818  48.644  42.893  1.00  0.00    -0.286 OA
BRANCH  18  20
HETATM   20  C   UNL     1      30.423  50.020  41.062  1.00  0.00     0.018 A 
HETATM   21  C   UNL     1      29.671  49.059  40.346  1.00  0.00     0.018 A 
HETATM   22  C   UNL     1      28.860  49.439  39.271  1.00  0.00     0.040 A 
HETATM   23  C   UNL     1      28.834  50.773  38.932  1.00  0.00     0.105 A 
HETATM   24  C   UNL     1      29.577  51.709  39.614  1.00  0.00     0.106 A 
HETATM   25  O   UNL     1      28.109  51.322  37.921  1.00  0.00    -0.323 OA
HETATM   26  C   UNL     1      30.386  51.369  40.678  1.00  0.00     0.055 A 
HETATM   27  O   UNL     1      29.412  52.964  39.113  1.00  0.00    -0.323 OA
HETATM   28  C   UNL     1      28.488  52.710  38.035  1.00  0.00     0.352 A 
ENDBRANCH  18  20
ENDBRANCH   1  18
TORSDOF 2
ENDMDL
MODEL 10
REMARK VINA RESULT:      -8.7      5.177     10.750
REMARK  2 active torsions:
REMARK  status: ('A' for Active; 'I' for Inactive)
REMARK    1  A    between atoms: C_2  and  C_3 
REMARK    2  A    between atoms: C_3  and  C_4 
ROOT
HETATM    1  C   UNL     1      23.218  48.952  48.916  1.00  0.00     0.085 A 
HETATM    2  S   UNL     1      22.017  47.930  48.239  1.00  0.00    -0.063 SA
HETATM    3  C   UNL     1      20.867  49.180  48.212  1.00  0.00     0.111 A 
HETATM    4  C   UNL     1      21.370  50.384  48.679  1.00  0.00     0.028 A 
HETATM    5  C   UNL     1      22.750  50.248  49.057  1.00  0.00     0.060 A 
HETATM    6  N   UNL     1      23.492  51.293  49.495  1.00  0.00    -0.397 N 
HETATM    7  N   UNL     1      19.618  48.946  47.767  1.00  0.00    -0.245 NA
HETATM    8  C   UNL     1      18.787  50.013  47.788  1.00  0.00     0.042 A 
HETATM    9  C   UNL     1      19.153  51.283  48.240  1.00  0.00    -0.033 A 
HETATM   10  C   UNL     1      18.188  52.440  48.261  1.00  0.00     0.040 C 
HETATM   11  C   UNL     1      17.010  52.217  49.209  1.00  0.00     0.005 C 
HETATM   12  C   UNL     1      15.909  51.329  48.631  1.00  0.00     0.001 C 
HETATM   13  C   UNL     1      16.324  49.883  48.363  1.00  0.00     0.006 C 
HETATM   14  C   UNL     1      17.391  49.739  47.281  1.00  0.00     0.060 C 
HETATM   15  C   UNL     1      20.470  51.472  48.686  1.00  0.00     0.026 A 
HETATM   16  H   UNL     1      23.150  52.247  49.408  1.00  0.00     0.156 HD
HETATM   17  H   UNL     1      24.509  51.260  49.532  1.00  0.00     0.156 HD
ENDROOT
BRANCH   1  18
HETATM   18  C   UNL     1      24.512  48.364  49.216  1.00  0.00     0.201 C 
HETATM   19  O   UNL     1      25.574  48.794  48.766  1.00  0.00    -0.286 OA
BRANCH  18  20
HETATM   20  C   UNL     1      24.593  47.176  50.116  1.00  0.00     0.018 A 
HETATM   21  C   UNL     1      24.076  45.945  49.647  1.00  0.00     0.018 A 
HETATM   22  C   UNL     1      24.119  44.798  50.448  1.00  0.00     0.040 A 
HETATM   23  C   UNL     1      24.668  44.918  51.705  1.00  0.00     0.105 A 
HETATM   24  C   UNL     1      25.156  46.116  52.172  1.00  0.00     0.106 A 
HETATM   25  O   UNL     1      24.792  43.916  52.616  1.00  0.00    -0.323 OA
HETATM   26  C   UNL     1      25.130  47.265  51.409  1.00  0.00     0.055 A 
HETATM   27  O   UNL     1      25.646  46.017  53.437  1.00  0.00    -0.323 OA
HETATM   28  C   UNL     1      25.405  44.622  53.716  1.00  0.00     0.352 A 
ENDBRANCH  18  20
ENDBRANCH   1  18
TORSDOF 2
ENDMDL
