MODEL 1
REMARK VINA RESULT:      -9.2      0.000      0.000
REMARK  3 active torsions:
REMARK  status: ('A' for Active; 'I' for Inactive)
REMARK    1  A    between atoms: C_6  and  C_7 
REMARK       I    between atoms: C_7  and  N_8 
REMARK    2  A    between atoms: N_8  and  C_9 
REMARK    3  A    between atoms: N_12  and  C_13 
ROOT
HETATM    1  C   UNL     1      26.180  45.372  50.044  1.00  0.00     0.177 C 
HETATM    2  C   UNL     1      25.506  46.759  50.185  1.00  0.00     0.248 C 
HETATM    3  O   UNL     1      26.035  47.588  50.935  1.00  0.00    -0.271 OA
HETATM    4  N   UNL     1      24.365  46.970  49.391  1.00  0.00    -0.299 N 
HETATM    5  C   UNL     1      23.500  45.843  49.034  1.00  0.00     0.134 C 
HETATM    6  C   UNL     1      24.234  44.538  48.783  1.00  0.00     0.023 C 
HETATM    7  C   UNL     1      25.158  44.248  49.947  1.00  0.00     0.036 C 
ENDROOT
BRANCH   1   8
HETATM    8  N   UNL     1      27.081  45.203  51.183  1.00  0.00    -0.344 N 
HETATM    9  C   UNL     1      26.726  44.548  52.336  1.00  0.00     0.253 C 
HETATM   10  O   UNL     1      25.597  44.137  52.570  1.00  0.00    -0.268 OA
HETATM   11  H   UNL     1      28.071  45.302  50.965  1.00  0.00     0.163 HD
BRANCH   9  12
HETATM   12  C   UNL     1      27.837  44.325  53.307  1.00  0.00     0.043 A 
HETATM   13  C   UNL     1      28.044  45.214  54.385  1.00  0.00    -0.045 A 
HETATM   14  C   UNL     1      29.115  44.977  55.266  1.00  0.00     0.014 A 
HETATM   15  C   UNL     1      27.172  46.416  54.635  1.00  0.00     0.049 C 
HETATM   16  C   UNL     1      29.949  43.867  55.111  1.00  0.00    -0.061 A 
HETATM   17  C   UNL     1      31.055  43.597  56.088  1.00  0.00     0.048 C 
HETATM   18  C   UNL     1      29.703  42.971  54.065  1.00  0.00     0.014 A 
HETATM   19  C   UNL     1      28.663  43.191  53.147  1.00  0.00    -0.045 A 
HETATM   20  C   UNL     1      28.449  42.191  52.042  1.00  0.00     0.049 C 
ENDBRANCH   9  12
ENDBRANCH   1   8
BRANCH   4  21
HETATM   21  C   UNL     1      23.887  48.283  49.225  1.00  0.00     0.154 A 
HETATM   22  N   UNL     1      22.683  48.701  49.630  1.00  0.00    -0.155 NA
HETATM   23  N   UNL     1      22.618  49.990  49.275  1.00  0.00    -0.283 N 
HETATM   24  C   UNL     1      21.411  50.738  49.530  1.00  0.00     0.179 C 
HETATM   25  C   UNL     1      23.762  50.456  48.708  1.00  0.00     0.115 A 
HETATM   26  C   UNL     1      24.612  49.377  48.667  1.00  0.00     0.071 A 
ENDBRANCH   4  21
TORSDOF 3
ENDMDL
MODEL 2
REMARK VINA RESULT:      -9.2      2.537      4.596
REMARK  3 active torsions:
REMARK  status: ('A' for Active; 'I' for Inactive)
REMARK    1  A    between atoms: C_6  and  C_7 
REMARK       I    between atoms: C_7  and  N_8 
REMARK    2  A    between atoms: N_8  and  C_9 
REMARK    3  A    between atoms: N_12  and  C_13 
ROOT
HETATM    1  C   UNL     1      25.761  45.611  52.149  1.00  0.00     0.177 C 
HETATM    2  C   UNL     1      25.584  44.398  51.204  1.00  0.00     0.248 C 
HETATM    3  O   UNL     1      26.161  43.344  51.499  1.00  0.00    -0.271 OA
HETATM    4  N   UNL     1      24.725  44.593  50.109  1.00  0.00    -0.299 N 
HETATM    5  C   UNL     1      24.583  45.925  49.515  1.00  0.00     0.134 C 
HETATM    6  C   UNL     1      24.636  47.069  50.511  1.00  0.00     0.023 C 
HETATM    7  C   UNL     1      25.866  46.922  51.382  1.00  0.00     0.036 C 
ENDROOT
BRANCH   1   8
HETATM    8  N   UNL     1      26.939  45.358  52.976  1.00  0.00    -0.344 N 
HETATM    9  C   UNL     1      26.889  44.709  54.185  1.00  0.00     0.253 C 
HETATM   10  O   UNL     1      25.849  44.375  54.739  1.00  0.00    -0.268 OA
HETATM   11  H   UNL     1      27.828  45.391  52.479  1.00  0.00     0.163 HD
BRANCH   9  12
HETATM   12  C   UNL     1      28.214  44.390  54.790  1.00  0.00     0.043 A 
HETATM   13  C   UNL     1      28.838  43.145  54.547  1.00  0.00    -0.045 A 
HETATM   14  C   UNL     1      30.078  42.877  55.153  1.00  0.00     0.014 A 
HETATM   15  C   UNL     1      28.233  42.084  53.668  1.00  0.00     0.049 C 
HETATM   16  C   UNL     1      30.712  43.827  55.959  1.00  0.00    -0.061 A 
HETATM   17  C   UNL     1      32.060  43.548  56.558  1.00  0.00     0.048 C 
HETATM   18  C   UNL     1      30.102  45.071  56.155  1.00  0.00     0.014 A 
HETATM   19  C   UNL     1      28.850  45.363  55.591  1.00  0.00    -0.045 A 
HETATM   20  C   UNL     1      28.244  46.719  55.838  1.00  0.00     0.049 C 
ENDBRANCH   9  12
ENDBRANCH   1   8
BRANCH   4  21
HETATM   21  C   UNL     1      24.271  43.469  49.394  1.00  0.00     0.154 A 
HETATM   22  N   UNL     1      24.973  42.854  48.436  1.00  0.00    -0.155 NA
HETATM   23  N   UNL     1      24.190  41.857  48.007  1.00  0.00    -0.283 N 
HETATM   24  C   UNL     1      24.640  41.014  46.926  1.00  0.00     0.179 C 
HETATM   25  C   UNL     1      23.022  41.751  48.692  1.00  0.00     0.115 A 
HETATM   26  C   UNL     1      23.043  42.777  49.607  1.00  0.00     0.071 A 
ENDBRANCH   4  21
TORSDOF 3
ENDMDL
MODEL 3
REMARK VINA RESULT:      -9.1      2.582      4.365
REMARK  3 active torsions:
REMARK  status: ('A' for Active; 'I' for Inactive)
REMARK    1  A    between atoms: C_6  and  C_7 
REMARK       I    between atoms: C_7  and  N_8 
REMARK    2  A    between atoms: N_8  and  C_9 
REMARK    3  A    between atoms: N_12  and  C_13 
ROOT
HETATM    1  C   UNL     1      25.707  45.502  52.016  1.00  0.00     0.177 C 
HETATM    2  C   UNL     1      25.567  44.262  51.098  1.00  0.00     0.248 C 
HETATM    3  O   UNL     1      26.169  43.231  51.421  1.00  0.00    -0.271 OA
HETATM    4  N   UNL     1      24.710  44.410  49.994  1.00  0.00    -0.299 N 
HETATM    5  C   UNL     1      24.538  45.723  49.368  1.00  0.00     0.134 C 
HETATM    6  C   UNL     1      24.556  46.892  50.337  1.00  0.00     0.023 C 
HETATM    7  C   UNL     1      25.783  46.797  51.218  1.00  0.00     0.036 C 
ENDROOT
BRANCH   1   8
HETATM    8  N   UNL     1      26.886  45.299  52.855  1.00  0.00    -0.344 N 
HETATM    9  C   UNL     1      26.841  44.698  54.089  1.00  0.00     0.253 C 
HETATM   10  O   UNL     1      25.804  44.371  54.653  1.00  0.00    -0.268 OA
HETATM   11  H   UNL     1      27.776  45.324  52.359  1.00  0.00     0.163 HD
BRANCH   9  12
HETATM   12  C   UNL     1      28.168  44.421  54.710  1.00  0.00     0.043 A 
HETATM   13  C   UNL     1      28.802  45.389  55.522  1.00  0.00    -0.045 A 
HETATM   14  C   UNL     1      30.062  45.095  56.072  1.00  0.00     0.014 A 
HETATM   15  C   UNL     1      28.191  46.731  55.824  1.00  0.00     0.049 C 
HETATM   16  C   UNL     1      30.678  43.859  55.856  1.00  0.00    -0.061 A 
HETATM   17  C   UNL     1      31.999  43.538  56.492  1.00  0.00     0.048 C 
HETATM   18  C   UNL     1      30.018  42.895  55.087  1.00  0.00     0.014 A 
HETATM   19  C   UNL     1      28.772  43.163  54.495  1.00  0.00    -0.045 A 
HETATM   20  C   UNL     1      28.113  42.086  53.677  1.00  0.00     0.049 C 
ENDBRANCH   9  12
ENDBRANCH   1   8
BRANCH   4  21
HETATM   21  C   UNL     1      24.290  43.258  49.303  1.00  0.00     0.154 A 
HETATM   22  N   UNL     1      25.078  42.532  48.504  1.00  0.00    -0.155 NA
HETATM   23  N   UNL     1      24.300  41.547  48.038  1.00  0.00    -0.283 N 
HETATM   24  C   UNL     1      24.842  40.597  47.097  1.00  0.00     0.179 C 
HETATM   25  C   UNL     1      23.043  41.559  48.553  1.00  0.00     0.115 A 
HETATM   26  C   UNL     1      23.002  42.652  49.385  1.00  0.00     0.071 A 
ENDBRANCH   4  21
TORSDOF 3
ENDMDL
MODEL 4
REMARK VINA RESULT:      -8.5      3.030      4.912
REMARK  3 active torsions:
REMARK  status: ('A' for Active; 'I' for Inactive)
REMARK    1  A    between atoms: C_6  and  C_7 
REMARK       I    between atoms: C_7  and  N_8 
REMARK    2  A    between atoms: N_8  and  C_9 
REMARK    3  A    between atoms: N_12  and  C_13 
ROOT
HETATM    1  C   UNL     1      24.810  43.838  51.493  1.00  0.00     0.177 C 
HETATM    2  C   UNL     1      24.800  42.703  50.439  1.00  0.00     0.248 C 
HETATM    3  O   UNL     1      25.452  41.680  50.683  1.00  0.00    -0.271 OA
HETATM    4  N   UNL     1      23.993  42.921  49.310  1.00  0.00    -0.299 N 
HETATM    5  C   UNL     1      23.766  44.283  48.822  1.00  0.00     0.134 C 
HETATM    6  C   UNL     1      23.656  45.335  49.911  1.00  0.00     0.023 C 
HETATM    7  C   UNL     1      24.841  45.216  50.847  1.00  0.00     0.036 C 
ENDROOT
BRANCH   1   8
HETATM    8  N   UNL     1      25.955  43.613  52.372  1.00  0.00    -0.344 N 
HETATM    9  C   UNL     1      27.232  44.016  52.067  1.00  0.00     0.253 C 
HETATM   10  O   UNL     1      27.557  44.504  50.991  1.00  0.00    -0.268 OA
HETATM   11  H   UNL     1      25.721  43.440  53.348  1.00  0.00     0.163 HD
BRANCH   9  12
HETATM   12  C   UNL     1      28.229  43.857  53.165  1.00  0.00     0.043 A 
HETATM   13  C   UNL     1      28.337  44.825  54.189  1.00  0.00    -0.045 A 
HETATM   14  C   UNL     1      29.303  44.646  55.195  1.00  0.00     0.014 A 
HETATM   15  C   UNL     1      27.465  46.051  54.251  1.00  0.00     0.049 C 
HETATM   16  C   UNL     1      30.128  43.518  55.216  1.00  0.00    -0.061 A 
HETATM   17  C   UNL     1      31.119  43.313  56.324  1.00  0.00     0.048 C 
HETATM   18  C   UNL     1      29.978  42.546  54.220  1.00  0.00     0.014 A 
HETATM   19  C   UNL     1      29.046  42.706  53.182  1.00  0.00    -0.045 A 
HETATM   20  C   UNL     1      28.933  41.626  52.140  1.00  0.00     0.049 C 
ENDBRANCH   9  12
ENDBRANCH   1   8
BRANCH   4  21
HETATM   21  C   UNL     1      23.686  41.831  48.474  1.00  0.00     0.154 A 
HETATM   22  N   UNL     1      22.474  41.275  48.379  1.00  0.00    -0.155 NA
HETATM   23  N   UNL     1      22.611  40.274  47.501  1.00  0.00    -0.283 N 
HETATM   24  C   UNL     1      21.479  39.430  47.202  1.00  0.00     0.179 C 
HETATM   25  C   UNL     1      23.855  40.191  46.963  1.00  0.00     0.115 A 
HETATM   26  C   UNL     1      24.579  41.192  47.565  1.00  0.00     0.071 A 
ENDBRANCH   4  21
TORSDOF 3
ENDMDL
MODEL 5
REMARK VINA RESULT:      -8.5      4.289      6.858
REMARK  3 active torsions:
REMARK  status: ('A' for Active; 'I' for Inactive)
REMARK    1  A    between atoms: C_6  and  C_7 
REMARK       I    between atoms: C_7  and  N_8 
REMARK    2  A    between atoms: N_8  and  C_9 
REMARK    3  A    between atoms: N_12  and  C_13 
ROOT
HETATM    1  C   UNL     1      26.043  42.074  51.478  1.00  0.00     0.177 C 
HETATM    2  C   UNL     1      26.859  40.929  50.827  1.00  0.00     0.248 C 
HETATM    3  O   UNL     1      27.808  40.458  51.465  1.00  0.00    -0.271 OA
HETATM    4  N   UNL     1      26.402  40.487  49.574  1.00  0.00    -0.299 N 
HETATM    5  C   UNL     1      25.723  41.418  48.669  1.00  0.00     0.134 C 
HETATM    6  C   UNL     1      24.836  42.437  49.361  1.00  0.00     0.023 C 
HETATM    7  C   UNL     1      25.619  43.123  50.460  1.00  0.00     0.036 C 
ENDROOT
BRANCH   1   8
HETATM    8  N   UNL     1      26.859  42.641  52.550  1.00  0.00    -0.344 N 
HETATM    9  C   UNL     1      27.739  43.678  52.361  1.00  0.00     0.253 C 
HETATM   10  O   UNL     1      28.007  44.157  51.267  1.00  0.00    -0.268 OA
HETATM   11  H   UNL     1      26.518  42.459  53.493  1.00  0.00     0.163 HD
BRANCH   9  12
HETATM   12  C   UNL     1      28.344  44.233  53.607  1.00  0.00     0.043 A 
HETATM   13  C   UNL     1      27.696  45.259  54.331  1.00  0.00    -0.045 A 
HETATM   14  C   UNL     1      28.311  45.766  55.489  1.00  0.00     0.014 A 
HETATM   15  C   UNL     1      26.372  45.842  53.915  1.00  0.00     0.049 C 
HETATM   16  C   UNL     1      29.527  45.254  55.949  1.00  0.00    -0.061 A 
HETATM   17  C   UNL     1      30.146  45.769  57.215  1.00  0.00     0.048 C 
HETATM   18  C   UNL     1      30.135  44.208  55.246  1.00  0.00     0.014 A 
HETATM   19  C   UNL     1      29.566  43.696  54.068  1.00  0.00    -0.045 A 
HETATM   20  C   UNL     1      30.268  42.571  53.356  1.00  0.00     0.049 C 
ENDBRANCH   9  12
ENDBRANCH   1   8
BRANCH   4  21
HETATM   21  C   UNL     1      26.884  39.265  49.069  1.00  0.00     0.154 A 
HETATM   22  N   UNL     1      27.757  39.161  48.061  1.00  0.00    -0.155 NA
HETATM   23  N   UNL     1      27.939  37.847  47.884  1.00  0.00    -0.283 N 
HETATM   24  C   UNL     1      28.804  37.385  46.826  1.00  0.00     0.179 C 
HETATM   25  C   UNL     1      27.268  37.080  48.783  1.00  0.00     0.115 A 
HETATM   26  C   UNL     1      26.578  37.967  49.573  1.00  0.00     0.071 A 
ENDBRANCH   4  21
TORSDOF 3
ENDMDL
MODEL 6
REMARK VINA RESULT:      -8.4      2.145      3.957
REMARK  3 active torsions:
REMARK  status: ('A' for Active; 'I' for Inactive)
REMARK    1  A    between atoms: C_6  and  C_7 
REMARK       I    between atoms: C_7  and  N_8 
REMARK    2  A    between atoms: N_8  and  C_9 
REMARK    3  A    between atoms: N_12  and  C_13 
ROOT
HETATM    1  C   UNL     1      26.537  47.698  49.915  1.00  0.00     0.177 C 
HETATM    2  C   UNL     1      25.101  48.052  49.454  1.00  0.00     0.248 C 
HETATM    3  O   UNL     1      24.222  47.192  49.584  1.00  0.00    -0.271 OA
HETATM    4  N   UNL     1      24.916  49.360  48.975  1.00  0.00    -0.299 N 
HETATM    5  C   UNL     1      26.019  50.063  48.315  1.00  0.00     0.134 C 
HETATM    6  C   UNL     1      27.391  49.773  48.896  1.00  0.00     0.023 C 
HETATM    7  C   UNL     1      27.594  48.275  48.984  1.00  0.00     0.036 C 
ENDROOT
BRANCH   1   8
HETATM    8  N   UNL     1      26.621  46.242  50.013  1.00  0.00    -0.344 N 
HETATM    9  C   UNL     1      26.281  45.540  51.143  1.00  0.00     0.253 C 
HETATM   10  O   UNL     1      25.978  46.063  52.208  1.00  0.00    -0.268 OA
HETATM   11  H   UNL     1      26.631  45.751  49.120  1.00  0.00     0.163 HD
BRANCH   9  12
HETATM   12  C   UNL     1      26.265  44.056  50.989  1.00  0.00     0.043 A 
HETATM   13  C   UNL     1      27.365  43.274  51.407  1.00  0.00    -0.045 A 
HETATM   14  C   UNL     1      27.316  41.881  51.225  1.00  0.00     0.014 A 
HETATM   15  C   UNL     1      28.598  43.865  52.036  1.00  0.00     0.049 C 
HETATM   16  C   UNL     1      26.193  41.260  50.672  1.00  0.00    -0.061 A 
HETATM   17  C   UNL     1      26.132  39.767  50.531  1.00  0.00     0.048 C 
HETATM   18  C   UNL     1      25.093  42.044  50.304  1.00  0.00     0.014 A 
HETATM   19  C   UNL     1      25.118  43.441  50.442  1.00  0.00    -0.045 A 
HETATM   20  C   UNL     1      23.904  44.230  50.028  1.00  0.00     0.049 C 
ENDBRANCH   9  12
ENDBRANCH   1   8
BRANCH   4  21
HETATM   21  C   UNL     1      23.605  49.852  48.836  1.00  0.00     0.154 A 
HETATM   22  N   UNL     1      22.813  50.182  49.862  1.00  0.00    -0.155 NA
HETATM   23  N   UNL     1      21.664  50.585  49.307  1.00  0.00    -0.283 N 
HETATM   24  C   UNL     1      20.563  50.973  50.155  1.00  0.00     0.179 C 
HETATM   25  C   UNL     1      21.691  50.596  47.949  1.00  0.00     0.115 A 
HETATM   26  C   UNL     1      22.939  50.134  47.607  1.00  0.00     0.071 A 
ENDBRANCH   4  21
TORSDOF 3
ENDMDL
MODEL 7
REMARK VINA RESULT:      -8.4      2.648      4.623
REMARK  3 active torsions:
REMARK  status: ('A' for Active; 'I' for Inactive)
REMARK    1  A    between atoms: C_6  and  C_7 
REMARK       I    between atoms: C_7  and  N_8 
REMARK    2  A    between atoms: N_8  and  C_9 
REMARK    3  A    between atoms: N_12  and  C_13 
ROOT
HETATM    1  C   UNL     1      26.243  44.523  51.635  1.00  0.00     0.177 C 
HETATM    2  C   UNL     1      26.563  45.641  50.611  1.00  0.00     0.248 C 
HETATM    3  O   UNL     1      27.056  45.310  49.526  1.00  0.00    -0.271 OA
HETATM    4  N   UNL     1      26.205  46.944  50.995  1.00  0.00    -0.299 N 
HETATM    5  C   UNL     1      26.207  47.320  52.411  1.00  0.00     0.134 C 
HETATM    6  C   UNL     1      25.761  46.219  53.357  1.00  0.00     0.023 C 
HETATM    7  C   UNL     1      26.542  44.955  53.064  1.00  0.00     0.036 C 
ENDROOT
BRANCH   1   8
HETATM    8  N   UNL     1      27.005  43.338  51.245  1.00  0.00    -0.344 N 
HETATM    9  C   UNL     1      26.423  42.132  50.941  1.00  0.00     0.253 C 
HETATM   10  O   UNL     1      25.227  41.899  51.068  1.00  0.00    -0.268 OA
HETATM   11  H   UNL     1      27.944  43.526  50.897  1.00  0.00     0.163 HD
BRANCH   9  12
HETATM   12  C   UNL     1      27.349  41.099  50.395  1.00  0.00     0.043 A 
HETATM   13  C   UNL     1      27.345  40.779  49.018  1.00  0.00    -0.045 A 
HETATM   14  C   UNL     1      28.221  39.785  48.549  1.00  0.00     0.014 A 
HETATM   15  C   UNL     1      26.436  41.452  48.025  1.00  0.00     0.049 C 
HETATM   16  C   UNL     1      29.112  39.137  49.409  1.00  0.00    -0.061 A 
HETATM   17  C   UNL     1      30.078  38.115  48.886  1.00  0.00     0.048 C 
HETATM   18  C   UNL     1      29.135  39.496  50.761  1.00  0.00     0.014 A 
HETATM   19  C   UNL     1      28.254  40.462  51.273  1.00  0.00    -0.045 A 
HETATM   20  C   UNL     1      28.327  40.805  52.737  1.00  0.00     0.049 C 
ENDBRANCH   9  12
ENDBRANCH   1   8
BRANCH   4  21
HETATM   21  C   UNL     1      26.172  47.955  50.016  1.00  0.00     0.154 A 
HETATM   22  N   UNL     1      25.050  48.512  49.550  1.00  0.00    -0.155 NA
HETATM   23  N   UNL     1      25.450  49.404  48.635  1.00  0.00    -0.283 N 
HETATM   24  C   UNL     1      24.466  50.159  47.899  1.00  0.00     0.179 C 
HETATM   25  C   UNL     1      26.801  49.503  48.529  1.00  0.00     0.115 A 
HETATM   26  C   UNL     1      27.304  48.582  49.416  1.00  0.00     0.071 A 
ENDBRANCH   4  21
TORSDOF 3
ENDMDL
MODEL 8
REMARK VINA RESULT:      -8.4      4.175      6.486
REMARK  3 active torsions:
REMARK  status: ('A' for Active; 'I' for Inactive)
REMARK    1  A    between atoms: C_6  and  C_7 
REMARK       I    between atoms: C_7  and  N_8 
REMARK    2  A    between atoms: N_8  and  C_9 
REMARK    3  A    between atoms: N_12  and  C_13 
ROOT
HETATM    1  C   UNL     1      25.985  42.423  51.662  1.00  0.00     0.177 C 
HETATM    2  C   UNL     1      26.856  41.571  50.707  1.00  0.00     0.248 C 
HETATM    3  O   UNL     1      27.936  41.145  51.132  1.00  0.00    -0.271 OA
HETATM    4  N   UNL     1      26.303  41.310  49.441  1.00  0.00    -0.299 N 
HETATM    5  C   UNL     1      25.390  42.276  48.825  1.00  0.00     0.134 C 
HETATM    6  C   UNL     1      24.471  42.988  49.801  1.00  0.00     0.023 C 
HETATM    7  C   UNL     1      25.291  43.567  50.935  1.00  0.00     0.036 C 
ENDROOT
BRANCH   1   8
HETATM    8  N   UNL     1      26.849  42.898  52.741  1.00  0.00    -0.344 N 
HETATM    9  C   UNL     1      27.749  43.924  52.592  1.00  0.00     0.253 C 
HETATM   10  O   UNL     1      27.993  44.470  51.523  1.00  0.00    -0.268 OA
HETATM   11  H   UNL     1      26.534  42.660  53.681  1.00  0.00     0.163 HD
BRANCH   9  12
HETATM   12  C   UNL     1      28.408  44.379  53.851  1.00  0.00     0.043 A 
HETATM   13  C   UNL     1      29.593  43.761  54.310  1.00  0.00    -0.045 A 
HETATM   14  C   UNL     1      30.171  44.208  55.511  1.00  0.00     0.014 A 
HETATM   15  C   UNL     1      30.269  42.636  53.572  1.00  0.00     0.049 C 
HETATM   16  C   UNL     1      29.614  45.266  56.235  1.00  0.00    -0.061 A 
HETATM   17  C   UNL     1      30.270  45.767  57.488  1.00  0.00     0.048 C 
HETATM   18  C   UNL     1      28.465  45.897  55.744  1.00  0.00     0.014 A 
HETATM   19  C   UNL     1      27.843  45.458  54.564  1.00  0.00    -0.045 A 
HETATM   20  C   UNL     1      26.609  46.177  54.088  1.00  0.00     0.049 C 
ENDBRANCH   9  12
ENDBRANCH   1   8
BRANCH   4  21
HETATM   21  C   UNL     1      26.877  40.302  48.645  1.00  0.00     0.154 A 
HETATM   22  N   UNL     1      26.534  39.011  48.705  1.00  0.00    -0.155 NA
HETATM   23  N   UNL     1      27.315  38.395  47.809  1.00  0.00    -0.283 N 
HETATM   24  C   UNL     1      27.227  36.963  47.654  1.00  0.00     0.179 C 
HETATM   25  C   UNL     1      28.116  39.243  47.112  1.00  0.00     0.115 A 
HETATM   26  C   UNL     1      27.853  40.492  47.623  1.00  0.00     0.071 A 
ENDBRANCH   4  21
TORSDOF 3
ENDMDL
MODEL 9
REMARK VINA RESULT:      -8.3      2.670      7.842
REMARK  3 active torsions:
REMARK  status: ('A' for Active; 'I' for Inactive)
REMARK    1  A    between atoms: C_6  and  C_7 
REMARK       I    between atoms: C_7  and  N_8 
REMARK    2  A    between atoms: N_8  and  C_9 
REMARK    3  A    between atoms: N_12  and  C_13 
ROOT
HETATM    1  C   UNL     1      27.033  42.911  52.202  1.00  0.00     0.177 C 
HETATM    2  C   UNL     1      27.954  43.750  53.122  1.00  0.00     0.248 C 
HETATM    3  O   UNL     1      27.683  44.946  53.279  1.00  0.00    -0.271 OA
HETATM    4  N   UNL     1      28.998  43.048  53.749  1.00  0.00    -0.299 N 
HETATM    5  C   UNL     1      29.596  41.882  53.095  1.00  0.00     0.134 C 
HETATM    6  C   UNL     1      28.617  41.026  52.311  1.00  0.00     0.023 C 
HETATM    7  C   UNL     1      27.819  41.905  51.372  1.00  0.00     0.036 C 
ENDROOT
BRANCH   1   8
HETATM    8  N   UNL     1      26.276  43.843  51.369  1.00  0.00    -0.344 N 
HETATM    9  C   UNL     1      25.079  44.397  51.753  1.00  0.00     0.253 C 
HETATM   10  O   UNL     1      24.478  44.088  52.774  1.00  0.00    -0.268 OA
HETATM   11  H   UNL     1      26.818  44.311  50.645  1.00  0.00     0.163 HD
BRANCH   9  12
HETATM   12  C   UNL     1      24.551  45.458  50.847  1.00  0.00     0.043 A 
HETATM   13  C   UNL     1      23.652  45.137  49.805  1.00  0.00    -0.045 A 
HETATM   14  C   UNL     1      23.194  46.165  48.962  1.00  0.00     0.014 A 
HETATM   15  C   UNL     1      23.163  43.737  49.548  1.00  0.00     0.049 C 
HETATM   16  C   UNL     1      23.585  47.492  49.157  1.00  0.00    -0.061 A 
HETATM   17  C   UNL     1      23.048  48.587  48.283  1.00  0.00     0.048 C 
HETATM   18  C   UNL     1      24.440  47.801  50.221  1.00  0.00     0.014 A 
HETATM   19  C   UNL     1      24.943  46.797  51.065  1.00  0.00    -0.045 A 
HETATM   20  C   UNL     1      25.860  47.191  52.191  1.00  0.00     0.049 C 
ENDBRANCH   9  12
ENDBRANCH   1   8
BRANCH   4  21
HETATM   21  C   UNL     1      29.674  43.655  54.824  1.00  0.00     0.154 A 
HETATM   22  N   UNL     1      29.205  44.702  55.511  1.00  0.00    -0.155 NA
HETATM   23  N   UNL     1      30.144  44.976  56.425  1.00  0.00    -0.283 N 
HETATM   24  C   UNL     1      29.966  46.098  57.314  1.00  0.00     0.179 C 
HETATM   25  C   UNL     1      31.186  44.104  56.410  1.00  0.00     0.115 A 
HETATM   26  C   UNL     1      30.912  43.227  55.388  1.00  0.00     0.071 A 
ENDBRANCH   4  21
TORSDOF 3
ENDMDL
MODEL 10
REMARK VINA RESULT:      -8.3      2.706      7.750
REMARK  3 active torsions:
REMARK  status: ('A' for Active; 'I' for Inactive)
REMARK    1  A    between atoms: C_6  and  C_7 
REMARK       I    between atoms: C_7  and  N_8 
REMARK    2  A    between atoms: N_8  and  C_9 
REMARK    3  A    between atoms: N_12  and  C_13 
ROOT
HETATM    1  C   UNL     1      27.169  42.912  52.354  1.00  0.00     0.177 C 
HETATM    2  C   UNL     1      28.081  43.751  53.282  1.00  0.00     0.248 C 
HETATM    3  O   UNL     1      27.808  44.947  53.438  1.00  0.00    -0.271 OA
HETATM    4  N   UNL     1      29.122  43.050  53.916  1.00  0.00    -0.299 N 
HETATM    5  C   UNL     1      29.726  41.886  53.264  1.00  0.00     0.134 C 
HETATM    6  C   UNL     1      28.754  41.029  52.473  1.00  0.00     0.023 C 
HETATM    7  C   UNL     1      27.962  41.908  51.528  1.00  0.00     0.036 C 
ENDROOT
BRANCH   1   8
HETATM    8  N   UNL     1      26.416  43.844  51.517  1.00  0.00    -0.344 N 
HETATM    9  C   UNL     1      25.183  44.341  51.860  1.00  0.00     0.253 C 
HETATM   10  O   UNL     1      24.547  43.975  52.841  1.00  0.00    -0.268 OA
HETATM   11  H   UNL     1      26.973  44.356  50.835  1.00  0.00     0.163 HD
BRANCH   9  12
HETATM   12  C   UNL     1      24.657  45.413  50.966  1.00  0.00     0.043 A 
HETATM   13  C   UNL     1      25.018  46.764  51.168  1.00  0.00    -0.045 A 
HETATM   14  C   UNL     1      24.485  47.745  50.313  1.00  0.00     0.014 A 
HETATM   15  C   UNL     1      25.948  47.208  52.265  1.00  0.00     0.049 C 
HETATM   16  C   UNL     1      23.637  47.403  49.256  1.00  0.00    -0.061 A 
HETATM   17  C   UNL     1      23.117  48.454  48.319  1.00  0.00     0.048 C 
HETATM   18  C   UNL     1      23.325  46.056  49.041  1.00  0.00     0.014 A 
HETATM   19  C   UNL     1      23.813  45.052  49.893  1.00  0.00    -0.045 A 
HETATM   20  C   UNL     1      23.441  43.621  49.611  1.00  0.00     0.049 C 
ENDBRANCH   9  12
ENDBRANCH   1   8
BRANCH   4  21
HETATM   21  C   UNL     1      29.788  43.657  54.997  1.00  0.00     0.154 A 
HETATM   22  N   UNL     1      29.310  44.698  55.685  1.00  0.00    -0.155 NA
HETATM   23  N   UNL     1      30.243  44.973  56.605  1.00  0.00    -0.283 N 
HETATM   24  C   UNL     1      30.054  46.091  57.498  1.00  0.00     0.179 C 
HETATM   25  C   UNL     1      31.291  44.109  56.591  1.00  0.00     0.115 A 
HETATM   26  C   UNL     1      31.026  43.234  55.564  1.00  0.00     0.071 A 
ENDBRANCH   4  21
TORSDOF 3
ENDMDL
