MODEL 1
REMARK VINA RESULT:      -8.0      0.000      0.000
REMARK  6 active torsions:
REMARK  status: ('A' for Active; 'I' for Inactive)
REMARK    1  A    between atoms: C_2  and  C_3 
REMARK    2  A    between atoms: C_3  and  N_4 
REMARK    3  A    between atoms: C_3  and  C_15 
REMARK       I    between atoms: N_4  and  C_5 
REMARK       I    between atoms: C_5  and  N_6 
REMARK    4  A    between atoms: N_6  and  C_7 
REMARK    5  A    between atoms: C_16  and  O_17 
REMARK    6  A    between atoms: O_17  and  C_18 
ROOT
HETATM    1  N   UNL     1      26.705  45.393  51.512  1.00  0.00    -0.334 N 
HETATM    2  C   UNL     1      26.261  45.983  50.353  1.00  0.00     0.321 C 
HETATM    3  N   UNL     1      26.018  47.322  50.556  1.00  0.00    -0.307 N 
HETATM    4  O   UNL     1      26.162  45.381  49.293  1.00  0.00    -0.247 OA
HETATM    5  H   UNL     1      26.385  45.776  52.390  1.00  0.00     0.165 HD
HETATM    6  H   UNL     1      26.439  47.696  51.392  1.00  0.00     0.170 HD
ENDROOT
BRANCH   1   7
HETATM    7  C   UNL     1      27.142  44.008  51.567  1.00  0.00     0.122 C 
BRANCH   7   8
HETATM    8  C   UNL     1      25.984  42.990  51.636  1.00  0.00     0.026 C 
HETATM    9  C   UNL     1      26.083  41.806  50.685  1.00  0.00     0.007 C 
ENDBRANCH   7   8
BRANCH   7  10
HETATM   10  C   UNL     1      28.195  43.798  52.651  1.00  0.00    -0.002 A 
HETATM   11  C   UNL     1      28.122  44.368  53.940  1.00  0.00     0.077 A 
HETATM   12  C   UNL     1      29.150  44.135  54.864  1.00  0.00     0.037 A 
HETATM   13  C   UNL     1      30.236  43.325  54.530  1.00  0.00     0.003 A 
HETATM   14  C   UNL     1      30.309  42.742  53.271  1.00  0.00     0.001 A 
HETATM   15  C   UNL     1      29.297  42.976  52.340  1.00  0.00     0.012 A 
BRANCH  11  16
HETATM   16  O   UNL     1      27.038  45.170  54.208  1.00  0.00    -0.351 OA
BRANCH  16  17
HETATM   17  C   UNL     1      27.297  46.378  54.927  1.00  0.00     0.171 C 
HETATM   18  C   UNL     1      26.386  47.458  54.373  1.00  0.00     0.034 C 
ENDBRANCH  16  17
ENDBRANCH  11  16
ENDBRANCH   7  10
ENDBRANCH   1   7
BRANCH   3  19
HETATM   19  C   UNL     1      25.502  48.241  49.615  1.00  0.00     0.059 A 
HETATM   20  C   UNL     1      26.381  49.106  48.937  1.00  0.00    -0.032 A 
HETATM   21  C   UNL     1      27.869  49.070  49.142  1.00  0.00     0.050 C 
HETATM   22  C   UNL     1      25.849  50.022  48.017  1.00  0.00     0.028 A 
HETATM   23  C   UNL     1      24.480  50.053  47.811  1.00  0.00     0.117 A 
HETATM   24  N   UNL     1      23.612  49.247  48.448  1.00  0.00    -0.271 NA
HETATM   25  C   UNL     1      24.140  48.359  49.329  1.00  0.00     0.146 A 
ENDBRANCH   3  19
TORSDOF 6
ENDMDL
MODEL 2
REMARK VINA RESULT:      -8.0      2.361      3.285
REMARK  6 active torsions:
REMARK  status: ('A' for Active; 'I' for Inactive)
REMARK    1  A    between atoms: C_2  and  C_3 
REMARK    2  A    between atoms: C_3  and  N_4 
REMARK    3  A    between atoms: C_3  and  C_15 
REMARK       I    between atoms: N_4  and  C_5 
REMARK       I    between atoms: C_5  and  N_6 
REMARK    4  A    between atoms: N_6  and  C_7 
REMARK    5  A    between atoms: C_16  and  O_17 
REMARK    6  A    between atoms: O_17  and  C_18 
ROOT
HETATM    1  N   UNL     1      27.811  43.964  53.301  1.00  0.00    -0.334 N 
HETATM    2  C   UNL     1      27.249  44.254  52.082  1.00  0.00     0.321 C 
HETATM    3  N   UNL     1      25.942  44.654  52.236  1.00  0.00    -0.307 N 
HETATM    4  O   UNL     1      27.873  44.207  51.031  1.00  0.00    -0.247 OA
HETATM    5  H   UNL     1      27.204  43.619  54.031  1.00  0.00     0.165 HD
HETATM    6  H   UNL     1      25.699  44.920  53.177  1.00  0.00     0.170 HD
ENDROOT
BRANCH   1   7
HETATM    7  C   UNL     1      29.214  43.618  53.453  1.00  0.00     0.122 C 
BRANCH   7   8
HETATM    8  C   UNL     1      29.537  42.149  53.109  1.00  0.00     0.026 C 
HETATM    9  C   UNL     1      28.420  41.146  53.361  1.00  0.00     0.007 C 
ENDBRANCH   7   8
BRANCH   7  10
HETATM   10  C   UNL     1      29.751  44.051  54.815  1.00  0.00    -0.002 A 
HETATM   11  C   UNL     1      29.387  45.253  55.458  1.00  0.00     0.077 A 
HETATM   12  C   UNL     1      29.950  45.577  56.700  1.00  0.00     0.037 A 
HETATM   13  C   UNL     1      30.849  44.708  57.321  1.00  0.00     0.003 A 
HETATM   14  C   UNL     1      31.198  43.511  56.707  1.00  0.00     0.001 A 
HETATM   15  C   UNL     1      30.653  43.186  55.466  1.00  0.00     0.012 A 
BRANCH  11  16
HETATM   16  O   UNL     1      28.511  46.077  54.792  1.00  0.00    -0.351 OA
BRANCH  16  17
HETATM   17  C   UNL     1      27.758  46.992  55.592  1.00  0.00     0.171 C 
HETATM   18  C   UNL     1      26.595  47.498  54.759  1.00  0.00     0.034 C 
ENDBRANCH  16  17
ENDBRANCH  11  16
ENDBRANCH   7  10
ENDBRANCH   1   7
BRANCH   3  19
HETATM   19  C   UNL     1      25.029  44.981  51.208  1.00  0.00     0.059 A 
HETATM   20  C   UNL     1      25.019  46.284  50.679  1.00  0.00    -0.032 A 
HETATM   21  C   UNL     1      25.976  47.350  51.135  1.00  0.00     0.050 C 
HETATM   22  C   UNL     1      24.097  46.595  49.669  1.00  0.00     0.028 A 
HETATM   23  C   UNL     1      23.220  45.615  49.231  1.00  0.00     0.117 A 
HETATM   24  N   UNL     1      23.197  44.364  49.722  1.00  0.00    -0.271 NA
HETATM   25  C   UNL     1      24.101  44.073  50.693  1.00  0.00     0.146 A 
ENDBRANCH   3  19
TORSDOF 6
ENDMDL
MODEL 3
REMARK VINA RESULT:      -7.3      3.283      4.860
REMARK  6 active torsions:
REMARK  status: ('A' for Active; 'I' for Inactive)
REMARK    1  A    between atoms: C_2  and  C_3 
REMARK    2  A    between atoms: C_3  and  N_4 
REMARK    3  A    between atoms: C_3  and  C_15 
REMARK       I    between atoms: N_4  and  C_5 
REMARK       I    between atoms: C_5  and  N_6 
REMARK    4  A    between atoms: N_6  and  C_7 
REMARK    5  A    between atoms: C_16  and  O_17 
REMARK    6  A    between atoms: O_17  and  C_18 
ROOT
HETATM    1  N   UNL     1      26.749  44.935  52.929  1.00  0.00    -0.334 N 
HETATM    2  C   UNL     1      25.570  44.441  52.426  1.00  0.00     0.321 C 
HETATM    3  N   UNL     1      25.669  44.246  51.068  1.00  0.00    -0.307 N 
HETATM    4  O   UNL     1      24.607  44.169  53.129  1.00  0.00    -0.247 OA
HETATM    5  H   UNL     1      27.318  45.508  52.323  1.00  0.00     0.165 HD
HETATM    6  H   UNL     1      26.615  44.235  50.719  1.00  0.00     0.170 HD
ENDROOT
BRANCH   1   7
HETATM    7  C   UNL     1      26.970  45.135  54.352  1.00  0.00     0.122 C 
BRANCH   7   8
HETATM    8  C   UNL     1      26.702  46.578  54.828  1.00  0.00     0.026 C 
HETATM    9  C   UNL     1      25.981  47.482  53.838  1.00  0.00     0.007 C 
ENDBRANCH   7   8
BRANCH   7  10
HETATM   10  C   UNL     1      28.331  44.599  54.786  1.00  0.00    -0.002 A 
HETATM   11  C   UNL     1      28.826  43.327  54.428  1.00  0.00     0.077 A 
HETATM   12  C   UNL     1      30.082  42.912  54.894  1.00  0.00     0.037 A 
HETATM   13  C   UNL     1      30.859  43.756  55.689  1.00  0.00     0.003 A 
HETATM   14  C   UNL     1      30.391  45.019  56.030  1.00  0.00     0.001 A 
HETATM   15  C   UNL     1      29.138  45.437  55.582  1.00  0.00     0.012 A 
BRANCH  11  16
HETATM   16  O   UNL     1      28.010  42.534  53.658  1.00  0.00    -0.351 OA
BRANCH  16  17
HETATM   17  C   UNL     1      28.372  41.154  53.553  1.00  0.00     0.171 C 
HETATM   18  C   UNL     1      28.740  40.874  52.107  1.00  0.00     0.034 C 
ENDBRANCH  16  17
ENDBRANCH  11  16
ENDBRANCH   7  10
ENDBRANCH   1   7
BRANCH   3  19
HETATM   19  C   UNL     1      24.647  43.803  50.199  1.00  0.00     0.059 A 
HETATM   20  C   UNL     1      24.612  42.453  49.802  1.00  0.00    -0.032 A 
HETATM   21  C   UNL     1      25.603  41.438  50.298  1.00  0.00     0.050 C 
HETATM   22  C   UNL     1      23.598  42.034  48.928  1.00  0.00     0.028 A 
HETATM   23  C   UNL     1      22.672  42.960  48.476  1.00  0.00     0.117 A 
HETATM   24  N   UNL     1      22.682  44.257  48.829  1.00  0.00    -0.271 NA
HETATM   25  C   UNL     1      23.663  44.648  49.682  1.00  0.00     0.146 A 
ENDBRANCH   3  19
TORSDOF 6
ENDMDL
MODEL 4
REMARK VINA RESULT:      -7.3      1.414      2.769
REMARK  6 active torsions:
REMARK  status: ('A' for Active; 'I' for Inactive)
REMARK    1  A    between atoms: C_2  and  C_3 
REMARK    2  A    between atoms: C_3  and  N_4 
REMARK    3  A    between atoms: C_3  and  C_15 
REMARK       I    between atoms: N_4  and  C_5 
REMARK       I    between atoms: C_5  and  N_6 
REMARK    4  A    between atoms: N_6  and  C_7 
REMARK    5  A    between atoms: C_16  and  O_17 
REMARK    6  A    between atoms: O_17  and  C_18 
ROOT
HETATM    1  N   UNL     1      26.373  45.372  51.403  1.00  0.00    -0.334 N 
HETATM    2  C   UNL     1      25.984  46.003  50.246  1.00  0.00     0.321 C 
HETATM    3  N   UNL     1      25.883  47.361  50.448  1.00  0.00    -0.307 N 
HETATM    4  O   UNL     1      25.816  45.414  49.188  1.00  0.00    -0.247 OA
HETATM    5  H   UNL     1      26.101  45.787  52.282  1.00  0.00     0.165 HD
HETATM    6  H   UNL     1      26.346  47.690  51.281  1.00  0.00     0.170 HD
ENDROOT
BRANCH   1   7
HETATM    7  C   UNL     1      26.665  43.949  51.457  1.00  0.00     0.122 C 
BRANCH   7   8
HETATM    8  C   UNL     1      25.424  43.066  51.709  1.00  0.00     0.026 C 
HETATM    9  C   UNL     1      24.859  42.350  50.490  1.00  0.00     0.007 C 
ENDBRANCH   7   8
BRANCH   7  10
HETATM   10  C   UNL     1      27.820  43.652  52.409  1.00  0.00    -0.002 A 
HETATM   11  C   UNL     1      28.763  42.623  52.204  1.00  0.00     0.077 A 
HETATM   12  C   UNL     1      29.779  42.412  53.146  1.00  0.00     0.037 A 
HETATM   13  C   UNL     1      29.883  43.226  54.274  1.00  0.00     0.003 A 
HETATM   14  C   UNL     1      28.973  44.257  54.475  1.00  0.00     0.001 A 
HETATM   15  C   UNL     1      27.951  44.468  53.550  1.00  0.00     0.012 A 
BRANCH  11  16
HETATM   16  O   UNL     1      28.602  41.842  51.084  1.00  0.00    -0.351 OA
BRANCH  16  17
HETATM   17  C   UNL     1      28.413  40.441  51.302  1.00  0.00     0.171 C 
HETATM   18  C   UNL     1      27.558  39.901  50.171  1.00  0.00     0.034 C 
ENDBRANCH  16  17
ENDBRANCH  11  16
ENDBRANCH   7  10
ENDBRANCH   1   7
BRANCH   3  19
HETATM   19  C   UNL     1      25.458  48.328  49.510  1.00  0.00     0.059 A 
HETATM   20  C   UNL     1      26.412  49.155  48.887  1.00  0.00    -0.032 A 
HETATM   21  C   UNL     1      27.886  49.028  49.150  1.00  0.00     0.050 C 
HETATM   22  C   UNL     1      25.971  50.118  47.969  1.00  0.00     0.028 A 
HETATM   23  C   UNL     1      24.615  50.233  47.710  1.00  0.00     0.117 A 
HETATM   24  N   UNL     1      23.677  49.465  48.293  1.00  0.00    -0.271 NA
HETATM   25  C   UNL     1      24.119  48.530  49.173  1.00  0.00     0.146 A 
ENDBRANCH   3  19
TORSDOF 6
ENDMDL
MODEL 5
REMARK VINA RESULT:      -7.2      4.728      9.513
REMARK  6 active torsions:
REMARK  status: ('A' for Active; 'I' for Inactive)
REMARK    1  A    between atoms: C_2  and  C_3 
REMARK    2  A    between atoms: C_3  and  N_4 
REMARK    3  A    between atoms: C_3  and  C_15 
REMARK       I    between atoms: N_4  and  C_5 
REMARK       I    between atoms: C_5  and  N_6 
REMARK    4  A    between atoms: N_6  and  C_7 
REMARK    5  A    between atoms: C_16  and  O_17 
REMARK    6  A    between atoms: O_17  and  C_18 
ROOT
HETATM    1  N   UNL     1      21.094  48.746  49.419  1.00  0.00    -0.334 N 
HETATM    2  C   UNL     1      22.324  49.344  49.549  1.00  0.00     0.321 C 
HETATM    3  N   UNL     1      23.289  48.607  48.902  1.00  0.00    -0.307 N 
HETATM    4  O   UNL     1      22.489  50.413  50.119  1.00  0.00    -0.247 OA
HETATM    5  H   UNL     1      21.064  47.740  49.333  1.00  0.00     0.165 HD
HETATM    6  H   UNL     1      22.925  47.935  48.245  1.00  0.00     0.170 HD
ENDROOT
BRANCH   1   7
HETATM    7  C   UNL     1      19.871  49.358  49.911  1.00  0.00     0.122 C 
BRANCH   7   8
HETATM    8  C   UNL     1      18.856  48.349  50.489  1.00  0.00     0.026 C 
HETATM    9  C   UNL     1      18.548  48.493  51.973  1.00  0.00     0.007 C 
ENDBRANCH   7   8
BRANCH   7  10
HETATM   10  C   UNL     1      19.263  50.299  48.875  1.00  0.00    -0.002 A 
HETATM   11  C   UNL     1      18.676  49.867  47.667  1.00  0.00     0.077 A 
HETATM   12  C   UNL     1      18.162  50.809  46.766  1.00  0.00     0.037 A 
HETATM   13  C   UNL     1      18.203  52.172  47.062  1.00  0.00     0.003 A 
HETATM   14  C   UNL     1      18.760  52.609  48.258  1.00  0.00     0.001 A 
HETATM   15  C   UNL     1      19.284  51.680  49.156  1.00  0.00     0.012 A 
BRANCH  11  16
HETATM   16  O   UNL     1      18.678  48.514  47.421  1.00  0.00    -0.351 OA
BRANCH  16  17
HETATM   17  C   UNL     1      19.345  48.081  46.233  1.00  0.00     0.171 C 
HETATM   18  C   UNL     1      19.091  46.594  46.068  1.00  0.00     0.034 C 
ENDBRANCH  16  17
ENDBRANCH  11  16
ENDBRANCH   7  10
ENDBRANCH   1   7
BRANCH   3  19
HETATM   19  C   UNL     1      24.676  48.876  48.862  1.00  0.00     0.059 A 
HETATM   20  C   UNL     1      25.547  48.148  49.692  1.00  0.00    -0.032 A 
HETATM   21  C   UNL     1      25.069  47.054  50.605  1.00  0.00     0.050 C 
HETATM   22  C   UNL     1      26.919  48.439  49.649  1.00  0.00     0.028 A 
HETATM   23  C   UNL     1      27.371  49.436  48.801  1.00  0.00     0.117 A 
HETATM   24  N   UNL     1      26.565  50.155  48.001  1.00  0.00    -0.271 NA
HETATM   25  C   UNL     1      25.240  49.858  48.045  1.00  0.00     0.146 A 
ENDBRANCH   3  19
TORSDOF 6
ENDMDL
MODEL 6
REMARK VINA RESULT:      -7.2      3.400      5.222
REMARK  6 active torsions:
REMARK  status: ('A' for Active; 'I' for Inactive)
REMARK    1  A    between atoms: C_2  and  C_3 
REMARK    2  A    between atoms: C_3  and  N_4 
REMARK    3  A    between atoms: C_3  and  C_15 
REMARK       I    between atoms: N_4  and  C_5 
REMARK       I    between atoms: C_5  and  N_6 
REMARK    4  A    between atoms: N_6  and  C_7 
REMARK    5  A    between atoms: C_16  and  O_17 
REMARK    6  A    between atoms: O_17  and  C_18 
ROOT
HETATM    1  N   UNL     1      22.673  46.684  49.456  1.00  0.00    -0.334 N 
HETATM    2  C   UNL     1      22.330  47.822  48.766  1.00  0.00     0.321 C 
HETATM    3  N   UNL     1      21.106  48.289  49.185  1.00  0.00    -0.307 N 
HETATM    4  O   UNL     1      23.064  48.350  47.943  1.00  0.00    -0.247 OA
HETATM    5  H   UNL     1      21.927  46.085  49.778  1.00  0.00     0.165 HD
HETATM    6  H   UNL     1      20.797  47.908  50.065  1.00  0.00     0.170 HD
ENDROOT
BRANCH   1   7
HETATM    7  C   UNL     1      23.962  46.032  49.297  1.00  0.00     0.122 C 
BRANCH   7   8
HETATM    8  C   UNL     1      23.879  44.629  48.660  1.00  0.00     0.026 C 
HETATM    9  C   UNL     1      22.482  44.038  48.535  1.00  0.00     0.007 C 
ENDBRANCH   7   8
BRANCH   7  10
HETATM   10  C   UNL     1      24.763  46.059  50.596  1.00  0.00    -0.002 A 
HETATM   11  C   UNL     1      25.532  47.163  51.023  1.00  0.00     0.077 A 
HETATM   12  C   UNL     1      26.254  47.086  52.223  1.00  0.00     0.037 A 
HETATM   13  C   UNL     1      26.199  45.938  53.013  1.00  0.00     0.003 A 
HETATM   14  C   UNL     1      25.429  44.852  52.613  1.00  0.00     0.001 A 
HETATM   15  C   UNL     1      24.717  44.914  51.415  1.00  0.00     0.012 A 
BRANCH  11  16
HETATM   16  O   UNL     1      25.561  48.261  50.197  1.00  0.00    -0.351 OA
BRANCH  16  17
HETATM   17  C   UNL     1      26.754  48.457  49.434  1.00  0.00     0.171 C 
HETATM   18  C   UNL     1      26.517  49.614  48.481  1.00  0.00     0.034 C 
ENDBRANCH  16  17
ENDBRANCH  11  16
ENDBRANCH   7  10
ENDBRANCH   1   7
BRANCH   3  19
HETATM   19  C   UNL     1      20.403  49.402  48.671  1.00  0.00     0.059 A 
HETATM   20  C   UNL     1      20.682  50.688  49.170  1.00  0.00    -0.032 A 
HETATM   21  C   UNL     1      21.737  50.941  50.210  1.00  0.00     0.050 C 
HETATM   22  C   UNL     1      19.965  51.780  48.658  1.00  0.00     0.028 A 
HETATM   23  C   UNL     1      19.000  51.558  47.689  1.00  0.00     0.117 A 
HETATM   24  N   UNL     1      18.703  50.343  47.197  1.00  0.00    -0.271 NA
HETATM   25  C   UNL     1      19.411  49.296  47.694  1.00  0.00     0.146 A 
ENDBRANCH   3  19
TORSDOF 6
ENDMDL
MODEL 7
REMARK VINA RESULT:      -7.1      5.310      9.859
REMARK  6 active torsions:
REMARK  status: ('A' for Active; 'I' for Inactive)
REMARK    1  A    between atoms: C_2  and  C_3 
REMARK    2  A    between atoms: C_3  and  N_4 
REMARK    3  A    between atoms: C_3  and  C_15 
REMARK       I    between atoms: N_4  and  C_5 
REMARK       I    between atoms: C_5  and  N_6 
REMARK    4  A    between atoms: N_6  and  C_7 
REMARK    5  A    between atoms: C_16  and  O_17 
REMARK    6  A    between atoms: O_17  and  C_18 
ROOT
HETATM    1  N   UNL     1      21.169  49.372  49.327  1.00  0.00    -0.334 N 
HETATM    2  C   UNL     1      22.460  49.834  49.419  1.00  0.00     0.321 C 
HETATM    3  N   UNL     1      23.345  48.885  48.963  1.00  0.00    -0.307 N 
HETATM    4  O   UNL     1      22.739  50.961  49.804  1.00  0.00    -0.247 OA
HETATM    5  H   UNL     1      21.016  48.378  49.415  1.00  0.00     0.165 HD
HETATM    6  H   UNL     1      22.922  48.155  48.412  1.00  0.00     0.170 HD
ENDROOT
BRANCH   1   7
HETATM    7  C   UNL     1      20.017  50.202  49.638  1.00  0.00     0.122 C 
BRANCH   7   8
HETATM    8  C   UNL     1      19.069  49.587  50.689  1.00  0.00     0.026 C 
HETATM    9  C   UNL     1      18.417  48.267  50.305  1.00  0.00     0.007 C 
ENDBRANCH   7   8
BRANCH   7  10
HETATM   10  C   UNL     1      19.300  50.657  48.370  1.00  0.00    -0.002 A 
HETATM   11  C   UNL     1      18.355  51.704  48.334  1.00  0.00     0.077 A 
HETATM   12  C   UNL     1      17.730  52.037  47.124  1.00  0.00     0.037 A 
HETATM   13  C   UNL     1      18.051  51.358  45.948  1.00  0.00     0.003 A 
HETATM   14  C   UNL     1      18.996  50.339  45.967  1.00  0.00     0.001 A 
HETATM   15  C   UNL     1      19.615  49.992  47.168  1.00  0.00     0.012 A 
BRANCH  11  16
HETATM   16  O   UNL     1      18.066  52.326  49.525  1.00  0.00    -0.351 OA
BRANCH  16  17
HETATM   17  C   UNL     1      16.718  52.223  49.991  1.00  0.00     0.171 C 
HETATM   18  C   UNL     1      16.129  53.621  50.035  1.00  0.00     0.034 C 
ENDBRANCH  16  17
ENDBRANCH  11  16
ENDBRANCH   7  10
ENDBRANCH   1   7
BRANCH   3  19
HETATM   19  C   UNL     1      24.755  48.977  48.953  1.00  0.00     0.059 A 
HETATM   20  C   UNL     1      25.512  48.125  49.778  1.00  0.00    -0.032 A 
HETATM   21  C   UNL     1      24.881  47.078  50.653  1.00  0.00     0.050 C 
HETATM   22  C   UNL     1      26.909  48.240  49.765  1.00  0.00     0.028 A 
HETATM   23  C   UNL     1      27.501  49.192  48.951  1.00  0.00     0.117 A 
HETATM   24  N   UNL     1      26.807  50.027  48.157  1.00  0.00    -0.271 NA
HETATM   25  C   UNL     1      25.455  49.899  48.172  1.00  0.00     0.146 A 
ENDBRANCH   3  19
TORSDOF 6
ENDMDL
MODEL 8
REMARK VINA RESULT:      -6.9      2.700      5.373
REMARK  6 active torsions:
REMARK  status: ('A' for Active; 'I' for Inactive)
REMARK    1  A    between atoms: C_2  and  C_3 
REMARK    2  A    between atoms: C_3  and  N_4 
REMARK    3  A    between atoms: C_3  and  C_15 
REMARK       I    between atoms: N_4  and  C_5 
REMARK       I    between atoms: C_5  and  N_6 
REMARK    4  A    between atoms: N_6  and  C_7 
REMARK    5  A    between atoms: C_16  and  O_17 
REMARK    6  A    between atoms: O_17  and  C_18 
ROOT
HETATM    1  N   UNL     1      26.739  43.388  52.684  1.00  0.00    -0.334 N 
HETATM    2  C   UNL     1      26.524  43.084  51.362  1.00  0.00     0.321 C 
HETATM    3  N   UNL     1      25.285  42.509  51.195  1.00  0.00    -0.307 N 
HETATM    4  O   UNL     1      27.322  43.355  50.476  1.00  0.00    -0.247 OA
HETATM    5  H   UNL     1      26.294  42.808  53.381  1.00  0.00     0.165 HD
HETATM    6  H   UNL     1      24.658  42.643  51.973  1.00  0.00     0.170 HD
ENDROOT
BRANCH   1   7
HETATM    7  C   UNL     1      27.920  44.102  53.140  1.00  0.00     0.122 C 
BRANCH   7   8
HETATM    8  C   UNL     1      28.933  43.216  53.895  1.00  0.00     0.026 C 
HETATM    9  C   UNL     1      30.190  42.839  53.124  1.00  0.00     0.007 C 
ENDBRANCH   7   8
BRANCH   7  10
HETATM   10  C   UNL     1      27.545  45.372  53.899  1.00  0.00    -0.002 A 
HETATM   11  C   UNL     1      26.594  46.309  53.443  1.00  0.00     0.077 A 
HETATM   12  C   UNL     1      26.331  47.460  54.199  1.00  0.00     0.037 A 
HETATM   13  C   UNL     1      26.984  47.676  55.413  1.00  0.00     0.003 A 
HETATM   14  C   UNL     1      27.907  46.750  55.883  1.00  0.00     0.001 A 
HETATM   15  C   UNL     1      28.185  45.608  55.132  1.00  0.00     0.012 A 
BRANCH  11  16
HETATM   16  O   UNL     1      25.994  46.052  52.233  1.00  0.00    -0.351 OA
BRANCH  16  17
HETATM   17  C   UNL     1      26.035  47.101  51.262  1.00  0.00     0.171 C 
HETATM   18  C   UNL     1      24.687  47.148  50.565  1.00  0.00     0.034 C 
ENDBRANCH  16  17
ENDBRANCH  11  16
ENDBRANCH   7  10
ENDBRANCH   1   7
BRANCH   3  19
HETATM   19  C   UNL     1      24.735  42.015  49.990  1.00  0.00     0.059 A 
HETATM   20  C   UNL     1      23.555  42.588  49.481  1.00  0.00    -0.032 A 
HETATM   21  C   UNL     1      22.864  43.744  50.149  1.00  0.00     0.050 C 
HETATM   22  C   UNL     1      23.016  42.076  48.292  1.00  0.00     0.028 A 
HETATM   23  C   UNL     1      23.654  41.021  47.661  1.00  0.00     0.117 A 
HETATM   24  N   UNL     1      24.777  40.445  48.125  1.00  0.00    -0.271 NA
HETATM   25  C   UNL     1      25.294  40.956  49.273  1.00  0.00     0.146 A 
ENDBRANCH   3  19
TORSDOF 6
ENDMDL
MODEL 9
REMARK VINA RESULT:      -6.8      4.402      9.053
REMARK  6 active torsions:
REMARK  status: ('A' for Active; 'I' for Inactive)
REMARK    1  A    between atoms: C_2  and  C_3 
REMARK    2  A    between atoms: C_3  and  N_4 
REMARK    3  A    between atoms: C_3  and  C_15 
REMARK       I    between atoms: N_4  and  C_5 
REMARK       I    between atoms: C_5  and  N_6 
REMARK    4  A    between atoms: N_6  and  C_7 
REMARK    5  A    between atoms: C_16  and  O_17 
REMARK    6  A    between atoms: O_17  and  C_18 
ROOT
HETATM    1  N   UNL     1      22.355  48.309  48.901  1.00  0.00    -0.334 N 
HETATM    2  C   UNL     1      22.571  47.032  48.442  1.00  0.00     0.321 C 
HETATM    3  N   UNL     1      22.969  46.210  49.471  1.00  0.00    -0.307 N 
HETATM    4  O   UNL     1      22.369  46.697  47.283  1.00  0.00    -0.247 OA
HETATM    5  H   UNL     1      22.901  48.626  49.689  1.00  0.00     0.165 HD
HETATM    6  H   UNL     1      22.787  46.581  50.390  1.00  0.00     0.170 HD
ENDROOT
BRANCH   1   7
HETATM    7  C   UNL     1      21.824  49.365  48.055  1.00  0.00     0.122 C 
BRANCH   7   8
HETATM    8  C   UNL     1      22.882  50.390  47.596  1.00  0.00     0.026 C 
HETATM    9  C   UNL     1      24.295  50.166  48.118  1.00  0.00     0.007 C 
ENDBRANCH   7   8
BRANCH   7  10
HETATM   10  C   UNL     1      20.589  50.010  48.678  1.00  0.00    -0.002 A 
HETATM   11  C   UNL     1      19.547  49.283  49.292  1.00  0.00     0.077 A 
HETATM   12  C   UNL     1      18.440  49.963  49.819  1.00  0.00     0.037 A 
HETATM   13  C   UNL     1      18.369  51.355  49.765  1.00  0.00     0.003 A 
HETATM   14  C   UNL     1      19.400  52.083  49.181  1.00  0.00     0.001 A 
HETATM   15  C   UNL     1      20.500  51.416  48.644  1.00  0.00     0.012 A 
BRANCH  11  16
HETATM   16  O   UNL     1      19.663  47.913  49.302  1.00  0.00    -0.351 OA
BRANCH  16  17
HETATM   17  C   UNL     1      18.615  47.177  48.666  1.00  0.00     0.171 C 
HETATM   18  C   UNL     1      18.840  47.242  47.167  1.00  0.00     0.034 C 
ENDBRANCH  16  17
ENDBRANCH  11  16
ENDBRANCH   7  10
ENDBRANCH   1   7
BRANCH   3  19
HETATM   19  C   UNL     1      23.333  44.848  49.375  1.00  0.00     0.059 A 
HETATM   20  C   UNL     1      24.694  44.492  49.385  1.00  0.00    -0.032 A 
HETATM   21  C   UNL     1      25.794  45.506  49.535  1.00  0.00     0.050 C 
HETATM   22  C   UNL     1      25.037  43.137  49.275  1.00  0.00     0.028 A 
HETATM   23  C   UNL     1      24.030  42.194  49.151  1.00  0.00     0.117 A 
HETATM   24  N   UNL     1      22.721  42.501  49.130  1.00  0.00    -0.271 NA
HETATM   25  C   UNL     1      22.402  43.816  49.246  1.00  0.00     0.146 A 
ENDBRANCH   3  19
TORSDOF 6
ENDMDL
MODEL 10
REMARK VINA RESULT:      -6.7      3.210      6.707
REMARK  6 active torsions:
REMARK  status: ('A' for Active; 'I' for Inactive)
REMARK    1  A    between atoms: C_2  and  C_3 
REMARK    2  A    between atoms: C_3  and  N_4 
REMARK    3  A    between atoms: C_3  and  C_15 
REMARK       I    between atoms: N_4  and  C_5 
REMARK       I    between atoms: C_5  and  N_6 
REMARK    4  A    between atoms: N_6  and  C_7 
REMARK    5  A    between atoms: C_16  and  O_17 
REMARK    6  A    between atoms: O_17  and  C_18 
ROOT
HETATM    1  N   UNL     1      26.975  43.283  51.045  1.00  0.00    -0.334 N 
HETATM    2  C   UNL     1      26.880  41.959  50.691  1.00  0.00     0.321 C 
HETATM    3  N   UNL     1      28.055  41.527  50.119  1.00  0.00    -0.307 N 
HETATM    4  O   UNL     1      25.893  41.276  50.922  1.00  0.00    -0.247 OA
HETATM    5  H   UNL     1      27.580  43.876  50.496  1.00  0.00     0.165 HD
HETATM    6  H   UNL     1      28.844  42.131  50.288  1.00  0.00     0.170 HD
ENDROOT
BRANCH   1   7
HETATM    7  C   UNL     1      25.922  43.977  51.768  1.00  0.00     0.122 C 
BRANCH   7   8
HETATM    8  C   UNL     1      24.859  44.622  50.855  1.00  0.00     0.026 C 
HETATM    9  C   UNL     1      25.311  44.958  49.442  1.00  0.00     0.007 C 
ENDBRANCH   7   8
BRANCH   7  10
HETATM   10  C   UNL     1      26.498  44.941  52.801  1.00  0.00    -0.002 A 
HETATM   11  C   UNL     1      27.466  44.580  53.762  1.00  0.00     0.077 A 
HETATM   12  C   UNL     1      27.920  45.532  54.685  1.00  0.00     0.037 A 
HETATM   13  C   UNL     1      27.441  46.842  54.650  1.00  0.00     0.003 A 
HETATM   14  C   UNL     1      26.503  47.215  53.695  1.00  0.00     0.001 A 
HETATM   15  C   UNL     1      26.036  46.273  52.779  1.00  0.00     0.012 A 
BRANCH  11  16
HETATM   16  O   UNL     1      27.889  43.272  53.760  1.00  0.00    -0.351 OA
BRANCH  16  17
HETATM   17  C   UNL     1      29.197  43.022  54.281  1.00  0.00     0.171 C 
HETATM   18  C   UNL     1      30.131  42.780  53.110  1.00  0.00     0.034 C 
ENDBRANCH  16  17
ENDBRANCH  11  16
ENDBRANCH   7  10
ENDBRANCH   1   7
BRANCH   3  19
HETATM   19  C   UNL     1      28.315  40.246  49.583  1.00  0.00     0.059 A 
HETATM   20  C   UNL     1      28.138  40.022  48.205  1.00  0.00    -0.032 A 
HETATM   21  C   UNL     1      27.716  41.110  47.257  1.00  0.00     0.050 C 
HETATM   22  C   UNL     1      28.388  38.741  47.693  1.00  0.00     0.028 A 
HETATM   23  C   UNL     1      28.791  37.736  48.557  1.00  0.00     0.117 A 
HETATM   24  N   UNL     1      28.962  37.913  49.878  1.00  0.00    -0.271 NA
HETATM   25  C   UNL     1      28.725  39.161  50.360  1.00  0.00     0.146 A 
ENDBRANCH   3  19
TORSDOF 6
ENDMDL
