MODEL 1
REMARK VINA RESULT:      -9.5      0.000      0.000
REMARK  10 active torsions:
REMARK  status: ('A' for Active; 'I' for Inactive)
REMARK    1  A    between atoms: C_4  and  C_5 
REMARK    2  A    between atoms: C_5  and  C_6 
REMARK    3  A    between atoms: C_6  and  N_7 
REMARK    4  A    between atoms: C_6  and  C_15 
REMARK       I    between atoms: N_7  and  C_8 
REMARK    5  A    between atoms: C_8  and  C_9 
REMARK       I    between atoms: C_15  and  N_16 
REMARK    6  A    between atoms: N_16  and  C_17 
REMARK    7  A    between atoms: C_17  and  C_18 
REMARK    8  A    between atoms: C_18  and  C_19 
REMARK    9  A    between atoms: C_21  and  O_22 
REMARK   10  A    between atoms: C_23  and  O_24 
ROOT
HETATM    1  C   UNL     1      28.333  43.176  51.904  1.00  0.00     0.181 C 
ENDROOT
BRANCH   1   2
HETATM    2  C   UNL     1      27.913  43.165  53.388  1.00  0.00     0.073 C 
BRANCH   2   3
HETATM    3  C   UNL     1      28.887  43.782  54.370  1.00  0.00    -0.056 A 
HETATM    4  C   UNL     1      28.634  45.017  54.986  1.00  0.00     0.007 A 
HETATM    5  C   UNL     1      29.501  45.522  55.958  1.00  0.00     0.001 A 
HETATM    6  C   UNL     1      30.621  44.790  56.343  1.00  0.00     0.000 A 
HETATM    7  C   UNL     1      30.877  43.555  55.754  1.00  0.00     0.001 A 
HETATM    8  C   UNL     1      30.017  43.054  54.774  1.00  0.00     0.007 A 
ENDBRANCH   2   3
ENDBRANCH   1   2
BRANCH   1   9
HETATM    9  N   UNL     1      28.732  41.869  51.371  1.00  0.00    -0.342 N 
HETATM   10  C   UNL     1      27.888  40.835  51.045  1.00  0.00     0.276 C 
HETATM   11  O   UNL     1      26.665  40.967  51.059  1.00  0.00    -0.265 OA
HETATM   12  H   UNL     1      29.722  41.646  51.367  1.00  0.00     0.163 HD
BRANCH  10  13
HETATM   13  C   UNL     1      28.566  39.626  50.626  1.00  0.00     0.142 A 
HETATM   14  O   UNL     1      29.462  39.029  51.478  1.00  0.00    -0.317 OA
HETATM   15  C   UNL     1      29.959  37.940  50.836  1.00  0.00     0.143 A 
HETATM   16  C   UNL     1      29.405  37.822  49.584  1.00  0.00     0.027 A 
HETATM   17  C   UNL     1      28.505  38.908  49.447  1.00  0.00     0.045 A 
ENDBRANCH  10  13
ENDBRANCH   1   9
BRANCH   1  18
HETATM   18  C   UNL     1      27.251  43.933  51.101  1.00  0.00     0.240 C 
HETATM   19  N   UNL     1      26.024  44.094  51.704  1.00  0.00    -0.359 N 
HETATM   20  H   UNL     1      25.970  43.844  52.687  1.00  0.00     0.162 HD
HETATM   21  O   UNL     1      27.533  44.488  50.037  1.00  0.00    -0.271 OA
BRANCH  19  22
HETATM   22  C   UNL     1      25.069  45.064  51.195  1.00  0.00     0.127 C 
BRANCH  22  23
HETATM   23  C   UNL     1      25.413  46.514  51.550  1.00  0.00     0.058 C 
BRANCH  23  24
HETATM   24  C   UNL     1      25.566  47.526  50.432  1.00  0.00    -0.054 A 
HETATM   25  C   UNL     1      26.794  48.065  50.023  1.00  0.00     0.046 A 
HETATM   26  C   UNL     1      26.830  49.035  49.024  1.00  0.00     0.099 A 
HETATM   27  C   UNL     1      25.663  49.443  48.389  1.00  0.00     0.098 A 
HETATM   28  C   UNL     1      24.441  48.908  48.754  1.00  0.00     0.040 A 
HETATM   29  C   UNL     1      24.393  47.959  49.779  1.00  0.00     0.010 A 
BRANCH  26  30
HETATM   30  O   UNL     1      28.005  49.628  48.647  1.00  0.00    -0.358 OA
HETATM   31  H   UNL     1      28.272  50.227  49.369  1.00  0.00     0.218 HD
ENDBRANCH  26  30
BRANCH  27  32
HETATM   32  O   UNL     1      25.716  50.384  47.402  1.00  0.00    -0.358 OA
HETATM   33  H   UNL     1      25.036  50.098  46.760  1.00  0.00     0.218 HD
ENDBRANCH  27  32
ENDBRANCH  23  24
ENDBRANCH  22  23
ENDBRANCH  19  22
ENDBRANCH   1  18
TORSDOF 10
ENDMDL
MODEL 2
REMARK VINA RESULT:      -9.1      2.132      7.177
REMARK  10 active torsions:
REMARK  status: ('A' for Active; 'I' for Inactive)
REMARK    1  A    between atoms: C_4  and  C_5 
REMARK    2  A    between atoms: C_5  and  C_6 
REMARK    3  A    between atoms: C_6  and  N_7 
REMARK    4  A    between atoms: C_6  and  C_15 
REMARK       I    between atoms: N_7  and  C_8 
REMARK    5  A    between atoms: C_8  and  C_9 
REMARK       I    between atoms: C_15  and  N_16 
REMARK    6  A    between atoms: N_16  and  C_17 
REMARK    7  A    between atoms: C_17  and  C_18 
REMARK    8  A    between atoms: C_18  and  C_19 
REMARK    9  A    between atoms: C_21  and  O_22 
REMARK   10  A    between atoms: C_23  and  O_24 
ROOT
HETATM    1  C   UNL     1      26.362  44.885  51.407  1.00  0.00     0.181 C 
ENDROOT
BRANCH   1   2
HETATM    2  C   UNL     1      27.570  43.939  51.245  1.00  0.00     0.073 C 
BRANCH   2   3
HETATM    3  C   UNL     1      28.405  43.694  52.484  1.00  0.00    -0.056 A 
HETATM    4  C   UNL     1      29.544  42.875  52.458  1.00  0.00     0.007 A 
HETATM    5  C   UNL     1      30.352  42.738  53.590  1.00  0.00     0.001 A 
HETATM    6  C   UNL     1      30.045  43.434  54.757  1.00  0.00     0.000 A 
HETATM    7  C   UNL     1      28.927  44.265  54.793  1.00  0.00     0.001 A 
HETATM    8  C   UNL     1      28.114  44.394  53.665  1.00  0.00     0.007 A 
ENDBRANCH   2   3
ENDBRANCH   1   2
BRANCH   1   9
HETATM    9  N   UNL     1      26.412  46.091  50.574  1.00  0.00    -0.342 N 
HETATM   10  C   UNL     1      25.920  47.329  50.909  1.00  0.00     0.276 C 
HETATM   11  O   UNL     1      25.484  47.571  52.033  1.00  0.00    -0.265 OA
HETATM   12  H   UNL     1      26.710  45.983  49.609  1.00  0.00     0.163 HD
BRANCH  10  13
HETATM   13  C   UNL     1      26.026  48.314  49.854  1.00  0.00     0.142 A 
HETATM   14  O   UNL     1      24.887  48.913  49.377  1.00  0.00    -0.317 OA
HETATM   15  C   UNL     1      25.267  49.770  48.393  1.00  0.00     0.143 A 
HETATM   16  C   UNL     1      26.630  49.734  48.221  1.00  0.00     0.027 A 
HETATM   17  C   UNL     1      27.122  48.798  49.164  1.00  0.00     0.045 A 
ENDBRANCH  10  13
ENDBRANCH   1   9
BRANCH   1  18
HETATM   18  C   UNL     1      25.071  44.042  51.300  1.00  0.00     0.240 C 
HETATM   19  N   UNL     1      24.620  43.747  50.033  1.00  0.00    -0.359 N 
HETATM   20  H   UNL     1      25.252  43.968  49.269  1.00  0.00     0.162 HD
HETATM   21  O   UNL     1      24.564  43.541  52.306  1.00  0.00    -0.271 OA
BRANCH  19  22
HETATM   22  C   UNL     1      23.636  42.698  49.822  1.00  0.00     0.127 C 
BRANCH  22  23
HETATM   23  C   UNL     1      24.123  41.571  48.904  1.00  0.00     0.058 C 
BRANCH  23  24
HETATM   24  C   UNL     1      25.561  41.105  49.015  1.00  0.00    -0.054 A 
HETATM   25  C   UNL     1      26.138  40.614  50.194  1.00  0.00     0.046 A 
HETATM   26  C   UNL     1      27.487  40.263  50.215  1.00  0.00     0.099 A 
HETATM   27  C   UNL     1      28.259  40.348  49.063  1.00  0.00     0.098 A 
HETATM   28  C   UNL     1      27.708  40.805  47.879  1.00  0.00     0.040 A 
HETATM   29  C   UNL     1      26.365  41.190  47.859  1.00  0.00     0.010 A 
BRANCH  26  30
HETATM   30  O   UNL     1      28.096  39.842  51.366  1.00  0.00    -0.358 OA
HETATM   31  H   UNL     1      28.144  40.609  51.966  1.00  0.00     0.218 HD
ENDBRANCH  26  30
BRANCH  27  32
HETATM   32  O   UNL     1      29.575  39.989  49.096  1.00  0.00    -0.358 OA
HETATM   33  H   UNL     1      29.791  39.953  50.049  1.00  0.00     0.218 HD
ENDBRANCH  27  32
ENDBRANCH  23  24
ENDBRANCH  22  23
ENDBRANCH  19  22
ENDBRANCH   1  18
TORSDOF 10
ENDMDL
MODEL 3
REMARK VINA RESULT:      -8.8      3.753      7.811
REMARK  10 active torsions:
REMARK  status: ('A' for Active; 'I' for Inactive)
REMARK    1  A    between atoms: C_4  and  C_5 
REMARK    2  A    between atoms: C_5  and  C_6 
REMARK    3  A    between atoms: C_6  and  N_7 
REMARK    4  A    between atoms: C_6  and  C_15 
REMARK       I    between atoms: N_7  and  C_8 
REMARK    5  A    between atoms: C_8  and  C_9 
REMARK       I    between atoms: C_15  and  N_16 
REMARK    6  A    between atoms: N_16  and  C_17 
REMARK    7  A    between atoms: C_17  and  C_18 
REMARK    8  A    between atoms: C_18  and  C_19 
REMARK    9  A    between atoms: C_21  and  O_22 
REMARK   10  A    between atoms: C_23  and  O_24 
ROOT
HETATM    1  C   UNL     1      25.135  44.963  51.327  1.00  0.00     0.181 C 
ENDROOT
BRANCH   1   2
HETATM    2  C   UNL     1      26.138  46.050  50.886  1.00  0.00     0.073 C 
BRANCH   2   3
HETATM    3  C   UNL     1      25.575  47.198  50.074  1.00  0.00    -0.056 A 
HETATM    4  C   UNL     1      24.195  47.435  49.986  1.00  0.00     0.007 A 
HETATM    5  C   UNL     1      23.704  48.554  49.309  1.00  0.00     0.001 A 
HETATM    6  C   UNL     1      24.586  49.463  48.729  1.00  0.00     0.000 A 
HETATM    7  C   UNL     1      25.959  49.251  48.823  1.00  0.00     0.001 A 
HETATM    8  C   UNL     1      26.450  48.127  49.490  1.00  0.00     0.007 A 
ENDBRANCH   2   3
ENDBRANCH   1   2
BRANCH   1   9
HETATM    9  N   UNL     1      24.814  43.972  50.295  1.00  0.00    -0.342 N 
HETATM   10  C   UNL     1      23.621  43.305  50.155  1.00  0.00     0.276 C 
HETATM   11  O   UNL     1      22.638  43.584  50.839  1.00  0.00    -0.265 OA
HETATM   12  H   UNL     1      25.575  43.638  49.712  1.00  0.00     0.163 HD
BRANCH  10  13
HETATM   13  C   UNL     1      23.617  42.313  49.101  1.00  0.00     0.142 A 
HETATM   14  O   UNL     1      22.420  41.798  48.668  1.00  0.00    -0.317 OA
HETATM   15  C   UNL     1      22.704  40.888  47.700  1.00  0.00     0.143 A 
HETATM   16  C   UNL     1      24.061  40.800  47.501  1.00  0.00     0.027 A 
HETATM   17  C   UNL     1      24.652  41.720  48.402  1.00  0.00     0.045 A 
ENDBRANCH  10  13
ENDBRANCH   1   9
BRANCH   1  18
HETATM   18  C   UNL     1      25.603  44.398  52.688  1.00  0.00     0.240 C 
HETATM   19  N   UNL     1      26.874  43.872  52.742  1.00  0.00    -0.359 N 
HETATM   20  H   UNL     1      27.464  44.037  51.932  1.00  0.00     0.162 HD
HETATM   21  O   UNL     1      24.917  44.552  53.700  1.00  0.00    -0.271 OA
BRANCH  19  22
HETATM   22  C   UNL     1      27.524  43.635  54.020  1.00  0.00     0.127 C 
BRANCH  22  23
HETATM   23  C   UNL     1      29.048  43.793  53.976  1.00  0.00     0.058 C 
BRANCH  23  24
HETATM   24  C   UNL     1      29.789  44.110  55.261  1.00  0.00    -0.054 A 
HETATM   25  C   UNL     1      30.803  43.308  55.800  1.00  0.00     0.046 A 
HETATM   26  C   UNL     1      31.388  43.649  57.018  1.00  0.00     0.099 A 
HETATM   27  C   UNL     1      31.010  44.808  57.685  1.00  0.00     0.098 A 
HETATM   28  C   UNL     1      30.029  45.632  57.162  1.00  0.00     0.040 A 
HETATM   29  C   UNL     1      29.415  45.278  55.958  1.00  0.00     0.010 A 
BRANCH  26  30
HETATM   30  O   UNL     1      32.334  42.853  57.604  1.00  0.00    -0.358 OA
HETATM   31  H   UNL     1      33.100  43.418  57.814  1.00  0.00     0.218 HD
ENDBRANCH  26  30
BRANCH  27  32
HETATM   32  O   UNL     1      31.600  45.137  58.871  1.00  0.00    -0.358 OA
HETATM   33  H   UNL     1      30.850  45.243  59.491  1.00  0.00     0.218 HD
ENDBRANCH  27  32
ENDBRANCH  23  24
ENDBRANCH  22  23
ENDBRANCH  19  22
ENDBRANCH   1  18
TORSDOF 10
ENDMDL
MODEL 4
REMARK VINA RESULT:      -8.8      6.511     10.899
REMARK  10 active torsions:
REMARK  status: ('A' for Active; 'I' for Inactive)
REMARK    1  A    between atoms: C_4  and  C_5 
REMARK    2  A    between atoms: C_5  and  C_6 
REMARK    3  A    between atoms: C_6  and  N_7 
REMARK    4  A    between atoms: C_6  and  C_15 
REMARK       I    between atoms: N_7  and  C_8 
REMARK    5  A    between atoms: C_8  and  C_9 
REMARK       I    between atoms: C_15  and  N_16 
REMARK    6  A    between atoms: N_16  and  C_17 
REMARK    7  A    between atoms: C_17  and  C_18 
REMARK    8  A    between atoms: C_18  and  C_19 
REMARK    9  A    between atoms: C_21  and  O_22 
REMARK   10  A    between atoms: C_23  and  O_24 
ROOT
HETATM    1  C   UNL     1      21.789  49.471  48.774  1.00  0.00     0.181 C 
ENDROOT
BRANCH   1   2
HETATM    2  C   UNL     1      20.981  50.121  49.917  1.00  0.00     0.073 C 
BRANCH   2   3
HETATM    3  C   UNL     1      19.755  50.912  49.511  1.00  0.00    -0.056 A 
HETATM    4  C   UNL     1      18.534  50.782  50.189  1.00  0.00     0.007 A 
HETATM    5  C   UNL     1      17.443  51.590  49.857  1.00  0.00     0.001 A 
HETATM    6  C   UNL     1      17.564  52.552  48.858  1.00  0.00     0.000 A 
HETATM    7  C   UNL     1      18.775  52.705  48.188  1.00  0.00     0.001 A 
HETATM    8  C   UNL     1      19.863  51.891  48.512  1.00  0.00     0.007 A 
ENDBRANCH   2   3
ENDBRANCH   1   2
BRANCH   1   9
HETATM    9  N   UNL     1      23.221  49.312  49.050  1.00  0.00    -0.342 N 
HETATM   10  C   UNL     1      24.253  49.730  48.245  1.00  0.00     0.276 C 
HETATM   11  O   UNL     1      24.055  50.409  47.238  1.00  0.00    -0.265 OA
HETATM   12  H   UNL     1      23.486  48.723  49.833  1.00  0.00     0.163 HD
BRANCH  10  13
HETATM   13  C   UNL     1      25.566  49.359  48.724  1.00  0.00     0.142 A 
HETATM   14  O   UNL     1      25.681  48.386  49.687  1.00  0.00    -0.317 OA
HETATM   15  C   UNL     1      27.004  48.251  49.964  1.00  0.00     0.143 A 
HETATM   16  C   UNL     1      27.748  49.119  49.202  1.00  0.00     0.027 A 
HETATM   17  C   UNL     1      26.824  49.833  48.401  1.00  0.00     0.045 A 
ENDBRANCH  10  13
ENDBRANCH   1   9
BRANCH   1  18
HETATM   18  C   UNL     1      21.042  48.196  48.319  1.00  0.00     0.240 C 
HETATM   19  N   UNL     1      20.065  47.712  49.159  1.00  0.00    -0.359 N 
HETATM   20  H   UNL     1      19.799  48.313  49.934  1.00  0.00     0.162 HD
HETATM   21  O   UNL     1      21.220  47.734  47.191  1.00  0.00    -0.271 OA
BRANCH  19  22
HETATM   22  C   UNL     1      19.089  46.746  48.682  1.00  0.00     0.127 C 
BRANCH  22  23
HETATM   23  C   UNL     1      17.638  47.228  48.790  1.00  0.00     0.058 C 
BRANCH  23  24
HETATM   24  C   UNL     1      17.160  48.327  47.861  1.00  0.00    -0.054 A 
HETATM   25  C   UNL     1      17.946  48.898  46.851  1.00  0.00     0.046 A 
HETATM   26  C   UNL     1      17.441  49.945  46.084  1.00  0.00     0.099 A 
HETATM   27  C   UNL     1      16.141  50.400  46.275  1.00  0.00     0.098 A 
HETATM   28  C   UNL     1      15.335  49.836  47.247  1.00  0.00     0.040 A 
HETATM   29  C   UNL     1      15.847  48.809  48.043  1.00  0.00     0.010 A 
BRANCH  26  30
HETATM   30  O   UNL     1      18.204  50.568  45.134  1.00  0.00    -0.358 OA
HETATM   31  H   UNL     1      17.963  51.512  45.141  1.00  0.00     0.218 HD
ENDBRANCH  26  30
BRANCH  27  32
HETATM   32  O   UNL     1      15.655  51.418  45.507  1.00  0.00    -0.358 OA
HETATM   33  H   UNL     1      16.170  51.361  44.677  1.00  0.00     0.218 HD
ENDBRANCH  27  32
ENDBRANCH  23  24
ENDBRANCH  22  23
ENDBRANCH  19  22
ENDBRANCH   1  18
TORSDOF 10
ENDMDL
MODEL 5
REMARK VINA RESULT:      -8.5      3.303      8.858
REMARK  10 active torsions:
REMARK  status: ('A' for Active; 'I' for Inactive)
REMARK    1  A    between atoms: C_4  and  C_5 
REMARK    2  A    between atoms: C_5  and  C_6 
REMARK    3  A    between atoms: C_6  and  N_7 
REMARK    4  A    between atoms: C_6  and  C_15 
REMARK       I    between atoms: N_7  and  C_8 
REMARK    5  A    between atoms: C_8  and  C_9 
REMARK       I    between atoms: C_15  and  N_16 
REMARK    6  A    between atoms: N_16  and  C_17 
REMARK    7  A    between atoms: C_17  and  C_18 
REMARK    8  A    between atoms: C_18  and  C_19 
REMARK    9  A    between atoms: C_21  and  O_22 
REMARK   10  A    between atoms: C_23  and  O_24 
ROOT
HETATM    1  C   UNL     1      25.160  44.344  50.784  1.00  0.00     0.181 C 
ENDROOT
BRANCH   1   2
HETATM    2  C   UNL     1      23.698  43.873  50.642  1.00  0.00     0.073 C 
BRANCH   2   3
HETATM    3  C   UNL     1      23.123  43.870  49.242  1.00  0.00    -0.056 A 
HETATM    4  C   UNL     1      22.132  44.781  48.846  1.00  0.00     0.007 A 
HETATM    5  C   UNL     1      21.685  44.821  47.523  1.00  0.00     0.001 A 
HETATM    6  C   UNL     1      22.235  43.965  46.573  1.00  0.00     0.000 A 
HETATM    7  C   UNL     1      23.232  43.066  46.946  1.00  0.00     0.001 A 
HETATM    8  C   UNL     1      23.672  43.019  48.270  1.00  0.00     0.007 A 
ENDBRANCH   2   3
ENDBRANCH   1   2
BRANCH   1   9
HETATM    9  N   UNL     1      25.425  45.687  50.258  1.00  0.00    -0.342 N 
HETATM   10  C   UNL     1      26.622  46.142  49.761  1.00  0.00     0.276 C 
HETATM   11  O   UNL     1      27.583  45.392  49.597  1.00  0.00    -0.265 OA
HETATM   12  H   UNL     1      24.709  46.394  50.393  1.00  0.00     0.163 HD
BRANCH  10  13
HETATM   13  C   UNL     1      26.619  47.542  49.395  1.00  0.00     0.142 A 
HETATM   14  O   UNL     1      27.809  48.167  49.115  1.00  0.00    -0.317 OA
HETATM   15  C   UNL     1      27.522  49.462  48.823  1.00  0.00     0.143 A 
HETATM   16  C   UNL     1      26.170  49.690  48.914  1.00  0.00     0.027 A 
HETATM   17  C   UNL     1      25.585  48.453  49.280  1.00  0.00     0.045 A 
ENDBRANCH  10  13
ENDBRANCH   1   9
BRANCH   1  18
HETATM   18  C   UNL     1      25.612  44.086  52.239  1.00  0.00     0.240 C 
HETATM   19  N   UNL     1      26.960  43.904  52.452  1.00  0.00    -0.359 N 
HETATM   20  H   UNL     1      27.571  44.109  51.667  1.00  0.00     0.162 HD
HETATM   21  O   UNL     1      24.813  44.188  53.172  1.00  0.00    -0.271 OA
BRANCH  19  22
HETATM   22  C   UNL     1      27.519  43.996  53.791  1.00  0.00     0.127 C 
BRANCH  22  23
HETATM   23  C   UNL     1      29.047  43.888  53.831  1.00  0.00     0.058 C 
BRANCH  23  24
HETATM   24  C   UNL     1      29.766  44.159  55.137  1.00  0.00    -0.054 A 
HETATM   25  C   UNL     1      30.758  43.327  55.675  1.00  0.00     0.046 A 
HETATM   26  C   UNL     1      31.323  43.627  56.913  1.00  0.00     0.099 A 
HETATM   27  C   UNL     1      30.949  44.773  57.604  1.00  0.00     0.098 A 
HETATM   28  C   UNL     1      29.990  45.625  57.084  1.00  0.00     0.040 A 
HETATM   29  C   UNL     1      29.396  45.313  55.859  1.00  0.00     0.010 A 
BRANCH  26  30
HETATM   30  O   UNL     1      32.247  42.801  57.494  1.00  0.00    -0.358 OA
HETATM   31  H   UNL     1      31.876  41.900  57.487  1.00  0.00     0.218 HD
ENDBRANCH  26  30
BRANCH  27  32
HETATM   32  O   UNL     1      31.520  45.061  58.809  1.00  0.00    -0.358 OA
HETATM   33  H   UNL     1      31.942  44.222  59.081  1.00  0.00     0.218 HD
ENDBRANCH  27  32
ENDBRANCH  23  24
ENDBRANCH  22  23
ENDBRANCH  19  22
ENDBRANCH   1  18
TORSDOF 10
ENDMDL
MODEL 6
REMARK VINA RESULT:      -8.4      2.842      6.090
REMARK  10 active torsions:
REMARK  status: ('A' for Active; 'I' for Inactive)
REMARK    1  A    between atoms: C_4  and  C_5 
REMARK    2  A    between atoms: C_5  and  C_6 
REMARK    3  A    between atoms: C_6  and  N_7 
REMARK    4  A    between atoms: C_6  and  C_15 
REMARK       I    between atoms: N_7  and  C_8 
REMARK    5  A    between atoms: C_8  and  C_9 
REMARK       I    between atoms: C_15  and  N_16 
REMARK    6  A    between atoms: N_16  and  C_17 
REMARK    7  A    between atoms: C_17  and  C_18 
REMARK    8  A    between atoms: C_18  and  C_19 
REMARK    9  A    between atoms: C_21  and  O_22 
REMARK   10  A    between atoms: C_23  and  O_24 
ROOT
HETATM    1  C   UNL     1      26.275  44.706  51.184  1.00  0.00     0.181 C 
ENDROOT
BRANCH   1   2
HETATM    2  C   UNL     1      27.543  43.827  51.198  1.00  0.00     0.073 C 
BRANCH   2   3
HETATM    3  C   UNL     1      28.294  43.745  52.510  1.00  0.00    -0.056 A 
HETATM    4  C   UNL     1      29.473  42.997  52.643  1.00  0.00     0.007 A 
HETATM    5  C   UNL     1      30.199  43.013  53.837  1.00  0.00     0.001 A 
HETATM    6  C   UNL     1      29.767  43.791  54.908  1.00  0.00     0.000 A 
HETATM    7  C   UNL     1      28.607  44.553  54.786  1.00  0.00     0.001 A 
HETATM    8  C   UNL     1      27.876  44.530  53.596  1.00  0.00     0.007 A 
ENDBRANCH   2   3
ENDBRANCH   1   2
BRANCH   1   9
HETATM    9  N   UNL     1      26.417  45.974  50.461  1.00  0.00    -0.342 N 
HETATM   10  C   UNL     1      25.794  47.158  50.772  1.00  0.00     0.276 C 
HETATM   11  O   UNL     1      25.132  47.292  51.799  1.00  0.00    -0.265 OA
HETATM   12  H   UNL     1      26.905  45.954  49.571  1.00  0.00     0.163 HD
BRANCH  10  13
HETATM   13  C   UNL     1      26.048  48.226  49.829  1.00  0.00     0.142 A 
HETATM   14  O   UNL     1      24.989  48.934  49.315  1.00  0.00    -0.317 OA
HETATM   15  C   UNL     1      25.501  49.851  48.453  1.00  0.00     0.143 A 
HETATM   16  C   UNL     1      26.871  49.747  48.395  1.00  0.00     0.027 A 
HETATM   17  C   UNL     1      27.225  48.702  49.283  1.00  0.00     0.045 A 
ENDBRANCH  10  13
ENDBRANCH   1   9
BRANCH   1  18
HETATM   18  C   UNL     1      25.078  43.820  50.771  1.00  0.00     0.240 C 
HETATM   19  N   UNL     1      23.834  44.411  50.771  1.00  0.00    -0.359 N 
HETATM   20  H   UNL     1      23.816  45.420  50.889  1.00  0.00     0.162 HD
HETATM   21  O   UNL     1      25.261  42.686  50.323  1.00  0.00    -0.271 OA
BRANCH  19  22
HETATM   22  C   UNL     1      22.716  43.785  50.086  1.00  0.00     0.127 C 
BRANCH  22  23
HETATM   23  C   UNL     1      22.427  44.380  48.704  1.00  0.00     0.058 C 
BRANCH  23  24
HETATM   24  C   UNL     1      21.664  45.687  48.614  1.00  0.00    -0.054 A 
HETATM   25  C   UNL     1      22.271  46.951  48.589  1.00  0.00     0.046 A 
HETATM   26  C   UNL     1      21.484  48.101  48.565  1.00  0.00     0.099 A 
HETATM   27  C   UNL     1      20.098  48.010  48.515  1.00  0.00     0.098 A 
HETATM   28  C   UNL     1      19.474  46.776  48.512  1.00  0.00     0.040 A 
HETATM   29  C   UNL     1      20.256  45.619  48.570  1.00  0.00     0.010 A 
BRANCH  26  30
HETATM   30  O   UNL     1      22.044  49.349  48.605  1.00  0.00    -0.358 OA
HETATM   31  H   UNL     1      21.931  49.747  47.723  1.00  0.00     0.218 HD
ENDBRANCH  26  30
BRANCH  27  32
HETATM   32  O   UNL     1      19.341  49.145  48.478  1.00  0.00    -0.358 OA
HETATM   33  H   UNL     1      19.329  49.396  47.532  1.00  0.00     0.218 HD
ENDBRANCH  27  32
ENDBRANCH  23  24
ENDBRANCH  22  23
ENDBRANCH  19  22
ENDBRANCH   1  18
TORSDOF 10
ENDMDL
MODEL 7
REMARK VINA RESULT:      -8.3      3.348      8.833
REMARK  10 active torsions:
REMARK  status: ('A' for Active; 'I' for Inactive)
REMARK    1  A    between atoms: C_4  and  C_5 
REMARK    2  A    between atoms: C_5  and  C_6 
REMARK    3  A    between atoms: C_6  and  N_7 
REMARK    4  A    between atoms: C_6  and  C_15 
REMARK       I    between atoms: N_7  and  C_8 
REMARK    5  A    between atoms: C_8  and  C_9 
REMARK       I    between atoms: C_15  and  N_16 
REMARK    6  A    between atoms: N_16  and  C_17 
REMARK    7  A    between atoms: C_17  and  C_18 
REMARK    8  A    between atoms: C_18  and  C_19 
REMARK    9  A    between atoms: C_21  and  O_22 
REMARK   10  A    between atoms: C_23  and  O_24 
ROOT
HETATM    1  C   UNL     1      24.999  44.397  50.683  1.00  0.00     0.181 C 
ENDROOT
BRANCH   1   2
HETATM    2  C   UNL     1      23.891  43.332  50.548  1.00  0.00     0.073 C 
BRANCH   2   3
HETATM    3  C   UNL     1      24.124  42.243  49.523  1.00  0.00    -0.056 A 
HETATM    4  C   UNL     1      23.086  41.750  48.717  1.00  0.00     0.007 A 
HETATM    5  C   UNL     1      23.343  40.813  47.714  1.00  0.00     0.001 A 
HETATM    6  C   UNL     1      24.644  40.370  47.487  1.00  0.00     0.000 A 
HETATM    7  C   UNL     1      25.688  40.862  48.267  1.00  0.00     0.001 A 
HETATM    8  C   UNL     1      25.430  41.791  49.277  1.00  0.00     0.007 A 
ENDBRANCH   2   3
ENDBRANCH   1   2
BRANCH   1   9
HETATM    9  N   UNL     1      24.632  45.729  50.191  1.00  0.00    -0.342 N 
HETATM   10  C   UNL     1      25.502  46.737  49.852  1.00  0.00     0.276 C 
HETATM   11  O   UNL     1      26.719  46.558  49.817  1.00  0.00    -0.265 OA
HETATM   12  H   UNL     1      23.652  45.990  50.229  1.00  0.00     0.163 HD
BRANCH  10  13
HETATM   13  C   UNL     1      24.857  47.978  49.483  1.00  0.00     0.142 A 
HETATM   14  O   UNL     1      23.509  48.125  49.699  1.00  0.00    -0.317 OA
HETATM   15  C   UNL     1      23.164  49.360  49.250  1.00  0.00     0.143 A 
HETATM   16  C   UNL     1      24.262  50.014  48.744  1.00  0.00     0.027 A 
HETATM   17  C   UNL     1      25.355  49.126  48.895  1.00  0.00     0.045 A 
ENDBRANCH  10  13
ENDBRANCH   1   9
BRANCH   1  18
HETATM   18  C   UNL     1      25.553  44.338  52.125  1.00  0.00     0.240 C 
HETATM   19  N   UNL     1      26.914  44.475  52.278  1.00  0.00    -0.359 N 
HETATM   20  H   UNL     1      27.432  44.763  51.453  1.00  0.00     0.162 HD
HETATM   21  O   UNL     1      24.787  44.316  53.091  1.00  0.00    -0.271 OA
BRANCH  19  22
HETATM   22  C   UNL     1      27.488  44.773  53.580  1.00  0.00     0.127 C 
BRANCH  22  23
HETATM   23  C   UNL     1      28.825  44.071  53.840  1.00  0.00     0.058 C 
BRANCH  23  24
HETATM   24  C   UNL     1      29.563  44.357  55.133  1.00  0.00    -0.054 A 
HETATM   25  C   UNL     1      30.595  43.557  55.642  1.00  0.00     0.046 A 
HETATM   26  C   UNL     1      31.176  43.866  56.870  1.00  0.00     0.099 A 
HETATM   27  C   UNL     1      30.777  44.992  57.579  1.00  0.00     0.098 A 
HETATM   28  C   UNL     1      29.778  45.814  57.088  1.00  0.00     0.040 A 
HETATM   29  C   UNL     1      29.168  45.491  55.873  1.00  0.00     0.010 A 
BRANCH  26  30
HETATM   30  O   UNL     1      32.141  43.069  57.424  1.00  0.00    -0.358 OA
HETATM   31  H   UNL     1      32.816  43.656  57.810  1.00  0.00     0.218 HD
ENDBRANCH  26  30
BRANCH  27  32
HETATM   32  O   UNL     1      31.363  45.290  58.774  1.00  0.00    -0.358 OA
HETATM   33  H   UNL     1      32.098  44.649  58.848  1.00  0.00     0.218 HD
ENDBRANCH  27  32
ENDBRANCH  23  24
ENDBRANCH  22  23
ENDBRANCH  19  22
ENDBRANCH   1  18
TORSDOF 10
ENDMDL
MODEL 8
REMARK VINA RESULT:      -8.3     12.332     13.798
REMARK  10 active torsions:
REMARK  status: ('A' for Active; 'I' for Inactive)
REMARK    1  A    between atoms: C_4  and  C_5 
REMARK    2  A    between atoms: C_5  and  C_6 
REMARK    3  A    between atoms: C_6  and  N_7 
REMARK    4  A    between atoms: C_6  and  C_15 
REMARK       I    between atoms: N_7  and  C_8 
REMARK    5  A    between atoms: C_8  and  C_9 
REMARK       I    between atoms: C_15  and  N_16 
REMARK    6  A    between atoms: N_16  and  C_17 
REMARK    7  A    between atoms: C_17  and  C_18 
REMARK    8  A    between atoms: C_18  and  C_19 
REMARK    9  A    between atoms: C_21  and  O_22 
REMARK   10  A    between atoms: C_23  and  O_24 
ROOT
HETATM    1  C   UNL     1      32.792  50.485  40.882  1.00  0.00     0.181 C 
ENDROOT
BRANCH   1   2
HETATM    2  C   UNL     1      33.896  50.058  41.872  1.00  0.00     0.073 C 
BRANCH   2   3
HETATM    3  C   UNL     1      35.170  50.876  41.855  1.00  0.00    -0.056 A 
HETATM    4  C   UNL     1      35.466  51.806  42.862  1.00  0.00     0.007 A 
HETATM    5  C   UNL     1      36.690  52.480  42.876  1.00  0.00     0.001 A 
HETATM    6  C   UNL     1      37.643  52.219  41.895  1.00  0.00     0.000 A 
HETATM    7  C   UNL     1      37.371  51.285  40.897  1.00  0.00     0.001 A 
HETATM    8  C   UNL     1      36.145  50.619  40.877  1.00  0.00     0.007 A 
ENDBRANCH   2   3
ENDBRANCH   1   2
BRANCH   1   9
HETATM    9  N   UNL     1      31.865  49.414  40.500  1.00  0.00    -0.342 N 
HETATM   10  C   UNL     1      31.119  49.361  39.348  1.00  0.00     0.276 C 
HETATM   11  O   UNL     1      31.262  50.183  38.444  1.00  0.00    -0.265 OA
HETATM   12  H   UNL     1      31.642  48.714  41.200  1.00  0.00     0.163 HD
BRANCH  10  13
HETATM   13  C   UNL     1      30.220  48.229  39.276  1.00  0.00     0.142 A 
HETATM   14  O   UNL     1      29.649  47.900  38.072  1.00  0.00    -0.317 OA
HETATM   15  C   UNL     1      28.845  46.826  38.290  1.00  0.00     0.143 A 
HETATM   16  C   UNL     1      28.881  46.457  39.613  1.00  0.00     0.027 A 
HETATM   17  C   UNL     1      29.768  47.359  40.251  1.00  0.00     0.045 A 
ENDBRANCH  10  13
ENDBRANCH   1   9
BRANCH   1  18
HETATM   18  C   UNL     1      32.144  51.785  41.411  1.00  0.00     0.240 C 
HETATM   19  N   UNL     1      31.828  52.749  40.481  1.00  0.00    -0.359 N 
HETATM   20  H   UNL     1      31.897  52.473  39.506  1.00  0.00     0.162 HD
HETATM   21  O   UNL     1      31.798  51.878  42.591  1.00  0.00    -0.271 OA
BRANCH  19  22
HETATM   22  C   UNL     1      30.924  53.836  40.818  1.00  0.00     0.127 C 
BRANCH  22  23
HETATM   23  C   UNL     1      29.623  53.831  40.008  1.00  0.00     0.058 C 
BRANCH  23  24
HETATM   24  C   UNL     1      28.773  52.576  39.996  1.00  0.00    -0.054 A 
HETATM   25  C   UNL     1      28.418  51.856  41.145  1.00  0.00     0.046 A 
HETATM   26  C   UNL     1      27.681  50.679  41.031  1.00  0.00     0.099 A 
HETATM   27  C   UNL     1      27.249  50.232  39.788  1.00  0.00     0.098 A 
HETATM   28  C   UNL     1      27.563  50.937  38.639  1.00  0.00     0.040 A 
HETATM   29  C   UNL     1      28.330  52.100  38.744  1.00  0.00     0.010 A 
BRANCH  26  30
HETATM   30  O   UNL     1      27.374  49.920  42.127  1.00  0.00    -0.358 OA
HETATM   31  H   UNL     1      27.704  49.018  41.957  1.00  0.00     0.218 HD
ENDBRANCH  26  30
BRANCH  27  32
HETATM   32  O   UNL     1      26.517  49.085  39.691  1.00  0.00    -0.358 OA
HETATM   33  H   UNL     1      25.588  49.391  39.689  1.00  0.00     0.218 HD
ENDBRANCH  27  32
ENDBRANCH  23  24
ENDBRANCH  22  23
ENDBRANCH  19  22
ENDBRANCH   1  18
TORSDOF 10
ENDMDL
MODEL 9
REMARK VINA RESULT:      -8.2     12.715     14.825
REMARK  10 active torsions:
REMARK  status: ('A' for Active; 'I' for Inactive)
REMARK    1  A    between atoms: C_4  and  C_5 
REMARK    2  A    between atoms: C_5  and  C_6 
REMARK    3  A    between atoms: C_6  and  N_7 
REMARK    4  A    between atoms: C_6  and  C_15 
REMARK       I    between atoms: N_7  and  C_8 
REMARK    5  A    between atoms: C_8  and  C_9 
REMARK       I    between atoms: C_15  and  N_16 
REMARK    6  A    between atoms: N_16  and  C_17 
REMARK    7  A    between atoms: C_17  and  C_18 
REMARK    8  A    between atoms: C_18  and  C_19 
REMARK    9  A    between atoms: C_21  and  O_22 
REMARK   10  A    between atoms: C_23  and  O_24 
ROOT
HETATM    1  C   UNL     1      26.405  49.964  39.319  1.00  0.00     0.181 C 
ENDROOT
BRANCH   1   2
HETATM    2  C   UNL     1      26.993  48.907  40.278  1.00  0.00     0.073 C 
BRANCH   2   3
HETATM    3  C   UNL     1      28.490  48.694  40.210  1.00  0.00    -0.056 A 
HETATM    4  C   UNL     1      29.284  48.645  41.366  1.00  0.00     0.007 A 
HETATM    5  C   UNL     1      30.648  48.353  41.284  1.00  0.00     0.001 A 
HETATM    6  C   UNL     1      31.233  48.086  40.049  1.00  0.00     0.000 A 
HETATM    7  C   UNL     1      30.455  48.114  38.894  1.00  0.00     0.001 A 
HETATM    8  C   UNL     1      29.094  48.416  38.974  1.00  0.00     0.007 A 
ENDBRANCH   2   3
ENDBRANCH   1   2
BRANCH   1   9
HETATM    9  N   UNL     1      24.953  50.146  39.425  1.00  0.00    -0.342 N 
HETATM   10  C   UNL     1      24.018  49.768  38.493  1.00  0.00     0.276 C 
HETATM   11  O   UNL     1      24.322  49.106  37.501  1.00  0.00    -0.265 OA
HETATM   12  H   UNL     1      24.607  50.725  40.184  1.00  0.00     0.163 HD
BRANCH  10  13
HETATM   13  C   UNL     1      22.663  50.156  38.820  1.00  0.00     0.142 A 
HETATM   14  O   UNL     1      21.680  50.032  37.870  1.00  0.00    -0.317 OA
HETATM   15  C   UNL     1      20.525  50.479  38.429  1.00  0.00     0.143 A 
HETATM   16  C   UNL     1      20.742  50.894  39.721  1.00  0.00     0.027 A 
HETATM   17  C   UNL     1      22.120  50.685  39.976  1.00  0.00     0.045 A 
ENDBRANCH  10  13
ENDBRANCH   1   9
BRANCH   1  18
HETATM   18  C   UNL     1      27.259  51.247  39.432  1.00  0.00     0.240 C 
HETATM   19  N   UNL     1      27.399  51.796  40.687  1.00  0.00    -0.359 N 
HETATM   20  H   UNL     1      27.065  51.233  41.464  1.00  0.00     0.162 HD
HETATM   21  O   UNL     1      27.897  51.663  38.464  1.00  0.00    -0.271 OA
BRANCH  19  22
HETATM   22  C   UNL     1      28.435  52.779  40.955  1.00  0.00     0.127 C 
BRANCH  22  23
HETATM   23  C   UNL     1      29.689  52.191  41.612  1.00  0.00     0.058 C 
BRANCH  23  24
HETATM   24  C   UNL     1      30.922  51.961  40.762  1.00  0.00    -0.054 A 
HETATM   25  C   UNL     1      30.901  51.830  39.366  1.00  0.00     0.046 A 
HETATM   26  C   UNL     1      32.080  51.562  38.674  1.00  0.00     0.099 A 
HETATM   27  C   UNL     1      33.292  51.470  39.347  1.00  0.00     0.098 A 
HETATM   28  C   UNL     1      33.346  51.621  40.721  1.00  0.00     0.040 A 
HETATM   29  C   UNL     1      32.162  51.857  41.426  1.00  0.00     0.010 A 
BRANCH  26  30
HETATM   30  O   UNL     1      32.083  51.364  37.320  1.00  0.00    -0.358 OA
HETATM   31  H   UNL     1      31.934  52.231  36.899  1.00  0.00     0.218 HD
ENDBRANCH  26  30
BRANCH  27  32
HETATM   32  O   UNL     1      34.441  51.220  38.654  1.00  0.00    -0.358 OA
HETATM   33  H   UNL     1      34.460  50.246  38.564  1.00  0.00     0.218 HD
ENDBRANCH  27  32
ENDBRANCH  23  24
ENDBRANCH  22  23
ENDBRANCH  19  22
ENDBRANCH   1  18
TORSDOF 10
ENDMDL
MODEL 10
REMARK VINA RESULT:      -8.1     11.801     14.333
REMARK  10 active torsions:
REMARK  status: ('A' for Active; 'I' for Inactive)
REMARK    1  A    between atoms: C_4  and  C_5 
REMARK    2  A    between atoms: C_5  and  C_6 
REMARK    3  A    between atoms: C_6  and  N_7 
REMARK    4  A    between atoms: C_6  and  C_15 
REMARK       I    between atoms: N_7  and  C_8 
REMARK    5  A    between atoms: C_8  and  C_9 
REMARK       I    between atoms: C_15  and  N_16 
REMARK    6  A    between atoms: N_16  and  C_17 
REMARK    7  A    between atoms: C_17  and  C_18 
REMARK    8  A    between atoms: C_18  and  C_19 
REMARK    9  A    between atoms: C_21  and  O_22 
REMARK   10  A    between atoms: C_23  and  O_24 
ROOT
HETATM    1  C   UNL     1      33.573  51.292  42.088  1.00  0.00     0.181 C 
ENDROOT
BRANCH   1   2
HETATM    2  C   UNL     1      32.187  51.641  42.670  1.00  0.00     0.073 C 
BRANCH   2   3
HETATM    3  C   UNL     1      31.120  52.046  41.675  1.00  0.00    -0.056 A 
HETATM    4  C   UNL     1      29.873  52.540  42.087  1.00  0.00     0.007 A 
HETATM    5  C   UNL     1      28.941  52.996  41.152  1.00  0.00     0.001 A 
HETATM    6  C   UNL     1      29.249  52.983  39.794  1.00  0.00     0.000 A 
HETATM    7  C   UNL     1      30.489  52.512  39.370  1.00  0.00     0.001 A 
HETATM    8  C   UNL     1      31.417  52.047  40.303  1.00  0.00     0.007 A 
ENDBRANCH   2   3
ENDBRANCH   1   2
BRANCH   1   9
HETATM    9  N   UNL     1      34.709  51.787  42.873  1.00  0.00    -0.342 N 
HETATM   10  C   UNL     1      35.938  52.152  42.379  1.00  0.00     0.276 C 
HETATM   11  O   UNL     1      36.158  52.212  41.170  1.00  0.00    -0.265 OA
HETATM   12  H   UNL     1      34.642  51.729  43.884  1.00  0.00     0.163 HD
BRANCH  10  13
HETATM   13  C   UNL     1      36.901  52.517  43.395  1.00  0.00     0.142 A 
HETATM   14  O   UNL     1      38.221  52.184  43.221  1.00  0.00    -0.317 OA
HETATM   15  C   UNL     1      38.893  52.622  44.317  1.00  0.00     0.143 A 
HETATM   16  C   UNL     1      38.032  53.228  45.201  1.00  0.00     0.027 A 
HETATM   17  C   UNL     1      36.747  53.163  44.608  1.00  0.00     0.045 A 
ENDBRANCH  10  13
ENDBRANCH   1   9
BRANCH   1  18
HETATM   18  C   UNL     1      33.589  49.784  41.751  1.00  0.00     0.240 C 
HETATM   19  N   UNL     1      32.511  49.038  42.172  1.00  0.00    -0.359 N 
HETATM   20  H   UNL     1      31.717  49.559  42.531  1.00  0.00     0.162 HD
HETATM   21  O   UNL     1      34.458  49.315  41.013  1.00  0.00    -0.271 OA
BRANCH  19  22
HETATM   22  C   UNL     1      32.265  47.714  41.623  1.00  0.00     0.127 C 
BRANCH  22  23
HETATM   23  C   UNL     1      31.475  47.728  40.310  1.00  0.00     0.058 C 
BRANCH  23  24
HETATM   24  C   UNL     1      30.145  48.452  40.263  1.00  0.00    -0.054 A 
HETATM   25  C   UNL     1      29.395  48.793  41.397  1.00  0.00     0.046 A 
HETATM   26  C   UNL     1      28.153  49.408  41.253  1.00  0.00     0.099 A 
HETATM   27  C   UNL     1      27.666  49.734  39.993  1.00  0.00     0.098 A 
HETATM   28  C   UNL     1      28.397  49.432  38.857  1.00  0.00     0.040 A 
HETATM   29  C   UNL     1      29.628  48.785  38.993  1.00  0.00     0.010 A 
BRANCH  26  30
HETATM   30  O   UNL     1      27.368  49.695  42.337  1.00  0.00    -0.358 OA
HETATM   31  H   UNL     1      26.518  50.032  41.999  1.00  0.00     0.218 HD
ENDBRANCH  26  30
BRANCH  27  32
HETATM   32  O   UNL     1      26.454  50.347  39.867  1.00  0.00    -0.358 OA
HETATM   33  H   UNL     1      26.636  51.129  39.308  1.00  0.00     0.218 HD
ENDBRANCH  27  32
ENDBRANCH  23  24
ENDBRANCH  22  23
ENDBRANCH  19  22
ENDBRANCH   1  18
TORSDOF 10
ENDMDL
