MODEL 1
REMARK VINA RESULT:      -7.5      0.000      0.000
REMARK  5 active torsions:
REMARK  status: ('A' for Active; 'I' for Inactive)
REMARK    1  A    between atoms: C_2  and  C_3 
REMARK    2  A    between atoms: C_3  and  N_4 
REMARK       I    between atoms: N_4  and  C_5 
REMARK    3  A    between atoms: C_5  and  C_6 
REMARK    4  A    between atoms: C_7  and  O_8 
REMARK    5  A    between atoms: O_8  and  C_9 
ROOT
HETATM    1  C   UNL     1      18.868  49.900  49.650  1.00  0.00     0.121 C 
HETATM    2  C   UNL     1      18.644  49.215  50.959  1.00  0.00     0.091 C 
HETATM    3  N   UNL     1      18.495  48.655  51.966  1.00  0.00    -0.195 NA
HETATM    4  C   UNL     1      17.483  50.098  48.998  1.00  0.00     0.055 C 
ENDROOT
BRANCH   1   5
HETATM    5  C   UNL     1      19.600  51.270  49.881  1.00  0.00     0.020 C 
HETATM    6  C   UNL     1      19.479  52.222  48.679  1.00  0.00     0.013 C 
HETATM    7  C   UNL     1      21.083  51.127  50.258  1.00  0.00     0.013 C 
ENDBRANCH   1   5
BRANCH   1   8
HETATM    8  N   UNL     1      19.687  48.998  48.805  1.00  0.00    -0.335 N 
HETATM    9  C   UNL     1      19.262  47.792  48.298  1.00  0.00     0.257 C 
HETATM   10  O   UNL     1      18.144  47.340  48.522  1.00  0.00    -0.267 OA
HETATM   11  H   UNL     1      20.623  49.317  48.576  1.00  0.00     0.164 HD
BRANCH   9  12
HETATM   12  C   UNL     1      20.191  47.028  47.417  1.00  0.00     0.085 A 
HETATM   13  C   UNL     1      21.518  46.718  47.716  1.00  0.00     0.185 A 
HETATM   14  N   UNL     1      22.340  46.049  46.863  1.00  0.00    -0.236 NA
HETATM   15  C   UNL     1      21.822  45.643  45.686  1.00  0.00     0.119 A 
HETATM   16  C   UNL     1      20.515  45.877  45.307  1.00  0.00     0.020 A 
HETATM   17  C   UNL     1      19.693  46.579  46.186  1.00  0.00     0.023 A 
BRANCH  13  18
HETATM   18  O   UNL     1      22.044  47.155  48.927  1.00  0.00    -0.291 OA
BRANCH  18  19
HETATM   19  C   UNL     1      23.199  47.900  48.901  1.00  0.00     0.078 A 
HETATM   20  C   UNL     1      24.308  47.378  49.568  1.00  0.00     0.039 A 
HETATM   21  C   UNL     1      25.526  48.060  49.532  1.00  0.00     0.026 A 
HETATM   22  C   UNL     1      25.630  49.253  48.816  1.00  0.00     0.034 A 
HETATM   23 CL   UNL     1      27.129  50.097  48.777  1.00  0.00    -0.084 Cl
HETATM   24  C   UNL     1      24.530  49.763  48.126  1.00  0.00     0.026 A 
HETATM   25  C   UNL     1      23.313  49.079  48.158  1.00  0.00     0.039 A 
ENDBRANCH  18  19
ENDBRANCH  13  18
ENDBRANCH   9  12
ENDBRANCH   1   8
TORSDOF 5
ENDMDL
MODEL 2
REMARK VINA RESULT:      -7.4      2.657      4.645
REMARK  5 active torsions:
REMARK  status: ('A' for Active; 'I' for Inactive)
REMARK    1  A    between atoms: C_2  and  C_3 
REMARK    2  A    between atoms: C_3  and  N_4 
REMARK       I    between atoms: N_4  and  C_5 
REMARK    3  A    between atoms: C_5  and  C_6 
REMARK    4  A    between atoms: C_7  and  O_8 
REMARK    5  A    between atoms: O_8  and  C_9 
ROOT
HETATM    1  C   UNL     1      19.164  47.119  48.239  1.00  0.00     0.121 C 
HETATM    2  C   UNL     1      18.943  45.650  48.078  1.00  0.00     0.091 C 
HETATM    3  N   UNL     1      18.805  44.501  47.971  1.00  0.00    -0.195 NA
HETATM    4  C   UNL     1      19.068  47.750  46.834  1.00  0.00     0.055 C 
ENDROOT
BRANCH   1   5
HETATM    5  C   UNL     1      18.089  47.716  49.216  1.00  0.00     0.020 C 
HETATM    6  C   UNL     1      17.205  48.784  48.551  1.00  0.00     0.013 C 
HETATM    7  C   UNL     1      18.680  48.294  50.513  1.00  0.00     0.013 C 
ENDBRANCH   1   5
BRANCH   1   8
HETATM    8  N   UNL     1      20.532  47.311  48.776  1.00  0.00    -0.335 N 
HETATM    9  C   UNL     1      21.689  47.205  48.040  1.00  0.00     0.257 C 
HETATM   10  O   UNL     1      21.687  46.917  46.847  1.00  0.00    -0.267 OA
HETATM   11  H   UNL     1      20.604  47.560  49.758  1.00  0.00     0.164 HD
BRANCH   9  12
HETATM   12  C   UNL     1      22.988  47.485  48.717  1.00  0.00     0.085 A 
HETATM   13  C   UNL     1      23.676  48.697  48.676  1.00  0.00     0.185 A 
HETATM   14  N   UNL     1      24.880  48.894  49.278  1.00  0.00    -0.236 NA
HETATM   15  C   UNL     1      25.405  47.866  49.977  1.00  0.00     0.119 A 
HETATM   16  C   UNL     1      24.790  46.636  50.100  1.00  0.00     0.020 A 
HETATM   17  C   UNL     1      23.567  46.446  49.460  1.00  0.00     0.023 A 
BRANCH  13  18
HETATM   18  O   UNL     1      23.132  49.744  47.941  1.00  0.00    -0.291 OA
BRANCH  18  19
HETATM   19  C   UNL     1      21.957  50.305  48.382  1.00  0.00     0.078 A 
HETATM   20  C   UNL     1      21.857  50.579  49.747  1.00  0.00     0.039 A 
HETATM   21  C   UNL     1      20.711  51.200  50.249  1.00  0.00     0.026 A 
HETATM   22  C   UNL     1      19.679  51.556  49.380  1.00  0.00     0.034 A 
HETATM   23 CL   UNL     1      18.265  52.315  49.998  1.00  0.00    -0.084 Cl
HETATM   24  C   UNL     1      19.790  51.308  48.011  1.00  0.00     0.026 A 
HETATM   25  C   UNL     1      20.937  50.691  47.508  1.00  0.00     0.039 A 
ENDBRANCH  18  19
ENDBRANCH  13  18
ENDBRANCH   9  12
ENDBRANCH   1   8
TORSDOF 5
ENDMDL
MODEL 3
REMARK VINA RESULT:      -7.3      3.777      7.403
REMARK  5 active torsions:
REMARK  status: ('A' for Active; 'I' for Inactive)
REMARK    1  A    between atoms: C_2  and  C_3 
REMARK    2  A    between atoms: C_3  and  N_4 
REMARK       I    between atoms: N_4  and  C_5 
REMARK    3  A    between atoms: C_5  and  C_6 
REMARK    4  A    between atoms: C_7  and  O_8 
REMARK    5  A    between atoms: O_8  and  C_9 
ROOT
HETATM    1  C   UNL     1      26.048  44.559  51.249  1.00  0.00     0.121 C 
HETATM    2  C   UNL     1      26.569  43.399  50.465  1.00  0.00     0.091 C 
HETATM    3  N   UNL     1      26.985  42.521  49.827  1.00  0.00    -0.195 NA
HETATM    4  C   UNL     1      24.573  44.254  51.587  1.00  0.00     0.055 C 
ENDROOT
BRANCH   1   5
HETATM    5  C   UNL     1      26.910  44.756  52.547  1.00  0.00     0.020 C 
HETATM    6  C   UNL     1      28.193  43.909  52.546  1.00  0.00     0.013 C 
HETATM    7  C   UNL     1      26.140  44.495  53.852  1.00  0.00     0.013 C 
ENDBRANCH   1   5
BRANCH   1   8
HETATM    8  N   UNL     1      26.119  45.757  50.380  1.00  0.00    -0.335 N 
HETATM    9  C   UNL     1      25.629  46.999  50.710  1.00  0.00     0.257 C 
HETATM   10  O   UNL     1      25.061  47.223  51.774  1.00  0.00    -0.267 OA
HETATM   11  H   UNL     1      26.584  45.642  49.485  1.00  0.00     0.164 HD
BRANCH   9  12
HETATM   12  C   UNL     1      25.830  48.119  49.746  1.00  0.00     0.085 A 
HETATM   13  C   UNL     1      24.831  48.705  48.968  1.00  0.00     0.185 A 
HETATM   14  N   UNL     1      25.068  49.701  48.072  1.00  0.00    -0.236 NA
HETATM   15  C   UNL     1      26.333  50.157  47.966  1.00  0.00     0.119 A 
HETATM   16  C   UNL     1      27.387  49.661  48.708  1.00  0.00     0.020 A 
HETATM   17  C   UNL     1      27.128  48.629  49.607  1.00  0.00     0.023 A 
BRANCH  13  18
HETATM   18  O   UNL     1      23.534  48.216  49.077  1.00  0.00    -0.291 OA
BRANCH  18  19
HETATM   19  C   UNL     1      22.492  49.096  48.907  1.00  0.00     0.078 A 
HETATM   20  C   UNL     1      22.427  50.183  49.780  1.00  0.00     0.039 A 
HETATM   21  C   UNL     1      21.424  51.142  49.623  1.00  0.00     0.026 A 
HETATM   22  C   UNL     1      20.502  51.016  48.584  1.00  0.00     0.034 A 
HETATM   23 CL   UNL     1      19.263  52.194  48.395  1.00  0.00    -0.084 Cl
HETATM   24  C   UNL     1      20.581  49.945  47.694  1.00  0.00     0.026 A 
HETATM   25  C   UNL     1      21.586  48.988  47.847  1.00  0.00     0.039 A 
ENDBRANCH  18  19
ENDBRANCH  13  18
ENDBRANCH   9  12
ENDBRANCH   1   8
TORSDOF 5
ENDMDL
MODEL 4
REMARK VINA RESULT:      -7.3      3.059      4.826
REMARK  5 active torsions:
REMARK  status: ('A' for Active; 'I' for Inactive)
REMARK    1  A    between atoms: C_2  and  C_3 
REMARK    2  A    between atoms: C_3  and  N_4 
REMARK       I    between atoms: N_4  and  C_5 
REMARK    3  A    between atoms: C_5  and  C_6 
REMARK    4  A    between atoms: C_7  and  O_8 
REMARK    5  A    between atoms: O_8  and  C_9 
ROOT
HETATM    1  C   UNL     1      20.612  49.534  49.105  1.00  0.00     0.121 C 
HETATM    2  C   UNL     1      20.042  48.161  48.951  1.00  0.00     0.091 C 
HETATM    3  N   UNL     1      19.634  47.079  48.842  1.00  0.00    -0.195 NA
HETATM    4  C   UNL     1      20.374  50.276  47.773  1.00  0.00     0.055 C 
ENDROOT
BRANCH   1   5
HETATM    5  C   UNL     1      19.920  50.268  50.308  1.00  0.00     0.020 C 
HETATM    6  C   UNL     1      18.879  49.391  51.023  1.00  0.00     0.013 C 
HETATM    7  C   UNL     1      19.268  51.608  49.928  1.00  0.00     0.013 C 
ENDBRANCH   1   5
BRANCH   1   8
HETATM    8  N   UNL     1      22.069  49.392  49.339  1.00  0.00    -0.335 N 
HETATM    9  C   UNL     1      22.957  48.827  48.454  1.00  0.00     0.257 C 
HETATM   10  O   UNL     1      22.607  48.364  47.373  1.00  0.00    -0.267 OA
HETATM   11  H   UNL     1      22.426  49.763  50.213  1.00  0.00     0.164 HD
BRANCH   9  12
HETATM   12  C   UNL     1      24.404  48.811  48.816  1.00  0.00     0.085 A 
HETATM   13  C   UNL     1      25.000  47.934  49.721  1.00  0.00     0.185 A 
HETATM   14  N   UNL     1      26.320  47.980  50.050  1.00  0.00    -0.236 NA
HETATM   15  C   UNL     1      27.084  48.906  49.434  1.00  0.00     0.119 A 
HETATM   16  C   UNL     1      26.595  49.802  48.504  1.00  0.00     0.020 A 
HETATM   17  C   UNL     1      25.237  49.752  48.195  1.00  0.00     0.023 A 
BRANCH  13  18
HETATM   18  O   UNL     1      24.199  46.993  50.360  1.00  0.00    -0.291 OA
BRANCH  18  19
HETATM   19  C   UNL     1      24.617  45.684  50.370  1.00  0.00     0.078 A 
HETATM   20  C   UNL     1      24.791  45.082  51.618  1.00  0.00     0.039 A 
HETATM   21  C   UNL     1      25.161  43.737  51.694  1.00  0.00     0.026 A 
HETATM   22  C   UNL     1      25.339  43.000  50.524  1.00  0.00     0.034 A 
HETATM   23 CL   UNL     1      25.801  41.345  50.618  1.00  0.00    -0.084 Cl
HETATM   24  C   UNL     1      25.139  43.593  49.277  1.00  0.00     0.026 A 
HETATM   25  C   UNL     1      24.765  44.936  49.199  1.00  0.00     0.039 A 
ENDBRANCH  18  19
ENDBRANCH  13  18
ENDBRANCH   9  12
ENDBRANCH   1   8
TORSDOF 5
ENDMDL
MODEL 5
REMARK VINA RESULT:      -7.1     11.333     12.637
REMARK  5 active torsions:
REMARK  status: ('A' for Active; 'I' for Inactive)
REMARK    1  A    between atoms: C_2  and  C_3 
REMARK    2  A    between atoms: C_3  and  N_4 
REMARK       I    between atoms: N_4  and  C_5 
REMARK    3  A    between atoms: C_5  and  C_6 
REMARK    4  A    between atoms: C_7  and  O_8 
REMARK    5  A    between atoms: O_8  and  C_9 
ROOT
HETATM    1  C   UNL     1      29.741  52.202  39.809  1.00  0.00     0.121 C 
HETATM    2  C   UNL     1      29.117  52.736  38.561  1.00  0.00     0.091 C 
HETATM    3  N   UNL     1      28.614  53.117  37.585  1.00  0.00    -0.195 NA
HETATM    4  C   UNL     1      31.266  52.402  39.676  1.00  0.00     0.055 C 
ENDROOT
BRANCH   1   5
HETATM    5  C   UNL     1      29.165  52.957  41.060  1.00  0.00     0.020 C 
HETATM    6  C   UNL     1      30.046  52.800  42.311  1.00  0.00     0.013 C 
HETATM    7  C   UNL     1      27.721  52.564  41.414  1.00  0.00     0.013 C 
ENDBRANCH   1   5
BRANCH   1   8
HETATM    8  N   UNL     1      29.437  50.753  39.880  1.00  0.00    -0.335 N 
HETATM    9  C   UNL     1      29.879  49.811  38.981  1.00  0.00     0.257 C 
HETATM   10  O   UNL     1      30.568  50.100  38.007  1.00  0.00    -0.267 OA
HETATM   11  H   UNL     1      28.876  50.445  40.668  1.00  0.00     0.164 HD
BRANCH   9  12
HETATM   12  C   UNL     1      29.531  48.382  39.224  1.00  0.00     0.085 A 
HETATM   13  C   UNL     1      30.413  47.401  39.676  1.00  0.00     0.185 A 
HETATM   14  N   UNL     1      30.060  46.098  39.847  1.00  0.00    -0.236 NA
HETATM   15  C   UNL     1      28.779  45.760  39.595  1.00  0.00     0.119 A 
HETATM   16  C   UNL     1      27.823  46.661  39.169  1.00  0.00     0.020 A 
HETATM   17  C   UNL     1      28.208  47.987  38.981  1.00  0.00     0.023 A 
BRANCH  13  18
HETATM   18  O   UNL     1      31.735  47.758  39.919  1.00  0.00    -0.291 OA
BRANCH  18  19
HETATM   19  C   UNL     1      31.998  48.592  40.979  1.00  0.00     0.078 A 
HETATM   20  C   UNL     1      33.055  49.493  40.834  1.00  0.00     0.039 A 
HETATM   21  C   UNL     1      33.336  50.404  41.854  1.00  0.00     0.026 A 
HETATM   22  C   UNL     1      32.549  50.419  43.006  1.00  0.00     0.034 A 
HETATM   23 CL   UNL     1      32.900  51.538  44.265  1.00  0.00    -0.084 Cl
HETATM   24  C   UNL     1      31.476  49.539  43.141  1.00  0.00     0.026 A 
HETATM   25  C   UNL     1      31.191  48.630  42.120  1.00  0.00     0.039 A 
ENDBRANCH  18  19
ENDBRANCH  13  18
ENDBRANCH   9  12
ENDBRANCH   1   8
TORSDOF 5
ENDMDL
MODEL 6
REMARK VINA RESULT:      -7.0     12.238     14.315
REMARK  5 active torsions:
REMARK  status: ('A' for Active; 'I' for Inactive)
REMARK    1  A    between atoms: C_2  and  C_3 
REMARK    2  A    between atoms: C_3  and  N_4 
REMARK       I    between atoms: N_4  and  C_5 
REMARK    3  A    between atoms: C_5  and  C_6 
REMARK    4  A    between atoms: C_7  and  O_8 
REMARK    5  A    between atoms: O_8  and  C_9 
ROOT
HETATM    1  C   UNL     1      33.728  50.249  41.254  1.00  0.00     0.121 C 
HETATM    2  C   UNL     1      33.464  48.781  41.343  1.00  0.00     0.091 C 
HETATM    3  N   UNL     1      33.231  47.644  41.385  1.00  0.00    -0.195 NA
HETATM    4  C   UNL     1      33.623  50.818  42.685  1.00  0.00     0.055 C 
ENDROOT
BRANCH   1   5
HETATM    5  C   UNL     1      35.150  50.500  40.635  1.00  0.00     0.020 C 
HETATM    6  C   UNL     1      36.250  50.635  41.701  1.00  0.00     0.013 C 
HETATM    7  C   UNL     1      35.214  51.714  39.694  1.00  0.00     0.013 C 
ENDBRANCH   1   5
BRANCH   1   8
HETATM    8  N   UNL     1      32.669  50.846  40.405  1.00  0.00    -0.335 N 
HETATM    9  C   UNL     1      31.342  50.937  40.752  1.00  0.00     0.257 C 
HETATM   10  O   UNL     1      30.906  50.504  41.814  1.00  0.00    -0.267 OA
HETATM   11  H   UNL     1      32.965  51.230  39.514  1.00  0.00     0.164 HD
BRANCH   9  12
HETATM   12  C   UNL     1      30.409  51.618  39.809  1.00  0.00     0.085 A 
HETATM   13  C   UNL     1      29.972  51.101  38.589  1.00  0.00     0.185 A 
HETATM   14  N   UNL     1      29.149  51.775  37.742  1.00  0.00    -0.236 NA
HETATM   15  C   UNL     1      28.714  52.992  38.131  1.00  0.00     0.119 A 
HETATM   16  C   UNL     1      29.067  53.580  39.329  1.00  0.00     0.020 A 
HETATM   17  C   UNL     1      29.926  52.882  40.175  1.00  0.00     0.023 A 
BRANCH  13  18
HETATM   18  O   UNL     1      30.439  49.852  38.193  1.00  0.00    -0.291 OA
BRANCH  18  19
HETATM   19  C   UNL     1      29.793  48.736  38.669  1.00  0.00     0.078 A 
HETATM   20  C   UNL     1      30.587  47.649  39.037  1.00  0.00     0.039 A 
HETATM   21  C   UNL     1      29.994  46.507  39.579  1.00  0.00     0.026 A 
HETATM   22  C   UNL     1      28.612  46.466  39.766  1.00  0.00     0.034 A 
HETATM   23 CL   UNL     1      27.881  45.057  40.428  1.00  0.00    -0.084 Cl
HETATM   24  C   UNL     1      27.820  47.562  39.424  1.00  0.00     0.026 A 
HETATM   25  C   UNL     1      28.412  48.706  38.886  1.00  0.00     0.039 A 
ENDBRANCH  18  19
ENDBRANCH  13  18
ENDBRANCH   9  12
ENDBRANCH   1   8
TORSDOF 5
ENDMDL
MODEL 7
REMARK VINA RESULT:      -7.0     11.602     13.665
REMARK  5 active torsions:
REMARK  status: ('A' for Active; 'I' for Inactive)
REMARK    1  A    between atoms: C_2  and  C_3 
REMARK    2  A    between atoms: C_3  and  N_4 
REMARK       I    between atoms: N_4  and  C_5 
REMARK    3  A    between atoms: C_5  and  C_6 
REMARK    4  A    between atoms: C_7  and  O_8 
REMARK    5  A    between atoms: O_8  and  C_9 
ROOT
HETATM    1  C   UNL     1      29.385  52.201  40.279  1.00  0.00     0.121 C 
HETATM    2  C   UNL     1      29.380  53.666  39.987  1.00  0.00     0.091 C 
HETATM    3  N   UNL     1      29.414  54.803  39.750  1.00  0.00    -0.195 NA
HETATM    4  C   UNL     1      28.881  52.025  41.727  1.00  0.00     0.055 C 
ENDROOT
BRANCH   1   5
HETATM    5  C   UNL     1      28.466  51.448  39.251  1.00  0.00     0.020 C 
HETATM    6  C   UNL     1      27.296  50.712  39.924  1.00  0.00     0.013 C 
HETATM    7  C   UNL     1      29.223  50.462  38.347  1.00  0.00     0.013 C 
ENDBRANCH   1   5
BRANCH   1   8
HETATM    8  N   UNL     1      30.786  51.728  40.182  1.00  0.00    -0.335 N 
HETATM    9  C   UNL     1      31.798  52.083  41.042  1.00  0.00     0.257 C 
HETATM   10  O   UNL     1      31.627  52.857  41.979  1.00  0.00    -0.267 OA
HETATM   11  H   UNL     1      30.994  51.077  39.431  1.00  0.00     0.164 HD
BRANCH   9  12
HETATM   12  C   UNL     1      33.145  51.475  40.842  1.00  0.00     0.085 A 
HETATM   13  C   UNL     1      33.597  50.297  41.437  1.00  0.00     0.185 A 
HETATM   14  N   UNL     1      34.850  49.799  41.254  1.00  0.00    -0.236 NA
HETATM   15  C   UNL     1      35.674  50.472  40.425  1.00  0.00     0.119 A 
HETATM   16  C   UNL     1      35.313  51.632  39.767  1.00  0.00     0.020 A 
HETATM   17  C   UNL     1      34.032  52.137  39.982  1.00  0.00     0.023 A 
BRANCH  13  18
HETATM   18  O   UNL     1      32.743  49.621  42.302  1.00  0.00    -0.291 OA
BRANCH  18  19
HETATM   19  C   UNL     1      31.714  48.890  41.758  1.00  0.00     0.078 A 
HETATM   20  C   UNL     1      30.469  48.981  42.381  1.00  0.00     0.039 A 
HETATM   21  C   UNL     1      29.371  48.306  41.844  1.00  0.00     0.026 A 
HETATM   22  C   UNL     1      29.522  47.556  40.678  1.00  0.00     0.034 A 
HETATM   23 CL   UNL     1      28.172  46.718  40.019  1.00  0.00    -0.084 Cl
HETATM   24  C   UNL     1      30.760  47.485  40.038  1.00  0.00     0.026 A 
HETATM   25  C   UNL     1      31.858  48.164  40.572  1.00  0.00     0.039 A 
ENDBRANCH  18  19
ENDBRANCH  13  18
ENDBRANCH   9  12
ENDBRANCH   1   8
TORSDOF 5
ENDMDL
MODEL 8
REMARK VINA RESULT:      -7.0      6.692      9.208
REMARK  5 active torsions:
REMARK  status: ('A' for Active; 'I' for Inactive)
REMARK    1  A    between atoms: C_2  and  C_3 
REMARK    2  A    between atoms: C_3  and  N_4 
REMARK       I    between atoms: N_4  and  C_5 
REMARK    3  A    between atoms: C_5  and  C_6 
REMARK    4  A    between atoms: C_7  and  O_8 
REMARK    5  A    between atoms: O_8  and  C_9 
ROOT
HETATM    1  C   UNL     1      25.589  46.106  50.524  1.00  0.00     0.121 C 
HETATM    2  C   UNL     1      26.649  46.768  49.705  1.00  0.00     0.091 C 
HETATM    3  N   UNL     1      27.497  47.255  49.078  1.00  0.00    -0.195 NA
HETATM    4  C   UNL     1      25.064  47.157  51.524  1.00  0.00     0.055 C 
ENDROOT
BRANCH   1   5
HETATM    5  C   UNL     1      24.445  45.575  49.588  1.00  0.00     0.020 C 
HETATM    6  C   UNL     1      23.505  46.691  49.102  1.00  0.00     0.013 C 
HETATM    7  C   UNL     1      23.602  44.450  50.212  1.00  0.00     0.013 C 
ENDBRANCH   1   5
BRANCH   1   8
HETATM    8  N   UNL     1      26.225  44.991  51.266  1.00  0.00    -0.335 N 
HETATM    9  C   UNL     1      27.004  44.010  50.697  1.00  0.00     0.257 C 
HETATM   10  O   UNL     1      27.229  43.963  49.492  1.00  0.00    -0.267 OA
HETATM   11  H   UNL     1      26.084  44.975  52.270  1.00  0.00     0.164 HD
BRANCH   9  12
HETATM   12  C   UNL     1      27.619  42.988  51.591  1.00  0.00     0.085 A 
HETATM   13  C   UNL     1      28.018  43.202  52.910  1.00  0.00     0.185 A 
HETATM   14  N   UNL     1      28.612  42.248  53.677  1.00  0.00    -0.236 NA
HETATM   15  C   UNL     1      28.786  41.027  53.130  1.00  0.00     0.119 A 
HETATM   16  C   UNL     1      28.404  40.707  51.842  1.00  0.00     0.020 A 
HETATM   17  C   UNL     1      27.814  41.702  51.066  1.00  0.00     0.023 A 
BRANCH  13  18
HETATM   18  O   UNL     1      27.845  44.469  53.457  1.00  0.00    -0.291 OA
BRANCH  18  19
HETATM   19  C   UNL     1      28.594  44.808  54.558  1.00  0.00     0.078 A 
HETATM   20  C   UNL     1      28.027  45.708  55.462  1.00  0.00     0.039 A 
HETATM   21  C   UNL     1      28.715  46.049  56.628  1.00  0.00     0.026 A 
HETATM   22  C   UNL     1      29.960  45.476  56.891  1.00  0.00     0.034 A 
HETATM   23 CL   UNL     1      30.811  45.902  58.324  1.00  0.00    -0.084 Cl
HETATM   24  C   UNL     1      30.517  44.556  56.002  1.00  0.00     0.026 A 
HETATM   25  C   UNL     1      29.827  44.211  54.838  1.00  0.00     0.039 A 
ENDBRANCH  18  19
ENDBRANCH  13  18
ENDBRANCH   9  12
ENDBRANCH   1   8
TORSDOF 5
ENDMDL
MODEL 9
REMARK VINA RESULT:      -7.0      3.592      6.989
REMARK  5 active torsions:
REMARK  status: ('A' for Active; 'I' for Inactive)
REMARK    1  A    between atoms: C_2  and  C_3 
REMARK    2  A    between atoms: C_3  and  N_4 
REMARK       I    between atoms: N_4  and  C_5 
REMARK    3  A    between atoms: C_5  and  C_6 
REMARK    4  A    between atoms: C_7  and  O_8 
REMARK    5  A    between atoms: O_8  and  C_9 
ROOT
HETATM    1  C   UNL     1      24.616  44.426  50.362  1.00  0.00     0.121 C 
HETATM    2  C   UNL     1      23.260  44.004  49.898  1.00  0.00     0.091 C 
HETATM    3  N   UNL     1      22.206  43.705  49.512  1.00  0.00    -0.195 NA
HETATM    4  C   UNL     1      24.537  44.603  51.894  1.00  0.00     0.055 C 
ENDROOT
BRANCH   1   5
HETATM    5  C   UNL     1      25.680  43.345  49.958  1.00  0.00     0.020 C 
HETATM    6  C   UNL     1      25.274  41.921  50.376  1.00  0.00     0.013 C 
HETATM    7  C   UNL     1      27.095  43.635  50.486  1.00  0.00     0.013 C 
ENDBRANCH   1   5
BRANCH   1   8
HETATM    8  N   UNL     1      24.921  45.732  49.729  1.00  0.00    -0.335 N 
HETATM    9  C   UNL     1      25.394  46.838  50.395  1.00  0.00     0.257 C 
HETATM   10  O   UNL     1      25.592  46.844  51.606  1.00  0.00    -0.267 OA
HETATM   11  H   UNL     1      24.785  45.792  48.725  1.00  0.00     0.164 HD
BRANCH   9  12
HETATM   12  C   UNL     1      25.706  48.062  49.603  1.00  0.00     0.085 A 
HETATM   13  C   UNL     1      24.775  48.834  48.908  1.00  0.00     0.185 A 
HETATM   14  N   UNL     1      25.111  49.923  48.166  1.00  0.00    -0.236 NA
HETATM   15  C   UNL     1      26.411  50.282  48.137  1.00  0.00     0.119 A 
HETATM   16  C   UNL     1      27.406  49.599  48.810  1.00  0.00     0.020 A 
HETATM   17  C   UNL     1      27.044  48.476  49.550  1.00  0.00     0.023 A 
BRANCH  13  18
HETATM   18  O   UNL     1      23.440  48.446  48.934  1.00  0.00    -0.291 OA
BRANCH  18  19
HETATM   19  C   UNL     1      22.478  49.423  48.848  1.00  0.00     0.078 A 
HETATM   20  C   UNL     1      21.756  49.503  47.656  1.00  0.00     0.039 A 
HETATM   21  C   UNL     1      20.727  50.439  47.528  1.00  0.00     0.026 A 
HETATM   22  C   UNL     1      20.417  51.278  48.598  1.00  0.00     0.034 A 
HETATM   23 CL   UNL     1      19.154  52.435  48.437  1.00  0.00    -0.084 Cl
HETATM   24  C   UNL     1      21.119  51.181  49.799  1.00  0.00     0.026 A 
HETATM   25  C   UNL     1      22.145  50.243  49.931  1.00  0.00     0.039 A 
ENDBRANCH  18  19
ENDBRANCH  13  18
ENDBRANCH   9  12
ENDBRANCH   1   8
TORSDOF 5
ENDMDL
MODEL 10
REMARK VINA RESULT:      -6.9     10.939     12.715
REMARK  5 active torsions:
REMARK  status: ('A' for Active; 'I' for Inactive)
REMARK    1  A    between atoms: C_2  and  C_3 
REMARK    2  A    between atoms: C_3  and  N_4 
REMARK       I    between atoms: N_4  and  C_5 
REMARK    3  A    between atoms: C_5  and  C_6 
REMARK    4  A    between atoms: C_7  and  O_8 
REMARK    5  A    between atoms: O_8  and  C_9 
ROOT
HETATM    1  C   UNL     1      31.424  49.278  40.778  1.00  0.00     0.121 C 
HETATM    2  C   UNL     1      32.345  48.132  41.041  1.00  0.00     0.091 C 
HETATM    3  N   UNL     1      33.044  47.220  41.218  1.00  0.00    -0.195 NA
HETATM    4  C   UNL     1      30.764  49.649  42.124  1.00  0.00     0.055 C 
ENDROOT
BRANCH   1   5
HETATM    5  C   UNL     1      32.230  50.485  40.177  1.00  0.00     0.020 C 
HETATM    6  C   UNL     1      32.088  51.771  41.008  1.00  0.00     0.013 C 
HETATM    7  C   UNL     1      31.884  50.796  38.712  1.00  0.00     0.013 C 
ENDBRANCH   1   5
BRANCH   1   8
HETATM    8  N   UNL     1      30.385  48.811  39.830  1.00  0.00    -0.335 N 
HETATM    9  C   UNL     1      29.309  48.024  40.166  1.00  0.00     0.257 C 
HETATM   10  O   UNL     1      29.121  47.616  41.308  1.00  0.00    -0.267 OA
HETATM   11  H   UNL     1      30.477  49.121  38.868  1.00  0.00     0.164 HD
BRANCH   9  12
HETATM   12  C   UNL     1      28.319  47.686  39.104  1.00  0.00     0.085 A 
HETATM   13  C   UNL     1      27.064  48.276  38.950  1.00  0.00     0.185 A 
HETATM   14  N   UNL     1      26.177  47.908  37.987  1.00  0.00    -0.236 NA
HETATM   15  C   UNL     1      26.558  46.945  37.122  1.00  0.00     0.119 A 
HETATM   16  C   UNL     1      27.787  46.318  37.173  1.00  0.00     0.020 A 
HETATM   17  C   UNL     1      28.676  46.695  38.178  1.00  0.00     0.023 A 
BRANCH  13  18
HETATM   18  O   UNL     1      26.677  49.257  39.857  1.00  0.00    -0.291 OA
BRANCH  18  19
HETATM   19  C   UNL     1      27.321  50.471  39.814  1.00  0.00     0.078 A 
HETATM   20  C   UNL     1      27.602  51.086  41.035  1.00  0.00     0.039 A 
HETATM   21  C   UNL     1      28.303  52.293  41.060  1.00  0.00     0.026 A 
HETATM   22  C   UNL     1      28.732  52.870  39.865  1.00  0.00     0.034 A 
HETATM   23 CL   UNL     1      29.590  54.360  39.895  1.00  0.00    -0.084 Cl
HETATM   24  C   UNL     1      28.476  52.243  38.645  1.00  0.00     0.026 A 
HETATM   25  C   UNL     1      27.779  51.033  38.619  1.00  0.00     0.039 A 
ENDBRANCH  18  19
ENDBRANCH  13  18
ENDBRANCH   9  12
ENDBRANCH   1   8
TORSDOF 5
ENDMDL
