MODEL 1
REMARK VINA RESULT:     -10.1      0.000      0.000
REMARK  4 active torsions:
REMARK  status: ('A' for Active; 'I' for Inactive)
REMARK    1  A    between atoms: O_2  and  C_3 
REMARK    2  A    between atoms: C_4  and  C_5 
REMARK    3  A    between atoms: C_9  and  C_10 
REMARK       I    between atoms: C_10  and  N_11 
REMARK    4  A    between atoms: N_11  and  N_12 
ROOT
HETATM    1  C   UNL     1      24.568  44.758  51.724  1.00  0.00     0.289 C 
HETATM    2  N   UNL     1      24.662  46.038  51.193  1.00  0.00    -0.241 N 
HETATM    3  O   UNL     1      23.770  43.903  51.355  1.00  0.00    -0.264 OA
HETATM    4  H   UNL     1      25.199  46.726  51.700  1.00  0.00     0.192 HD
ENDROOT
BRANCH   1   5
HETATM    5  C   UNL     1      25.517  44.494  52.778  1.00  0.00     0.121 A 
HETATM    6  N   UNL     1      25.195  43.725  53.861  1.00  0.00    -0.272 N 
HETATM    7  N   UNL     1      26.195  43.576  54.744  1.00  0.00    -0.174 NA
HETATM    8  H   UNL     1      24.301  43.278  54.047  1.00  0.00     0.189 HD
HETATM    9  C   UNL     1      27.222  44.249  54.213  1.00  0.00     0.092 A 
HETATM   10  C   UNL     1      26.835  44.852  52.983  1.00  0.00     0.071 A 
BRANCH   9  11
HETATM   11  C   UNL     1      28.535  44.343  54.852  1.00  0.00     0.028 A 
HETATM   12  C   UNL     1      28.925  45.411  55.678  1.00  0.00     0.080 A 
HETATM   13  C   UNL     1      30.214  45.447  56.224  1.00  0.00     0.037 A 
HETATM   14  C   UNL     1      31.111  44.403  55.997  1.00  0.00     0.003 A 
HETATM   15  C   UNL     1      30.731  43.328  55.202  1.00  0.00     0.001 A 
HETATM   16  C   UNL     1      29.457  43.300  54.629  1.00  0.00     0.017 A 
BRANCH  12  17
HETATM   17  O   UNL     1      28.144  46.495  55.982  1.00  0.00    -0.355 OA
HETATM   18  C   UNL     1      28.165  47.496  54.967  1.00  0.00     0.210 C 
ENDBRANCH  12  17
ENDBRANCH   9  11
ENDBRANCH   1   5
BRANCH   2  19
HETATM   19  N   UNL     1      23.758  46.484  50.279  1.00  0.00    -0.165 NA
HETATM   20  C   UNL     1      24.074  47.491  49.526  1.00  0.00     0.157 A 
HETATM   21  C   UNL     1      23.027  48.171  48.619  1.00  0.00     0.277 A 
HETATM   22  C   UNL     1      25.321  48.247  49.325  1.00  0.00     0.027 A 
HETATM   23  O   UNL     1      21.881  47.824  48.446  1.00  0.00    -0.266 OA
HETATM   24  N   UNL     1      23.669  49.261  48.076  1.00  0.00    -0.321 N 
HETATM   25  C   UNL     1      24.999  49.307  48.473  1.00  0.00     0.048 A 
HETATM   26  H   UNL     1      23.214  49.894  47.434  1.00  0.00     0.169 HD
HETATM   27  C   UNL     1      25.936  50.238  48.075  1.00  0.00     0.030 A 
HETATM   28  C   UNL     1      27.244  50.077  48.540  1.00  0.00     0.002 A 
HETATM   29  C   UNL     1      27.586  48.991  49.364  1.00  0.00     0.001 A 
HETATM   30  C   UNL     1      26.622  48.054  49.756  1.00  0.00     0.016 A 
ENDBRANCH   2  19
TORSDOF 4
ENDMDL
MODEL 2
REMARK VINA RESULT:      -9.9      1.034      1.737
REMARK  4 active torsions:
REMARK  status: ('A' for Active; 'I' for Inactive)
REMARK    1  A    between atoms: O_2  and  C_3 
REMARK    2  A    between atoms: C_4  and  C_5 
REMARK    3  A    between atoms: C_9  and  C_10 
REMARK       I    between atoms: C_10  and  N_11 
REMARK    4  A    between atoms: N_11  and  N_12 
ROOT
HETATM    1  C   UNL     1      24.580  44.914  51.835  1.00  0.00     0.289 C 
HETATM    2  N   UNL     1      24.761  46.150  51.231  1.00  0.00    -0.241 N 
HETATM    3  O   UNL     1      23.706  44.107  51.535  1.00  0.00    -0.264 OA
HETATM    4  H   UNL     1      25.365  46.820  51.684  1.00  0.00     0.192 HD
ENDROOT
BRANCH   1   5
HETATM    5  C   UNL     1      25.535  44.631  52.879  1.00  0.00     0.121 A 
HETATM    6  N   UNL     1      25.216  43.855  53.958  1.00  0.00    -0.272 N 
HETATM    7  N   UNL     1      26.221  43.688  54.831  1.00  0.00    -0.174 NA
HETATM    8  H   UNL     1      24.319  43.415  54.146  1.00  0.00     0.189 HD
HETATM    9  C   UNL     1      27.250  44.357  54.297  1.00  0.00     0.092 A 
HETATM   10  C   UNL     1      26.859  44.974  53.076  1.00  0.00     0.071 A 
BRANCH   9  11
HETATM   11  C   UNL     1      28.569  44.432  54.926  1.00  0.00     0.028 A 
HETATM   12  C   UNL     1      29.541  43.423  54.821  1.00  0.00     0.080 A 
HETATM   13  C   UNL     1      30.768  43.552  55.482  1.00  0.00     0.037 A 
HETATM   14  C   UNL     1      31.063  44.703  56.213  1.00  0.00     0.003 A 
HETATM   15  C   UNL     1      30.121  45.721  56.306  1.00  0.00     0.001 A 
HETATM   16  C   UNL     1      28.883  45.585  55.674  1.00  0.00     0.017 A 
BRANCH  12  17
HETATM   17  O   UNL     1      29.381  42.247  54.135  1.00  0.00    -0.355 OA
HETATM   18  C   UNL     1      29.806  42.335  52.777  1.00  0.00     0.210 C 
ENDBRANCH  12  17
ENDBRANCH   9  11
ENDBRANCH   1   5
BRANCH   2  19
HETATM   19  N   UNL     1      23.869  46.618  50.315  1.00  0.00    -0.165 NA
HETATM   20  C   UNL     1      24.212  47.615  49.561  1.00  0.00     0.157 A 
HETATM   21  C   UNL     1      23.182  48.320  48.652  1.00  0.00     0.277 A 
HETATM   22  C   UNL     1      25.477  48.338  49.358  1.00  0.00     0.027 A 
HETATM   23  O   UNL     1      22.028  48.003  48.480  1.00  0.00    -0.266 OA
HETATM   24  N   UNL     1      23.853  49.392  48.106  1.00  0.00    -0.321 N 
HETATM   25  C   UNL     1      25.184  49.404  48.504  1.00  0.00     0.048 A 
HETATM   26  H   UNL     1      23.415  50.035  47.463  1.00  0.00     0.169 HD
HETATM   27  C   UNL     1      26.146  50.308  48.103  1.00  0.00     0.030 A 
HETATM   28  C   UNL     1      27.448  50.114  48.569  1.00  0.00     0.002 A 
HETATM   29  C   UNL     1      27.761  49.022  49.396  1.00  0.00     0.001 A 
HETATM   30  C   UNL     1      26.773  48.111  49.790  1.00  0.00     0.016 A 
ENDBRANCH   2  19
TORSDOF 4
ENDMDL
MODEL 3
REMARK VINA RESULT:      -9.9      2.249      3.288
REMARK  4 active torsions:
REMARK  status: ('A' for Active; 'I' for Inactive)
REMARK    1  A    between atoms: O_2  and  C_3 
REMARK    2  A    between atoms: C_4  and  C_5 
REMARK    3  A    between atoms: C_9  and  C_10 
REMARK       I    between atoms: C_10  and  N_11 
REMARK    4  A    between atoms: N_11  and  N_12 
ROOT
HETATM    1  C   UNL     1      27.264  42.583  51.628  1.00  0.00     0.289 C 
HETATM    2  N   UNL     1      26.055  43.196  51.928  1.00  0.00    -0.241 N 
HETATM    3  O   UNL     1      27.470  41.883  50.642  1.00  0.00    -0.264 OA
HETATM    4  H   UNL     1      25.927  43.570  52.856  1.00  0.00     0.192 HD
ENDROOT
BRANCH   1   5
HETATM    5  C   UNL     1      28.304  42.844  52.594  1.00  0.00     0.121 A 
HETATM    6  N   UNL     1      29.602  42.480  52.371  1.00  0.00    -0.272 N 
HETATM    7  N   UNL     1      30.441  42.801  53.368  1.00  0.00    -0.174 NA
HETATM    8  H   UNL     1      29.969  42.005  51.550  1.00  0.00     0.189 HD
HETATM    9  C   UNL     1      29.674  43.423  54.271  1.00  0.00     0.092 A 
HETATM   10  C   UNL     1      28.322  43.461  53.829  1.00  0.00     0.071 A 
BRANCH   9  11
HETATM   11  C   UNL     1      30.192  43.957  55.531  1.00  0.00     0.028 A 
HETATM   12  C   UNL     1      29.926  45.256  55.995  1.00  0.00     0.080 A 
HETATM   13  C   UNL     1      30.488  45.707  57.196  1.00  0.00     0.037 A 
HETATM   14  C   UNL     1      31.280  44.860  57.970  1.00  0.00     0.003 A 
HETATM   15  C   UNL     1      31.533  43.563  57.536  1.00  0.00     0.001 A 
HETATM   16  C   UNL     1      30.999  43.117  56.325  1.00  0.00     0.017 A 
BRANCH  12  17
HETATM   17  O   UNL     1      29.165  46.186  55.335  1.00  0.00    -0.355 OA
HETATM   18  C   UNL     1      28.034  46.614  56.089  1.00  0.00     0.210 C 
ENDBRANCH  12  17
ENDBRANCH   9  11
ENDBRANCH   1   5
BRANCH   2  19
HETATM   19  N   UNL     1      24.942  42.948  51.184  1.00  0.00    -0.165 NA
HETATM   20  C   UNL     1      24.381  43.931  50.552  1.00  0.00     0.157 A 
HETATM   21  C   UNL     1      23.010  43.760  49.864  1.00  0.00     0.277 A 
HETATM   22  C   UNL     1      24.760  45.336  50.332  1.00  0.00     0.027 A 
HETATM   23  O   UNL     1      22.371  42.738  49.762  1.00  0.00    -0.266 OA
HETATM   24  N   UNL     1      22.668  45.016  49.416  1.00  0.00    -0.321 N 
HETATM   25  C   UNL     1      23.679  45.932  49.677  1.00  0.00     0.048 A 
HETATM   26  H   UNL     1      21.808  45.200  48.921  1.00  0.00     0.169 HD
HETATM   27  C   UNL     1      23.684  47.265  49.319  1.00  0.00     0.030 A 
HETATM   28  C   UNL     1      24.826  48.010  49.620  1.00  0.00     0.002 A 
HETATM   29  C   UNL     1      25.934  47.410  50.243  1.00  0.00     0.001 A 
HETATM   30  C   UNL     1      25.913  46.055  50.595  1.00  0.00     0.016 A 
ENDBRANCH   2  19
TORSDOF 4
ENDMDL
MODEL 4
REMARK VINA RESULT:      -9.5      2.496      8.289
REMARK  4 active torsions:
REMARK  status: ('A' for Active; 'I' for Inactive)
REMARK    1  A    between atoms: O_2  and  C_3 
REMARK    2  A    between atoms: C_4  and  C_5 
REMARK    3  A    between atoms: C_9  and  C_10 
REMARK       I    between atoms: C_10  and  N_11 
REMARK    4  A    between atoms: N_11  and  N_12 
ROOT
HETATM    1  C   UNL     1      25.075  44.159  50.826  1.00  0.00     0.289 C 
HETATM    2  N   UNL     1      26.367  43.858  50.416  1.00  0.00    -0.241 N 
HETATM    3  O   UNL     1      24.310  43.369  51.370  1.00  0.00    -0.264 OA
HETATM    4  H   UNL     1      26.834  44.503  49.796  1.00  0.00     0.192 HD
ENDROOT
BRANCH   1   5
HETATM    5  C   UNL     1      24.684  45.521  50.562  1.00  0.00     0.121 A 
HETATM    6  N   UNL     1      25.127  46.561  51.332  1.00  0.00    -0.272 N 
HETATM    7  N   UNL     1      24.671  47.763  50.946  1.00  0.00    -0.174 NA
HETATM    8  H   UNL     1      25.744  46.502  52.138  1.00  0.00     0.189 HD
HETATM    9  C   UNL     1      23.921  47.512  49.867  1.00  0.00     0.092 A 
HETATM   10  C   UNL     1      23.892  46.114  49.598  1.00  0.00     0.071 A 
BRANCH   9  11
HETATM   11  C   UNL     1      23.229  48.556  49.111  1.00  0.00     0.028 A 
HETATM   12  C   UNL     1      23.829  49.768  48.729  1.00  0.00     0.080 A 
HETATM   13  C   UNL     1      23.089  50.735  48.037  1.00  0.00     0.037 A 
HETATM   14  C   UNL     1      21.763  50.492  47.677  1.00  0.00     0.003 A 
HETATM   15  C   UNL     1      21.164  49.288  48.027  1.00  0.00     0.001 A 
HETATM   16  C   UNL     1      21.887  48.331  48.742  1.00  0.00     0.017 A 
BRANCH  12  17
HETATM   17  O   UNL     1      25.118  50.132  49.017  1.00  0.00    -0.355 OA
HETATM   18  C   UNL     1      26.015  49.898  47.934  1.00  0.00     0.210 C 
ENDBRANCH  12  17
ENDBRANCH   9  11
ENDBRANCH   1   5
BRANCH   2  19
HETATM   19  N   UNL     1      26.843  42.584  50.481  1.00  0.00    -0.165 NA
HETATM   20  C   UNL     1      27.700  42.283  51.405  1.00  0.00     0.157 A 
HETATM   21  C   UNL     1      28.429  40.922  51.407  1.00  0.00     0.277 A 
HETATM   22  C   UNL     1      28.231  43.016  52.566  1.00  0.00     0.027 A 
HETATM   23  O   UNL     1      28.244  39.998  50.649  1.00  0.00    -0.266 OA
HETATM   24  N   UNL     1      29.341  40.999  52.435  1.00  0.00    -0.321 N 
HETATM   25  C   UNL     1      29.227  42.205  53.116  1.00  0.00     0.048 A 
HETATM   26  H   UNL     1      29.962  40.238  52.668  1.00  0.00     0.169 HD
HETATM   27  C   UNL     1      29.954  42.587  54.225  1.00  0.00     0.030 A 
HETATM   28  C   UNL     1      29.647  43.820  54.804  1.00  0.00     0.002 A 
HETATM   29  C   UNL     1      28.619  44.625  54.283  1.00  0.00     0.001 A 
HETATM   30  C   UNL     1      27.889  44.219  53.158  1.00  0.00     0.016 A 
ENDBRANCH   2  19
TORSDOF 4
ENDMDL
MODEL 5
REMARK VINA RESULT:      -9.2      2.289      8.018
REMARK  4 active torsions:
REMARK  status: ('A' for Active; 'I' for Inactive)
REMARK    1  A    between atoms: O_2  and  C_3 
REMARK    2  A    between atoms: C_4  and  C_5 
REMARK    3  A    between atoms: C_9  and  C_10 
REMARK       I    between atoms: C_10  and  N_11 
REMARK    4  A    between atoms: N_11  and  N_12 
ROOT
HETATM    1  C   UNL     1      25.864  44.628  50.227  1.00  0.00     0.289 C 
HETATM    2  N   UNL     1      25.557  44.101  51.474  1.00  0.00    -0.241 N 
HETATM    3  O   UNL     1      26.875  44.366  49.584  1.00  0.00    -0.264 OA
HETATM    4  H   UNL     1      24.818  44.535  52.007  1.00  0.00     0.192 HD
ENDROOT
BRANCH   1   5
HETATM    5  C   UNL     1      24.868  45.540  49.719  1.00  0.00     0.121 A 
HETATM    6  N   UNL     1      23.856  45.119  48.902  1.00  0.00    -0.272 N 
HETATM    7  N   UNL     1      23.014  46.093  48.525  1.00  0.00    -0.174 NA
HETATM    8  H   UNL     1      23.697  44.172  48.568  1.00  0.00     0.189 HD
HETATM    9  C   UNL     1      23.470  47.193  49.137  1.00  0.00     0.092 A 
HETATM   10  C   UNL     1      24.640  46.891  49.888  1.00  0.00     0.071 A 
BRANCH   9  11
HETATM   11  C   UNL     1      22.834  48.504  49.007  1.00  0.00     0.028 A 
HETATM   12  C   UNL     1      23.544  49.716  48.989  1.00  0.00     0.080 A 
HETATM   13  C   UNL     1      22.860  50.935  48.899  1.00  0.00     0.037 A 
HETATM   14  C   UNL     1      21.471  50.962  48.777  1.00  0.00     0.003 A 
HETATM   15  C   UNL     1      20.756  49.770  48.769  1.00  0.00     0.001 A 
HETATM   16  C   UNL     1      21.430  48.552  48.889  1.00  0.00     0.017 A 
BRANCH  12  17
HETATM   17  O   UNL     1      24.906  49.831  49.100  1.00  0.00    -0.355 OA
HETATM   18  C   UNL     1      25.547  50.050  47.845  1.00  0.00     0.210 C 
ENDBRANCH  12  17
ENDBRANCH   9  11
ENDBRANCH   1   5
BRANCH   2  19
HETATM   19  N   UNL     1      26.451  43.323  52.143  1.00  0.00    -0.165 NA
HETATM   20  C   UNL     1      27.178  43.862  53.070  1.00  0.00     0.157 A 
HETATM   21  C   UNL     1      28.346  43.090  53.720  1.00  0.00     0.277 A 
HETATM   22  C   UNL     1      27.182  45.190  53.705  1.00  0.00     0.027 A 
HETATM   23  O   UNL     1      28.657  41.939  53.520  1.00  0.00    -0.266 OA
HETATM   24  N   UNL     1      28.965  43.998  54.550  1.00  0.00    -0.321 N 
HETATM   25  C   UNL     1      28.292  45.213  54.553  1.00  0.00     0.048 A 
HETATM   26  H   UNL     1      29.771  43.760  55.109  1.00  0.00     0.169 HD
HETATM   27  C   UNL     1      28.614  46.322  55.309  1.00  0.00     0.030 A 
HETATM   28  C   UNL     1      27.774  47.434  55.215  1.00  0.00     0.002 A 
HETATM   29  C   UNL     1      26.632  47.405  54.395  1.00  0.00     0.001 A 
HETATM   30  C   UNL     1      26.319  46.270  53.637  1.00  0.00     0.016 A 
ENDBRANCH   2  19
TORSDOF 4
ENDMDL
MODEL 6
REMARK VINA RESULT:      -9.2      2.337      8.491
REMARK  4 active torsions:
REMARK  status: ('A' for Active; 'I' for Inactive)
REMARK    1  A    between atoms: O_2  and  C_3 
REMARK    2  A    between atoms: C_4  and  C_5 
REMARK    3  A    between atoms: C_9  and  C_10 
REMARK       I    between atoms: C_10  and  N_11 
REMARK    4  A    between atoms: N_11  and  N_12 
ROOT
HETATM    1  C   UNL     1      26.206  45.417  50.213  1.00  0.00     0.289 C 
HETATM    2  N   UNL     1      25.646  44.751  51.295  1.00  0.00    -0.241 N 
HETATM    3  O   UNL     1      27.198  45.043  49.596  1.00  0.00    -0.264 OA
HETATM    4  H   UNL     1      24.969  45.243  51.859  1.00  0.00     0.192 HD
ENDROOT
BRANCH   1   5
HETATM    5  C   UNL     1      25.508  46.625  49.848  1.00  0.00     0.121 A 
HETATM    6  N   UNL     1      26.163  47.812  49.675  1.00  0.00    -0.272 N 
HETATM    7  N   UNL     1      25.364  48.835  49.332  1.00  0.00    -0.174 NA
HETATM    8  H   UNL     1      27.160  47.978  49.782  1.00  0.00     0.189 HD
HETATM    9  C   UNL     1      24.141  48.298  49.250  1.00  0.00     0.092 A 
HETATM   10  C   UNL     1      24.184  46.914  49.578  1.00  0.00     0.071 A 
BRANCH   9  11
HETATM   11  C   UNL     1      22.950  49.069  48.889  1.00  0.00     0.028 A 
HETATM   12  C   UNL     1      22.035  48.671  47.900  1.00  0.00     0.080 A 
HETATM   13  C   UNL     1      20.938  49.482  47.586  1.00  0.00     0.037 A 
HETATM   14  C   UNL     1      20.710  50.670  48.281  1.00  0.00     0.003 A 
HETATM   15  C   UNL     1      21.593  51.064  49.279  1.00  0.00     0.001 A 
HETATM   16  C   UNL     1      22.707  50.275  49.577  1.00  0.00     0.017 A 
BRANCH  12  17
HETATM   17  O   UNL     1      22.139  47.532  47.145  1.00  0.00    -0.355 OA
HETATM   18  C   UNL     1      21.121  46.578  47.438  1.00  0.00     0.210 C 
ENDBRANCH  12  17
ENDBRANCH   9  11
ENDBRANCH   1   5
BRANCH   2  19
HETATM   19  N   UNL     1      26.258  43.664  51.840  1.00  0.00    -0.165 NA
HETATM   20  C   UNL     1      27.045  43.833  52.855  1.00  0.00     0.157 A 
HETATM   21  C   UNL     1      27.923  42.679  53.386  1.00  0.00     0.277 A 
HETATM   22  C   UNL     1      27.365  44.993  53.703  1.00  0.00     0.027 A 
HETATM   23  O   UNL     1      27.926  41.533  53.002  1.00  0.00    -0.266 OA
HETATM   24  N   UNL     1      28.710  43.242  54.366  1.00  0.00    -0.321 N 
HETATM   25  C   UNL     1      28.387  44.579  54.560  1.00  0.00     0.048 A 
HETATM   26  H   UNL     1      29.388  42.708  54.890  1.00  0.00     0.169 HD
HETATM   27  C   UNL     1      28.947  45.425  55.495  1.00  0.00     0.030 A 
HETATM   28  C   UNL     1      28.441  46.725  55.575  1.00  0.00     0.002 A 
HETATM   29  C   UNL     1      27.385  47.138  54.744  1.00  0.00     0.001 A 
HETATM   30  C   UNL     1      26.827  46.264  53.802  1.00  0.00     0.016 A 
ENDBRANCH   2  19
TORSDOF 4
ENDMDL
MODEL 7
REMARK VINA RESULT:      -9.2      4.383      7.891
REMARK  4 active torsions:
REMARK  status: ('A' for Active; 'I' for Inactive)
REMARK    1  A    between atoms: O_2  and  C_3 
REMARK    2  A    between atoms: C_4  and  C_5 
REMARK    3  A    between atoms: C_9  and  C_10 
REMARK       I    between atoms: C_10  and  N_11 
REMARK    4  A    between atoms: N_11  and  N_12 
ROOT
HETATM    1  C   UNL     1      26.489  43.874  52.596  1.00  0.00     0.289 C 
HETATM    2  N   UNL     1      27.611  44.459  53.167  1.00  0.00    -0.241 N 
HETATM    3  O   UNL     1      25.352  44.330  52.658  1.00  0.00    -0.264 OA
HETATM    4  H   UNL     1      28.452  43.905  53.241  1.00  0.00     0.192 HD
ENDROOT
BRANCH   1   5
HETATM    5  C   UNL     1      26.767  42.645  51.894  1.00  0.00     0.121 A 
HETATM    6  N   UNL     1      25.766  41.835  51.435  1.00  0.00    -0.272 N 
HETATM    7  N   UNL     1      26.198  40.735  50.799  1.00  0.00    -0.174 NA
HETATM    8  H   UNL     1      24.765  41.988  51.533  1.00  0.00     0.189 HD
HETATM    9  C   UNL     1      27.532  40.835  50.815  1.00  0.00     0.092 A 
HETATM   10  C   UNL     1      27.932  42.014  51.504  1.00  0.00     0.071 A 
BRANCH   9  11
HETATM   11  C   UNL     1      28.418  39.837  50.214  1.00  0.00     0.028 A 
HETATM   12  C   UNL     1      28.615  39.704  48.829  1.00  0.00     0.080 A 
HETATM   13  C   UNL     1      29.452  38.700  48.328  1.00  0.00     0.037 A 
HETATM   14  C   UNL     1      30.138  37.849  49.195  1.00  0.00     0.003 A 
HETATM   15  C   UNL     1      29.972  37.984  50.568  1.00  0.00     0.001 A 
HETATM   16  C   UNL     1      29.116  38.965  51.074  1.00  0.00     0.017 A 
BRANCH  12  17
HETATM   17  O   UNL     1      28.005  40.472  47.871  1.00  0.00    -0.355 OA
HETATM   18  C   UNL     1      27.162  39.714  47.007  1.00  0.00     0.210 C 
ENDBRANCH  12  17
ENDBRANCH   9  11
ENDBRANCH   1   5
BRANCH   2  19
HETATM   19  N   UNL     1      27.499  45.554  53.967  1.00  0.00    -0.165 NA
HETATM   20  C   UNL     1      28.252  45.641  55.019  1.00  0.00     0.157 A 
HETATM   21  C   UNL     1      28.031  46.748  56.071  1.00  0.00     0.277 A 
HETATM   22  C   UNL     1      29.372  44.833  55.526  1.00  0.00     0.027 A 
HETATM   23  O   UNL     1      27.237  47.659  56.011  1.00  0.00    -0.266 OA
HETATM   24  N   UNL     1      28.908  46.460  57.092  1.00  0.00    -0.321 N 
HETATM   25  C   UNL     1      29.693  45.358  56.780  1.00  0.00     0.048 A 
HETATM   26  H   UNL     1      28.979  47.030  57.922  1.00  0.00     0.169 HD
HETATM   27  C   UNL     1      30.704  44.831  57.558  1.00  0.00     0.030 A 
HETATM   28  C   UNL     1      31.422  43.751  57.039  1.00  0.00     0.002 A 
HETATM   29  C   UNL     1      31.133  43.242  55.761  1.00  0.00     0.001 A 
HETATM   30  C   UNL     1      30.106  43.792  54.984  1.00  0.00     0.016 A 
ENDBRANCH   2  19
TORSDOF 4
ENDMDL
MODEL 8
REMARK VINA RESULT:      -9.0      3.555      5.083
REMARK  4 active torsions:
REMARK  status: ('A' for Active; 'I' for Inactive)
REMARK    1  A    between atoms: O_2  and  C_3 
REMARK    2  A    between atoms: C_4  and  C_5 
REMARK    3  A    between atoms: C_9  and  C_10 
REMARK       I    between atoms: C_10  and  N_11 
REMARK    4  A    between atoms: N_11  and  N_12 
ROOT
HETATM    1  C   UNL     1      25.471  45.578  52.602  1.00  0.00     0.289 C 
HETATM    2  N   UNL     1      25.027  44.262  52.584  1.00  0.00    -0.241 N 
HETATM    3  O   UNL     1      25.019  46.480  51.906  1.00  0.00    -0.264 OA
HETATM    4  H   UNL     1      25.597  43.560  53.032  1.00  0.00     0.192 HD
ENDROOT
BRANCH   1   5
HETATM    5  C   UNL     1      26.541  45.817  53.539  1.00  0.00     0.121 A 
HETATM    6  N   UNL     1      26.960  47.082  53.847  1.00  0.00    -0.272 N 
HETATM    7  N   UNL     1      27.961  47.126  54.739  1.00  0.00    -0.174 NA
HETATM    8  H   UNL     1      26.595  47.953  53.470  1.00  0.00     0.189 HD
HETATM    9  C   UNL     1      28.195  45.847  55.053  1.00  0.00     0.092 A 
HETATM   10  C   UNL     1      27.332  44.990  54.313  1.00  0.00     0.071 A 
BRANCH   9  11
HETATM   11  C   UNL     1      29.217  45.430  56.014  1.00  0.00     0.028 A 
HETATM   12  C   UNL     1      30.208  44.475  55.732  1.00  0.00     0.080 A 
HETATM   13  C   UNL     1      31.131  44.103  56.718  1.00  0.00     0.037 A 
HETATM   14  C   UNL     1      31.110  44.707  57.975  1.00  0.00     0.003 A 
HETATM   15  C   UNL     1      30.150  45.672  58.260  1.00  0.00     0.001 A 
HETATM   16  C   UNL     1      29.208  46.026  57.291  1.00  0.00     0.017 A 
BRANCH  12  17
HETATM   17  O   UNL     1      30.341  43.808  54.542  1.00  0.00    -0.355 OA
HETATM   18  C   UNL     1      29.758  42.508  54.567  1.00  0.00     0.210 C 
ENDBRANCH  12  17
ENDBRANCH   9  11
ENDBRANCH   1   5
BRANCH   2  19
HETATM   19  N   UNL     1      24.110  43.846  51.669  1.00  0.00    -0.165 NA
HETATM   20  C   UNL     1      24.443  42.922  50.824  1.00  0.00     0.157 A 
HETATM   21  C   UNL     1      23.526  42.554  49.638  1.00  0.00     0.277 A 
HETATM   22  C   UNL     1      25.629  42.060  50.687  1.00  0.00     0.027 A 
HETATM   23  O   UNL     1      22.422  42.993  49.410  1.00  0.00    -0.266 OA
HETATM   24  N   UNL     1      24.242  41.645  48.892  1.00  0.00    -0.321 N 
HETATM   25  C   UNL     1      25.457  41.349  49.497  1.00  0.00     0.048 A 
HETATM   26  H   UNL     1      23.878  41.230  48.047  1.00  0.00     0.169 HD
HETATM   27  C   UNL     1      26.394  40.443  49.043  1.00  0.00     0.030 A 
HETATM   28  C   UNL     1      27.531  40.241  49.830  1.00  0.00     0.002 A 
HETATM   29  C   UNL     1      27.693  40.923  51.048  1.00  0.00     0.001 A 
HETATM   30  C   UNL     1      26.729  41.836  51.495  1.00  0.00     0.016 A 
ENDBRANCH   2  19
TORSDOF 4
ENDMDL
MODEL 9
REMARK VINA RESULT:      -8.9      2.121      2.694
REMARK  4 active torsions:
REMARK  status: ('A' for Active; 'I' for Inactive)
REMARK    1  A    between atoms: O_2  and  C_3 
REMARK    2  A    between atoms: C_4  and  C_5 
REMARK    3  A    between atoms: C_9  and  C_10 
REMARK       I    between atoms: C_10  and  N_11 
REMARK    4  A    between atoms: N_11  and  N_12 
ROOT
HETATM    1  C   UNL     1      23.798  44.478  50.246  1.00  0.00     0.289 C 
HETATM    2  N   UNL     1      23.568  45.443  49.274  1.00  0.00    -0.241 N 
HETATM    3  O   UNL     1      22.950  43.706  50.682  1.00  0.00    -0.264 OA
HETATM    4  H   UNL     1      24.266  46.159  49.138  1.00  0.00     0.192 HD
ENDROOT
BRANCH   1   5
HETATM    5  C   UNL     1      25.159  44.444  50.722  1.00  0.00     0.121 A 
HETATM    6  N   UNL     1      26.190  44.972  49.996  1.00  0.00    -0.272 N 
HETATM    7  N   UNL     1      27.390  44.861  50.585  1.00  0.00    -0.174 NA
HETATM    8  H   UNL     1      26.126  45.420  49.085  1.00  0.00     0.189 HD
HETATM    9  C   UNL     1      27.140  44.261  51.755  1.00  0.00     0.092 A 
HETATM   10  C   UNL     1      25.752  43.971  51.876  1.00  0.00     0.071 A 
BRANCH   9  11
HETATM   11  C   UNL     1      28.182  43.949  52.734  1.00  0.00     0.028 A 
HETATM   12  C   UNL     1      28.260  44.544  54.005  1.00  0.00     0.080 A 
HETATM   13  C   UNL     1      29.309  44.219  54.874  1.00  0.00     0.037 A 
HETATM   14  C   UNL     1      30.263  43.268  54.511  1.00  0.00     0.003 A 
HETATM   15  C   UNL     1      30.184  42.652  53.267  1.00  0.00     0.001 A 
HETATM   16  C   UNL     1      29.157  42.994  52.384  1.00  0.00     0.017 A 
BRANCH  12  17
HETATM   17  O   UNL     1      27.391  45.489  54.485  1.00  0.00    -0.355 OA
HETATM   18  C   UNL     1      28.054  46.639  55.005  1.00  0.00     0.210 C 
ENDBRANCH  12  17
ENDBRANCH   9  11
ENDBRANCH   1   5
BRANCH   2  19
HETATM   19  N   UNL     1      22.311  45.686  48.813  1.00  0.00    -0.165 NA
HETATM   20  C   UNL     1      21.960  46.909  48.568  1.00  0.00     0.157 A 
HETATM   21  C   UNL     1      20.495  47.271  48.243  1.00  0.00     0.277 A 
HETATM   22  C   UNL     1      22.694  48.185  48.552  1.00  0.00     0.027 A 
HETATM   23  O   UNL     1      19.571  46.503  48.104  1.00  0.00    -0.266 OA
HETATM   24  N   UNL     1      20.467  48.645  48.170  1.00  0.00    -0.321 N 
HETATM   25  C   UNL     1      21.737  49.181  48.340  1.00  0.00     0.048 A 
HETATM   26  H   UNL     1      19.623  49.160  47.967  1.00  0.00     0.169 HD
HETATM   27  C   UNL     1      22.073  50.518  48.277  1.00  0.00     0.030 A 
HETATM   28  C   UNL     1      23.422  50.852  48.415  1.00  0.00     0.002 A 
HETATM   29  C   UNL     1      24.396  49.854  48.588  1.00  0.00     0.001 A 
HETATM   30  C   UNL     1      24.038  48.501  48.646  1.00  0.00     0.016 A 
ENDBRANCH   2  19
TORSDOF 4
ENDMDL
MODEL 10
REMARK VINA RESULT:      -8.9      2.088      2.565
REMARK  4 active torsions:
REMARK  status: ('A' for Active; 'I' for Inactive)
REMARK    1  A    between atoms: O_2  and  C_3 
REMARK    2  A    between atoms: C_4  and  C_5 
REMARK    3  A    between atoms: C_9  and  C_10 
REMARK       I    between atoms: C_10  and  N_11 
REMARK    4  A    between atoms: N_11  and  N_12 
ROOT
HETATM    1  C   UNL     1      25.408  43.644  50.680  1.00  0.00     0.289 C 
HETATM    2  N   UNL     1      24.035  43.846  50.737  1.00  0.00    -0.241 N 
HETATM    3  O   UNL     1      26.034  43.371  49.661  1.00  0.00    -0.264 OA
HETATM    4  H   UNL     1      23.592  43.856  51.643  1.00  0.00     0.192 HD
ENDROOT
BRANCH   1   5
HETATM    5  C   UNL     1      26.071  43.789  51.952  1.00  0.00     0.121 A 
HETATM    6  N   UNL     1      25.396  43.665  53.135  1.00  0.00    -0.272 N 
HETATM    7  N   UNL     1      26.164  43.825  54.224  1.00  0.00    -0.174 NA
HETATM    8  H   UNL     1      24.404  43.473  53.253  1.00  0.00     0.189 HD
HETATM    9  C   UNL     1      27.395  44.036  53.744  1.00  0.00     0.092 A 
HETATM   10  C   UNL     1      27.379  44.033  52.322  1.00  0.00     0.071 A 
BRANCH   9  11
HETATM   11  C   UNL     1      28.562  44.254  54.600  1.00  0.00     0.028 A 
HETATM   12  C   UNL     1      28.700  45.354  55.464  1.00  0.00     0.080 A 
HETATM   13  C   UNL     1      29.864  45.511  56.226  1.00  0.00     0.037 A 
HETATM   14  C   UNL     1      30.881  44.558  56.175  1.00  0.00     0.003 A 
HETATM   15  C   UNL     1      30.747  43.451  55.344  1.00  0.00     0.001 A 
HETATM   16  C   UNL     1      29.602  43.303  54.559  1.00  0.00     0.017 A 
BRANCH  12  17
HETATM   17  O   UNL     1      27.780  46.359  55.610  1.00  0.00    -0.355 OA
HETATM   18  C   UNL     1      28.091  47.512  54.831  1.00  0.00     0.210 C 
ENDBRANCH  12  17
ENDBRANCH   9  11
ENDBRANCH   1   5
BRANCH   2  19
HETATM   19  N   UNL     1      23.250  43.624  49.648  1.00  0.00    -0.165 NA
HETATM   20  C   UNL     1      22.820  44.641  48.968  1.00  0.00     0.157 A 
HETATM   21  C   UNL     1      21.766  44.470  47.854  1.00  0.00     0.277 A 
HETATM   22  C   UNL     1      23.103  46.084  49.026  1.00  0.00     0.027 A 
HETATM   23  O   UNL     1      21.301  43.431  47.447  1.00  0.00    -0.266 OA
HETATM   24  N   UNL     1      21.457  45.748  47.447  1.00  0.00    -0.321 N 
HETATM   25  C   UNL     1      22.232  46.687  48.115  1.00  0.00     0.048 A 
HETATM   26  H   UNL     1      20.785  45.938  46.717  1.00  0.00     0.169 HD
HETATM   27  C   UNL     1      22.213  48.052  47.913  1.00  0.00     0.030 A 
HETATM   28  C   UNL     1      23.117  48.826  48.645  1.00  0.00     0.002 A 
HETATM   29  C   UNL     1      24.024  48.224  49.535  1.00  0.00     0.001 A 
HETATM   30  C   UNL     1      24.032  46.836  49.724  1.00  0.00     0.016 A 
ENDBRANCH   2  19
TORSDOF 4
ENDMDL
