MODEL 1
REMARK VINA RESULT:      -9.8      0.000      0.000
REMARK  4 active torsions:
REMARK  status: ('A' for Active; 'I' for Inactive)
REMARK    1  A    between atoms: C_8  and  C_9 
REMARK    2  A    between atoms: C_9  and  C_10 
REMARK    3  A    between atoms: C_18  and  C_19 
REMARK    4  A    between atoms: C_28  and  N_29 
ROOT
HETATM    1  C   UNL     1      26.979  43.595  53.000  1.00  0.00     0.030 A 
HETATM    2  C   UNL     1      28.076  43.840  53.861  1.00  0.00     0.007 A 
HETATM    3  C   UNL     1      29.198  43.009  53.685  1.00  0.00     0.068 A 
HETATM    4  C   UNL     1      30.306  43.187  54.503  1.00  0.00     0.032 A 
HETATM    5  C   UNL     1      30.347  44.171  55.492  1.00  0.00     0.002 A 
HETATM    6  C   UNL     1      29.256  45.006  55.671  1.00  0.00     0.001 A 
HETATM    7  C   UNL     1      28.131  44.846  54.862  1.00  0.00     0.015 A 
HETATM    8  N   UNL     1      29.257  42.044  52.754  1.00  0.00    -0.248 NA
HETATM    9  C   UNL     1      28.204  41.837  51.928  1.00  0.00     0.068 A 
HETATM   10  C   UNL     1      27.035  42.572  52.048  1.00  0.00     0.049 A 
ENDROOT
BRANCH   1  11
HETATM   11  C   UNL     1      25.717  44.371  53.125  1.00  0.00     0.202 C 
HETATM   12  O   UNL     1      24.977  44.151  54.085  1.00  0.00    -0.286 OA
BRANCH  11  13
HETATM   13  C   UNL     1      25.339  45.362  52.063  1.00  0.00     0.121 C 
HETATM   14  C   UNL     1      25.868  46.746  52.074  1.00  0.00     0.266 C 
HETATM   15  N   UNL     1      25.581  47.518  50.995  1.00  0.00    -0.274 N 
HETATM   16  O   UNL     1      26.526  47.194  53.006  1.00  0.00    -0.267 OA
HETATM   17  C   UNL     1      24.654  47.221  50.045  1.00  0.00     0.330 C 
HETATM   18  H   UNL     1      25.924  48.467  50.998  1.00  0.00     0.173 HD
HETATM   19  N   UNL     1      24.103  45.950  50.114  1.00  0.00    -0.293 N 
HETATM   20  O   UNL     1      24.356  48.073  49.212  1.00  0.00    -0.246 OA
HETATM   21  C   UNL     1      23.146  45.586  49.072  1.00  0.00     0.162 C 
HETATM   22  C   UNL     1      24.445  45.019  51.099  1.00  0.00     0.103 C 
BRANCH  22  23
HETATM   23  N   UNL     1      23.863  43.756  51.048  1.00  0.00    -0.287 NA
HETATM   24  H   UNL     1      23.777  43.407  50.081  1.00  0.00     0.125 HD
HETATM   25  H   UNL     1      24.376  43.072  51.597  1.00  0.00     0.125 HD
ENDBRANCH  22  23
ENDBRANCH  11  13
ENDBRANCH   1  11
BRANCH   9  26
HETATM   26  C   UNL     1      28.397  40.792  50.903  1.00  0.00    -0.007 A 
HETATM   27  C   UNL     1      27.915  40.974  49.592  1.00  0.00     0.015 A 
HETATM   28  C   UNL     1      28.069  39.986  48.613  1.00  0.00     0.024 A 
HETATM   29  C   UNL     1      28.704  38.791  48.933  1.00  0.00     0.034 A 
HETATM   30 CL   UNL     1      28.888  37.570  47.736  1.00  0.00    -0.084 Cl
HETATM   31  C   UNL     1      29.185  38.577  50.221  1.00  0.00     0.024 A 
HETATM   32  C   UNL     1      29.030  39.569  51.197  1.00  0.00     0.015 A 
ENDBRANCH   9  26
TORSDOF 4
ENDMDL
MODEL 2
REMARK VINA RESULT:      -9.2      3.554      6.430
REMARK  4 active torsions:
REMARK  status: ('A' for Active; 'I' for Inactive)
REMARK    1  A    between atoms: C_8  and  C_9 
REMARK    2  A    between atoms: C_9  and  C_10 
REMARK    3  A    between atoms: C_18  and  C_19 
REMARK    4  A    between atoms: C_28  and  N_29 
ROOT
HETATM    1  C   UNL     1      25.415  43.760  51.242  1.00  0.00     0.030 A 
HETATM    2  C   UNL     1      25.145  45.091  50.840  1.00  0.00     0.007 A 
HETATM    3  C   UNL     1      25.917  46.092  51.458  1.00  0.00     0.068 A 
HETATM    4  C   UNL     1      25.697  47.421  51.120  1.00  0.00     0.032 A 
HETATM    5  C   UNL     1      24.738  47.797  50.178  1.00  0.00     0.002 A 
HETATM    6  C   UNL     1      23.977  46.823  49.551  1.00  0.00     0.001 A 
HETATM    7  C   UNL     1      24.179  45.482  49.875  1.00  0.00     0.015 A 
HETATM    8  N   UNL     1      26.870  45.828  52.366  1.00  0.00    -0.248 NA
HETATM    9  C   UNL     1      27.125  44.547  52.724  1.00  0.00     0.068 A 
HETATM   10  C   UNL     1      26.392  43.492  52.206  1.00  0.00     0.049 A 
ENDROOT
BRANCH   1  11
HETATM   11  C   UNL     1      24.629  42.620  50.701  1.00  0.00     0.202 C 
HETATM   12  O   UNL     1      23.521  42.381  51.183  1.00  0.00    -0.286 OA
BRANCH  11  13
HETATM   13  C   UNL     1      25.212  41.752  49.623  1.00  0.00     0.121 C 
HETATM   14  C   UNL     1      24.984  42.045  48.189  1.00  0.00     0.266 C 
HETATM   15  N   UNL     1      25.670  41.287  47.295  1.00  0.00    -0.274 N 
HETATM   16  O   UNL     1      24.210  42.915  47.806  1.00  0.00    -0.267 OA
HETATM   17  C   UNL     1      26.336  40.139  47.591  1.00  0.00     0.330 C 
HETATM   18  H   UNL     1      25.511  41.467  46.315  1.00  0.00     0.173 HD
HETATM   19  N   UNL     1      26.454  39.839  48.940  1.00  0.00    -0.293 N 
HETATM   20  O   UNL     1      26.772  39.446  46.675  1.00  0.00    -0.246 OA
HETATM   21  C   UNL     1      27.214  38.641  49.288  1.00  0.00     0.162 C 
HETATM   22  C   UNL     1      25.914  40.637  49.953  1.00  0.00     0.103 C 
BRANCH  22  23
HETATM   23  N   UNL     1      26.130  40.265  51.277  1.00  0.00    -0.287 NA
HETATM   24  H   UNL     1      25.876  39.281  51.449  1.00  0.00     0.125 HD
HETATM   25  H   UNL     1      27.093  40.410  51.567  1.00  0.00     0.125 HD
ENDBRANCH  22  23
ENDBRANCH  11  13
ENDBRANCH   1  11
BRANCH   9  26
HETATM   26  C   UNL     1      28.232  44.365  53.684  1.00  0.00    -0.007 A 
HETATM   27  C   UNL     1      29.080  43.243  53.598  1.00  0.00     0.015 A 
HETATM   28  C   UNL     1      30.120  43.042  54.512  1.00  0.00     0.024 A 
HETATM   29  C   UNL     1      30.327  43.960  55.536  1.00  0.00     0.034 A 
HETATM   30 CL   UNL     1      31.598  43.714  56.667  1.00  0.00    -0.084 Cl
HETATM   31  C   UNL     1      29.501  45.075  55.653  1.00  0.00     0.024 A 
HETATM   32  C   UNL     1      28.463  45.273  54.735  1.00  0.00     0.015 A 
ENDBRANCH   9  26
TORSDOF 4
ENDMDL
MODEL 3
REMARK VINA RESULT:      -9.0      3.518      6.717
REMARK  4 active torsions:
REMARK  status: ('A' for Active; 'I' for Inactive)
REMARK    1  A    between atoms: C_8  and  C_9 
REMARK    2  A    between atoms: C_9  and  C_10 
REMARK    3  A    between atoms: C_18  and  C_19 
REMARK    4  A    between atoms: C_28  and  N_29 
ROOT
HETATM    1  C   UNL     1      26.468  43.560  51.750  1.00  0.00     0.030 A 
HETATM    2  C   UNL     1      25.939  44.829  51.412  1.00  0.00     0.007 A 
HETATM    3  C   UNL     1      26.388  45.913  52.189  1.00  0.00     0.068 A 
HETATM    4  C   UNL     1      25.901  47.186  51.919  1.00  0.00     0.032 A 
HETATM    5  C   UNL     1      24.984  47.426  50.895  1.00  0.00     0.002 A 
HETATM    6  C   UNL     1      24.541  46.372  50.112  1.00  0.00     0.001 A 
HETATM    7  C   UNL     1      25.015  45.085  50.364  1.00  0.00     0.015 A 
HETATM    8  N   UNL     1      27.276  45.782  53.187  1.00  0.00    -0.248 NA
HETATM    9  C   UNL     1      27.784  44.563  53.484  1.00  0.00     0.068 A 
HETATM   10  C   UNL     1      27.375  43.425  52.807  1.00  0.00     0.049 A 
ENDROOT
BRANCH   1  11
HETATM   11  C   UNL     1      26.031  42.331  51.037  1.00  0.00     0.202 C 
HETATM   12  O   UNL     1      24.838  42.024  51.061  1.00  0.00    -0.286 OA
BRANCH  11  13
HETATM   13  C   UNL     1      27.044  41.461  50.352  1.00  0.00     0.121 C 
HETATM   14  C   UNL     1      27.943  40.568  51.122  1.00  0.00     0.266 C 
HETATM   15  N   UNL     1      28.721  39.720  50.403  1.00  0.00    -0.274 N 
HETATM   16  O   UNL     1      28.003  40.588  52.346  1.00  0.00    -0.267 OA
HETATM   17  C   UNL     1      28.931  39.797  49.062  1.00  0.00     0.330 C 
HETATM   18  H   UNL     1      29.348  39.118  50.916  1.00  0.00     0.173 HD
HETATM   19  N   UNL     1      28.142  40.709  48.377  1.00  0.00    -0.293 N 
HETATM   20  O   UNL     1      29.791  39.084  48.548  1.00  0.00    -0.246 OA
HETATM   21  C   UNL     1      28.308  40.770  46.927  1.00  0.00     0.162 C 
HETATM   22  C   UNL     1      27.197  41.526  49.004  1.00  0.00     0.103 C 
BRANCH  22  23
HETATM   23  N   UNL     1      26.427  42.375  48.214  1.00  0.00    -0.287 NA
HETATM   24  H   UNL     1      25.455  42.045  48.124  1.00  0.00     0.125 HD
HETATM   25  H   UNL     1      26.416  43.328  48.568  1.00  0.00     0.125 HD
ENDBRANCH  22  23
ENDBRANCH  11  13
ENDBRANCH   1  11
BRANCH   9  26
HETATM   26  C   UNL     1      28.796  44.541  54.558  1.00  0.00    -0.007 A 
HETATM   27  C   UNL     1      29.734  43.493  54.641  1.00  0.00     0.015 A 
HETATM   28  C   UNL     1      30.686  43.444  55.664  1.00  0.00     0.024 A 
HETATM   29  C   UNL     1      30.713  44.443  56.631  1.00  0.00     0.034 A 
HETATM   30 CL   UNL     1      31.875  44.383  57.896  1.00  0.00    -0.084 Cl
HETATM   31  C   UNL     1      29.795  45.488  56.582  1.00  0.00     0.024 A 
HETATM   32  C   UNL     1      28.844  45.534  55.555  1.00  0.00     0.015 A 
ENDBRANCH   9  26
TORSDOF 4
ENDMDL
MODEL 4
REMARK VINA RESULT:      -8.8      3.425      7.153
REMARK  4 active torsions:
REMARK  status: ('A' for Active; 'I' for Inactive)
REMARK    1  A    between atoms: C_8  and  C_9 
REMARK    2  A    between atoms: C_9  and  C_10 
REMARK    3  A    between atoms: C_18  and  C_19 
REMARK    4  A    between atoms: C_28  and  N_29 
ROOT
HETATM    1  C   UNL     1      25.990  44.517  52.205  1.00  0.00     0.030 A 
HETATM    2  C   UNL     1      26.328  43.475  51.307  1.00  0.00     0.007 A 
HETATM    3  C   UNL     1      26.132  43.749  49.941  1.00  0.00     0.068 A 
HETATM    4  C   UNL     1      26.432  42.768  49.005  1.00  0.00     0.032 A 
HETATM    5  C   UNL     1      26.930  41.518  49.375  1.00  0.00     0.002 A 
HETATM    6  C   UNL     1      27.140  41.236  50.715  1.00  0.00     0.001 A 
HETATM    7  C   UNL     1      26.846  42.204  51.674  1.00  0.00     0.015 A 
HETATM    8  N   UNL     1      25.669  44.925  49.487  1.00  0.00    -0.248 NA
HETATM    9  C   UNL     1      25.368  45.915  50.361  1.00  0.00     0.068 A 
HETATM   10  C   UNL     1      25.485  45.731  51.730  1.00  0.00     0.049 A 
ENDROOT
BRANCH   1  11
HETATM   11  C   UNL     1      26.102  44.329  53.676  1.00  0.00     0.202 C 
HETATM   12  O   UNL     1      25.152  43.836  54.285  1.00  0.00    -0.286 OA
BRANCH  11  13
HETATM   13  C   UNL     1      27.336  44.787  54.398  1.00  0.00     0.121 C 
HETATM   14  C   UNL     1      27.502  46.196  54.825  1.00  0.00     0.266 C 
HETATM   15  N   UNL     1      28.585  46.476  55.595  1.00  0.00    -0.274 N 
HETATM   16  O   UNL     1      26.720  47.081  54.502  1.00  0.00    -0.267 OA
HETATM   17  C   UNL     1      29.644  45.645  55.787  1.00  0.00     0.330 C 
HETATM   18  H   UNL     1      28.717  47.435  55.879  1.00  0.00     0.173 HD
HETATM   19  N   UNL     1      29.500  44.357  55.294  1.00  0.00    -0.293 N 
HETATM   20  O   UNL     1      30.644  46.072  56.360  1.00  0.00    -0.246 OA
HETATM   21  C   UNL     1      30.601  43.428  55.538  1.00  0.00     0.162 C 
HETATM   22  C   UNL     1      28.358  43.919  54.618  1.00  0.00     0.103 C 
BRANCH  22  23
HETATM   23  N   UNL     1      28.301  42.592  54.203  1.00  0.00    -0.287 NA
HETATM   24  H   UNL     1      27.613  42.046  54.743  1.00  0.00     0.125 HD
HETATM   25  H   UNL     1      28.083  42.505  53.214  1.00  0.00     0.125 HD
ENDBRANCH  22  23
ENDBRANCH  11  13
ENDBRANCH   1  11
BRANCH   9  26
HETATM   26  C   UNL     1      24.924  47.185  49.754  1.00  0.00    -0.007 A 
HETATM   27  C   UNL     1      23.568  47.392  49.432  1.00  0.00     0.015 A 
HETATM   28  C   UNL     1      23.132  48.580  48.836  1.00  0.00     0.024 A 
HETATM   29  C   UNL     1      24.050  49.583  48.543  1.00  0.00     0.034 A 
HETATM   30 CL   UNL     1      23.521  51.041  47.802  1.00  0.00    -0.084 Cl
HETATM   31  C   UNL     1      25.398  49.406  48.841  1.00  0.00     0.024 A 
HETATM   32  C   UNL     1      25.830  48.216  49.440  1.00  0.00     0.015 A 
ENDBRANCH   9  26
TORSDOF 4
ENDMDL
MODEL 5
REMARK VINA RESULT:      -8.7      5.105      8.658
REMARK  4 active torsions:
REMARK  status: ('A' for Active; 'I' for Inactive)
REMARK    1  A    between atoms: C_8  and  C_9 
REMARK    2  A    between atoms: C_9  and  C_10 
REMARK    3  A    between atoms: C_18  and  C_19 
REMARK    4  A    between atoms: C_28  and  N_29 
ROOT
HETATM    1  C   UNL     1      24.480  47.317  49.906  1.00  0.00     0.030 A 
HETATM    2  C   UNL     1      25.493  48.212  49.485  1.00  0.00     0.007 A 
HETATM    3  C   UNL     1      25.073  49.282  48.672  1.00  0.00     0.068 A 
HETATM    4  C   UNL     1      26.015  50.193  48.213  1.00  0.00     0.032 A 
HETATM    5  C   UNL     1      27.368  50.087  48.539  1.00  0.00     0.002 A 
HETATM    6  C   UNL     1      27.797  49.047  49.347  1.00  0.00     0.001 A 
HETATM    7  C   UNL     1      26.870  48.119  49.820  1.00  0.00     0.015 A 
HETATM    8  N   UNL     1      23.793  49.475  48.316  1.00  0.00    -0.248 NA
HETATM    9  C   UNL     1      22.837  48.617  48.744  1.00  0.00     0.068 A 
HETATM   10  C   UNL     1      23.152  47.507  49.512  1.00  0.00     0.049 A 
ENDROOT
BRANCH   1  11
HETATM   11  C   UNL     1      24.807  46.119  50.723  1.00  0.00     0.202 C 
HETATM   12  O   UNL     1      24.948  46.251  51.940  1.00  0.00    -0.286 OA
BRANCH  11  13
HETATM   13  C   UNL     1      25.011  44.789  50.056  1.00  0.00     0.121 C 
HETATM   14  C   UNL     1      26.335  44.388  49.524  1.00  0.00     0.266 C 
HETATM   15  N   UNL     1      26.449  43.114  49.070  1.00  0.00    -0.274 N 
HETATM   16  O   UNL     1      27.289  45.156  49.476  1.00  0.00    -0.267 OA
HETATM   17  C   UNL     1      25.408  42.274  48.829  1.00  0.00     0.330 C 
HETATM   18  H   UNL     1      27.341  42.834  48.691  1.00  0.00     0.173 HD
HETATM   19  N   UNL     1      24.163  42.715  49.252  1.00  0.00    -0.293 N 
HETATM   20  O   UNL     1      25.619  41.207  48.255  1.00  0.00    -0.246 OA
HETATM   21  C   UNL     1      23.036  41.806  49.056  1.00  0.00     0.162 C 
HETATM   22  C   UNL     1      23.959  43.951  49.872  1.00  0.00     0.103 C 
BRANCH  22  23
HETATM   23  N   UNL     1      22.674  44.275  50.298  1.00  0.00    -0.287 NA
HETATM   24  H   UNL     1      22.682  44.960  51.069  1.00  0.00     0.125 HD
HETATM   25  H   UNL     1      22.098  44.639  49.545  1.00  0.00     0.125 HD
ENDBRANCH  22  23
ENDBRANCH  11  13
ENDBRANCH   1  11
BRANCH   9  26
HETATM   26  C   UNL     1      21.456  48.954  48.344  1.00  0.00    -0.007 A 
HETATM   27  C   UNL     1      21.182  50.144  47.642  1.00  0.00     0.015 A 
HETATM   28  C   UNL     1      19.878  50.491  47.273  1.00  0.00     0.024 A 
HETATM   29  C   UNL     1      18.820  49.654  47.609  1.00  0.00     0.034 A 
HETATM   30 CL   UNL     1      17.214  50.080  47.167  1.00  0.00    -0.084 Cl
HETATM   31  C   UNL     1      19.056  48.475  48.310  1.00  0.00     0.024 A 
HETATM   32  C   UNL     1      20.363  48.130  48.675  1.00  0.00     0.015 A 
ENDBRANCH   9  26
TORSDOF 4
ENDMDL
MODEL 6
REMARK VINA RESULT:      -8.6      4.372      8.794
REMARK  4 active torsions:
REMARK  status: ('A' for Active; 'I' for Inactive)
REMARK    1  A    between atoms: C_8  and  C_9 
REMARK    2  A    between atoms: C_9  and  C_10 
REMARK    3  A    between atoms: C_18  and  C_19 
REMARK    4  A    between atoms: C_28  and  N_29 
ROOT
HETATM    1  C   UNL     1      24.641  46.277  49.480  1.00  0.00     0.030 A 
HETATM    2  C   UNL     1      24.040  45.097  48.980  1.00  0.00     0.007 A 
HETATM    3  C   UNL     1      22.719  45.226  48.513  1.00  0.00     0.068 A 
HETATM    4  C   UNL     1      22.064  44.105  48.019  1.00  0.00     0.032 A 
HETATM    5  C   UNL     1      22.677  42.854  47.962  1.00  0.00     0.002 A 
HETATM    6  C   UNL     1      23.982  42.711  48.406  1.00  0.00     0.001 A 
HETATM    7  C   UNL     1      24.661  43.821  48.908  1.00  0.00     0.015 A 
HETATM    8  N   UNL     1      22.050  46.390  48.516  1.00  0.00    -0.248 NA
HETATM    9  C   UNL     1      22.649  47.512  48.982  1.00  0.00     0.068 A 
HETATM   10  C   UNL     1      23.932  47.483  49.504  1.00  0.00     0.049 A 
ENDROOT
BRANCH   1  11
HETATM   11  C   UNL     1      26.014  46.258  50.050  1.00  0.00     0.202 C 
HETATM   12  O   UNL     1      26.955  46.620  49.342  1.00  0.00    -0.286 OA
BRANCH  11  13
HETATM   13  C   UNL     1      26.240  45.751  51.445  1.00  0.00     0.121 C 
HETATM   14  C   UNL     1      25.753  46.500  52.626  1.00  0.00     0.266 C 
HETATM   15  N   UNL     1      25.880  45.888  53.832  1.00  0.00    -0.274 N 
HETATM   16  O   UNL     1      25.266  47.622  52.544  1.00  0.00    -0.267 OA
HETATM   17  C   UNL     1      26.634  44.782  54.071  1.00  0.00     0.330 C 
HETATM   18  H   UNL     1      25.566  46.395  54.645  1.00  0.00     0.173 HD
HETATM   19  N   UNL     1      27.158  44.152  52.952  1.00  0.00    -0.293 N 
HETATM   20  O   UNL     1      26.814  44.419  55.232  1.00  0.00    -0.246 OA
HETATM   21  C   UNL     1      27.923  42.929  53.178  1.00  0.00     0.162 C 
HETATM   22  C   UNL     1      26.957  44.615  51.649  1.00  0.00     0.103 C 
BRANCH  22  23
HETATM   23  N   UNL     1      27.492  43.881  50.594  1.00  0.00    -0.287 NA
HETATM   24  H   UNL     1      27.999  43.045  50.922  1.00  0.00     0.125 HD
HETATM   25  H   UNL     1      26.783  43.591  49.926  1.00  0.00     0.125 HD
ENDBRANCH  22  23
ENDBRANCH  11  13
ENDBRANCH   1  11
BRANCH   9  26
HETATM   26  C   UNL     1      21.846  48.747  48.885  1.00  0.00    -0.007 A 
HETATM   27  C   UNL     1      20.467  48.732  49.172  1.00  0.00     0.015 A 
HETATM   28  C   UNL     1      19.686  49.888  49.065  1.00  0.00     0.024 A 
HETATM   29  C   UNL     1      20.272  51.082  48.659  1.00  0.00     0.034 A 
HETATM   30 CL   UNL     1      19.315  52.503  48.516  1.00  0.00    -0.084 Cl
HETATM   31  C   UNL     1      21.631  51.128  48.360  1.00  0.00     0.024 A 
HETATM   32  C   UNL     1      22.409  49.969  48.471  1.00  0.00     0.015 A 
ENDBRANCH   9  26
TORSDOF 4
ENDMDL
MODEL 7
REMARK VINA RESULT:      -8.6      4.742      8.914
REMARK  4 active torsions:
REMARK  status: ('A' for Active; 'I' for Inactive)
REMARK    1  A    between atoms: C_8  and  C_9 
REMARK    2  A    between atoms: C_9  and  C_10 
REMARK    3  A    between atoms: C_18  and  C_19 
REMARK    4  A    between atoms: C_28  and  N_29 
ROOT
HETATM    1  C   UNL     1      24.454  47.336  49.742  1.00  0.00     0.030 A 
HETATM    2  C   UNL     1      25.564  48.141  49.390  1.00  0.00     0.007 A 
HETATM    3  C   UNL     1      25.265  49.415  48.872  1.00  0.00     0.068 A 
HETATM    4  C   UNL     1      26.306  50.253  48.496  1.00  0.00     0.032 A 
HETATM    5  C   UNL     1      27.643  49.876  48.622  1.00  0.00     0.002 A 
HETATM    6  C   UNL     1      27.957  48.630  49.141  1.00  0.00     0.001 A 
HETATM    7  C   UNL     1      26.929  47.770  49.525  1.00  0.00     0.015 A 
HETATM    8  N   UNL     1      24.011  49.870  48.725  1.00  0.00    -0.248 NA
HETATM    9  C   UNL     1      22.963  49.092  49.084  1.00  0.00     0.068 A 
HETATM   10  C   UNL     1      23.149  47.805  49.564  1.00  0.00     0.049 A 
ENDROOT
BRANCH   1  11
HETATM   11  C   UNL     1      24.640  45.950  50.249  1.00  0.00     0.202 C 
HETATM   12  O   UNL     1      23.958  45.045  49.766  1.00  0.00    -0.286 OA
BRANCH  11  13
HETATM   13  C   UNL     1      25.606  45.685  51.367  1.00  0.00     0.121 C 
HETATM   14  C   UNL     1      25.638  46.538  52.579  1.00  0.00     0.266 C 
HETATM   15  N   UNL     1      26.446  46.130  53.590  1.00  0.00    -0.274 N 
HETATM   16  O   UNL     1      24.985  47.570  52.678  1.00  0.00    -0.267 OA
HETATM   17  C   UNL     1      27.402  45.168  53.489  1.00  0.00     0.330 C 
HETATM   18  H   UNL     1      26.488  46.711  54.414  1.00  0.00     0.173 HD
HETATM   19  N   UNL     1      27.411  44.446  52.305  1.00  0.00    -0.293 N 
HETATM   20  O   UNL     1      28.188  45.005  54.419  1.00  0.00    -0.246 OA
HETATM   21  C   UNL     1      28.391  43.369  52.193  1.00  0.00     0.162 C 
HETATM   22  C   UNL     1      26.518  44.685  51.256  1.00  0.00     0.103 C 
BRANCH  22  23
HETATM   23  N   UNL     1      26.587  43.871  50.129  1.00  0.00    -0.287 NA
HETATM   24  H   UNL     1      25.960  43.055  50.201  1.00  0.00     0.125 HD
HETATM   25  H   UNL     1      26.369  44.375  49.274  1.00  0.00     0.125 HD
ENDBRANCH  22  23
ENDBRANCH  11  13
ENDBRANCH   1  11
BRANCH   9  26
HETATM   26  C   UNL     1      21.631  49.712  48.937  1.00  0.00    -0.007 A 
HETATM   27  C   UNL     1      21.506  51.077  48.611  1.00  0.00     0.015 A 
HETATM   28  C   UNL     1      20.254  51.687  48.488  1.00  0.00     0.024 A 
HETATM   29  C   UNL     1      19.099  50.941  48.698  1.00  0.00     0.034 A 
HETATM   30 CL   UNL     1      17.557  51.688  48.557  1.00  0.00    -0.084 Cl
HETATM   31  C   UNL     1      19.188  49.592  49.029  1.00  0.00     0.024 A 
HETATM   32  C   UNL     1      20.444  48.985  49.149  1.00  0.00     0.015 A 
ENDBRANCH   9  26
TORSDOF 4
ENDMDL
MODEL 8
REMARK VINA RESULT:      -8.6      3.356      5.898
REMARK  4 active torsions:
REMARK  status: ('A' for Active; 'I' for Inactive)
REMARK    1  A    between atoms: C_8  and  C_9 
REMARK    2  A    between atoms: C_9  and  C_10 
REMARK    3  A    between atoms: C_18  and  C_19 
REMARK    4  A    between atoms: C_28  and  N_29 
ROOT
HETATM    1  C   UNL     1      27.750  41.533  50.069  1.00  0.00     0.030 A 
HETATM    2  C   UNL     1      28.229  40.203  50.158  1.00  0.00     0.007 A 
HETATM    3  C   UNL     1      28.978  39.891  51.308  1.00  0.00     0.068 A 
HETATM    4  C   UNL     1      29.488  38.608  51.456  1.00  0.00     0.032 A 
HETATM    5  C   UNL     1      29.275  37.612  50.502  1.00  0.00     0.002 A 
HETATM    6  C   UNL     1      28.529  37.898  49.369  1.00  0.00     0.001 A 
HETATM    7  C   UNL     1      28.008  39.180  49.198  1.00  0.00     0.015 A 
HETATM    8  N   UNL     1      29.225  40.778  52.285  1.00  0.00    -0.248 NA
HETATM    9  C   UNL     1      28.743  42.040  52.190  1.00  0.00     0.068 A 
HETATM   10  C   UNL     1      28.031  42.460  51.078  1.00  0.00     0.049 A 
ENDROOT
BRANCH   1  11
HETATM   11  C   UNL     1      26.992  41.998  48.877  1.00  0.00     0.202 C 
HETATM   12  O   UNL     1      27.541  41.963  47.775  1.00  0.00    -0.286 OA
BRANCH  11  13
HETATM   13  C   UNL     1      25.605  42.548  49.039  1.00  0.00     0.121 C 
HETATM   14  C   UNL     1      24.415  41.665  49.000  1.00  0.00     0.266 C 
HETATM   15  N   UNL     1      23.221  42.238  49.298  1.00  0.00    -0.274 N 
HETATM   16  O   UNL     1      24.482  40.478  48.703  1.00  0.00    -0.267 OA
HETATM   17  C   UNL     1      22.993  43.575  49.376  1.00  0.00     0.330 C 
HETATM   18  H   UNL     1      22.402  41.650  49.259  1.00  0.00     0.173 HD
HETATM   19  N   UNL     1      24.117  44.386  49.315  1.00  0.00    -0.293 N 
HETATM   20  O   UNL     1      21.837  43.982  49.480  1.00  0.00    -0.246 OA
HETATM   21  C   UNL     1      23.904  45.825  49.454  1.00  0.00     0.162 C 
HETATM   22  C   UNL     1      25.413  43.886  49.163  1.00  0.00     0.103 C 
BRANCH  22  23
HETATM   23  N   UNL     1      26.475  44.787  49.159  1.00  0.00    -0.287 NA
HETATM   24  H   UNL     1      26.640  45.196  50.091  1.00  0.00     0.125 HD
HETATM   25  H   UNL     1      27.338  44.365  48.830  1.00  0.00     0.125 HD
ENDBRANCH  22  23
ENDBRANCH  11  13
ENDBRANCH   1  11
BRANCH   9  26
HETATM   26  C   UNL     1      29.023  42.915  53.346  1.00  0.00    -0.007 A 
HETATM   27  C   UNL     1      28.137  43.955  53.690  1.00  0.00     0.015 A 
HETATM   28  C   UNL     1      28.395  44.808  54.768  1.00  0.00     0.024 A 
HETATM   29  C   UNL     1      29.554  44.640  55.519  1.00  0.00     0.034 A 
HETATM   30 CL   UNL     1      29.881  45.691  56.839  1.00  0.00    -0.084 Cl
HETATM   31  C   UNL     1      30.453  43.627  55.199  1.00  0.00     0.024 A 
HETATM   32  C   UNL     1      30.189  42.774  54.121  1.00  0.00     0.015 A 
ENDBRANCH   9  26
TORSDOF 4
ENDMDL
MODEL 9
REMARK VINA RESULT:      -8.6      3.910      7.265
REMARK  4 active torsions:
REMARK  status: ('A' for Active; 'I' for Inactive)
REMARK    1  A    between atoms: C_8  and  C_9 
REMARK    2  A    between atoms: C_9  and  C_10 
REMARK    3  A    between atoms: C_18  and  C_19 
REMARK    4  A    between atoms: C_28  and  N_29 
ROOT
HETATM    1  C   UNL     1      26.134  42.381  50.042  1.00  0.00     0.030 A 
HETATM    2  C   UNL     1      25.306  43.498  49.773  1.00  0.00     0.007 A 
HETATM    3  C   UNL     1      25.464  44.605  50.628  1.00  0.00     0.068 A 
HETATM    4  C   UNL     1      24.677  45.731  50.428  1.00  0.00     0.032 A 
HETATM    5  C   UNL     1      23.737  45.805  49.399  1.00  0.00     0.002 A 
HETATM    6  C   UNL     1      23.577  44.729  48.541  1.00  0.00     0.001 A 
HETATM    7  C   UNL     1      24.355  43.586  48.722  1.00  0.00     0.015 A 
HETATM    8  N   UNL     1      26.350  44.632  51.636  1.00  0.00    -0.248 NA
HETATM    9  C   UNL     1      27.144  43.560  51.867  1.00  0.00     0.068 A 
HETATM   10  C   UNL     1      27.038  42.405  51.109  1.00  0.00     0.049 A 
ENDROOT
BRANCH   1  11
HETATM   11  C   UNL     1      26.022  41.133  49.243  1.00  0.00     0.202 C 
HETATM   12  O   UNL     1      24.943  40.860  48.716  1.00  0.00    -0.286 OA
BRANCH  11  13
HETATM   13  C   UNL     1      27.198  40.205  49.134  1.00  0.00     0.121 C 
HETATM   14  C   UNL     1      28.376  40.545  48.302  1.00  0.00     0.266 C 
HETATM   15  N   UNL     1      29.442  39.710  48.384  1.00  0.00    -0.274 N 
HETATM   16  O   UNL     1      28.402  41.522  47.562  1.00  0.00    -0.267 OA
HETATM   17  C   UNL     1      29.427  38.475  48.953  1.00  0.00     0.330 C 
HETATM   18  H   UNL     1      30.245  39.923  47.811  1.00  0.00     0.173 HD
HETATM   19  N   UNL     1      28.272  38.143  49.647  1.00  0.00    -0.293 N 
HETATM   20  O   UNL     1      30.401  37.739  48.815  1.00  0.00    -0.246 OA
HETATM   21  C   UNL     1      28.252  36.844  50.316  1.00  0.00     0.162 C 
HETATM   22  C   UNL     1      27.171  38.997  49.754  1.00  0.00     0.103 C 
BRANCH  22  23
HETATM   23  N   UNL     1      26.080  38.581  50.512  1.00  0.00    -0.287 NA
HETATM   24  H   UNL     1      25.954  37.558  50.481  1.00  0.00     0.125 HD
HETATM   25  H   UNL     1      26.152  38.871  51.483  1.00  0.00     0.125 HD
ENDBRANCH  22  23
ENDBRANCH  11  13
ENDBRANCH   1  11
BRANCH   9  26
HETATM   26  C   UNL     1      28.122  43.719  52.962  1.00  0.00    -0.007 A 
HETATM   27  C   UNL     1      29.284  42.923  53.008  1.00  0.00     0.015 A 
HETATM   28  C   UNL     1      30.210  43.043  54.049  1.00  0.00     0.024 A 
HETATM   29  C   UNL     1      29.987  43.961  55.070  1.00  0.00     0.034 A 
HETATM   30 CL   UNL     1      31.118  44.107  56.356  1.00  0.00    -0.084 Cl
HETATM   31  C   UNL     1      28.844  44.756  55.057  1.00  0.00     0.024 A 
HETATM   32  C   UNL     1      27.920  44.634  54.012  1.00  0.00     0.015 A 
ENDBRANCH   9  26
TORSDOF 4
ENDMDL
MODEL 10
REMARK VINA RESULT:      -8.6      2.240      3.329
REMARK  4 active torsions:
REMARK  status: ('A' for Active; 'I' for Inactive)
REMARK    1  A    between atoms: C_8  and  C_9 
REMARK    2  A    between atoms: C_9  and  C_10 
REMARK    3  A    between atoms: C_18  and  C_19 
REMARK    4  A    between atoms: C_28  and  N_29 
ROOT
HETATM    1  C   UNL     1      25.854  45.205  51.187  1.00  0.00     0.030 A 
HETATM    2  C   UNL     1      26.187  45.778  52.438  1.00  0.00     0.007 A 
HETATM    3  C   UNL     1      27.004  44.997  53.277  1.00  0.00     0.068 A 
HETATM    4  C   UNL     1      27.361  45.492  54.525  1.00  0.00     0.032 A 
HETATM    5  C   UNL     1      26.942  46.746  54.971  1.00  0.00     0.002 A 
HETATM    6  C   UNL     1      26.148  47.533  54.153  1.00  0.00     0.001 A 
HETATM    7  C   UNL     1      25.775  47.057  52.896  1.00  0.00     0.015 A 
HETATM    8  N   UNL     1      27.465  43.785  52.931  1.00  0.00    -0.248 NA
HETATM    9  C   UNL     1      27.149  43.262  51.723  1.00  0.00     0.068 A 
HETATM   10  C   UNL     1      26.316  43.931  50.840  1.00  0.00     0.049 A 
ENDROOT
BRANCH   1  11
HETATM   11  C   UNL     1      24.954  45.909  50.235  1.00  0.00     0.202 C 
HETATM   12  O   UNL     1      23.875  45.391  49.945  1.00  0.00    -0.286 OA
BRANCH  11  13
HETATM   13  C   UNL     1      25.391  47.200  49.607  1.00  0.00     0.121 C 
HETATM   14  C   UNL     1      26.797  47.421  49.195  1.00  0.00     0.266 C 
HETATM   15  N   UNL     1      27.059  48.562  48.507  1.00  0.00    -0.274 N 
HETATM   16  O   UNL     1      27.696  46.632  49.461  1.00  0.00    -0.267 OA
HETATM   17  C   UNL     1      26.211  49.618  48.392  1.00  0.00     0.330 C 
HETATM   18  H   UNL     1      28.016  48.731  48.235  1.00  0.00     0.173 HD
HETATM   19  N   UNL     1      24.925  49.417  48.872  1.00  0.00    -0.293 N 
HETATM   20  O   UNL     1      26.621  50.665  47.895  1.00  0.00    -0.246 OA
HETATM   21  C   UNL     1      23.978  50.517  48.708  1.00  0.00     0.162 C 
HETATM   22  C   UNL     1      24.507  48.221  49.461  1.00  0.00     0.103 C 
BRANCH  22  23
HETATM   23  N   UNL     1      23.180  48.111  49.869  1.00  0.00    -0.287 NA
HETATM   24  H   UNL     1      22.886  47.128  49.972  1.00  0.00     0.125 HD
HETATM   25  H   UNL     1      23.003  48.597  50.743  1.00  0.00     0.125 HD
ENDBRANCH  22  23
ENDBRANCH  11  13
ENDBRANCH   1  11
BRANCH   9  26
HETATM   26  C   UNL     1      27.757  41.951  51.419  1.00  0.00    -0.007 A 
HETATM   27  C   UNL     1      28.508  41.265  52.394  1.00  0.00     0.015 A 
HETATM   28  C   UNL     1      29.110  40.032  52.118  1.00  0.00     0.024 A 
HETATM   29  C   UNL     1      28.977  39.466  50.855  1.00  0.00     0.034 A 
HETATM   30 CL   UNL     1      29.721  37.956  50.508  1.00  0.00    -0.084 Cl
HETATM   31  C   UNL     1      28.248  40.123  49.868  1.00  0.00     0.024 A 
HETATM   32  C   UNL     1      27.645  41.355  50.149  1.00  0.00     0.015 A 
ENDBRANCH   9  26
TORSDOF 4
ENDMDL
