MODEL 1
REMARK VINA RESULT:      -9.4      0.000      0.000
REMARK  5 active torsions:
REMARK  status: ('A' for Active; 'I' for Inactive)
REMARK    1  A    between atoms: C_4  and  C_5 
REMARK    2  A    between atoms: C_5  and  C_6 
REMARK    3  A    between atoms: C_6  and  C_7 
REMARK       I    between atoms: C_7  and  N_8 
REMARK    4  A    between atoms: N_8  and  C_9 
REMARK    5  A    between atoms: C_16  and  C_17 
REMARK       I    between atoms: C_17  and  N_18 
ROOT
HETATM    1  C   UNL     1      25.738  47.332  50.400  1.00  0.00     0.035 A 
HETATM    2  C   UNL     1      24.469  47.696  49.929  1.00  0.00     0.046 A 
HETATM    3  C   UNL     1      24.351  48.742  48.985  1.00  0.00     0.030 A 
HETATM    4  C   UNL     1      25.502  49.386  48.551  1.00  0.00     0.063 A 
HETATM    5  N   UNL     1      25.074  50.338  47.668  1.00  0.00    -0.277 N 
HETATM    6  H   UNL     1      25.644  51.003  47.158  1.00  0.00     0.189 HD
HETATM    7  N   UNL     1      23.744  50.366  47.481  1.00  0.00    -0.168 NA
HETATM    8  C   UNL     1      23.283  49.383  48.288  1.00  0.00     0.156 A 
HETATM    9  C   UNL     1      26.781  49.047  48.995  1.00  0.00     0.034 A 
HETATM   10  C   UNL     1      26.872  48.004  49.926  1.00  0.00     0.032 A 
ENDROOT
BRANCH   1  11
HETATM   11  N   UNL     1      25.957  46.320  51.358  1.00  0.00    -0.326 N 
HETATM   12  C   UNL     1      26.011  46.455  52.728  1.00  0.00     0.231 C 
HETATM   13  O   UNL     1      25.806  47.460  53.391  1.00  0.00    -0.272 OA
HETATM   14  H   UNL     1      26.129  45.391  50.998  1.00  0.00     0.169 HD
BRANCH  12  15
HETATM   15  C   UNL     1      26.374  45.163  53.425  1.00  0.00     0.045 A 
HETATM   16  C   UNL     1      25.216  44.188  53.658  1.00  0.00     0.020 A 
HETATM   17  C   UNL     1      25.807  44.918  54.821  1.00  0.00     0.020 A 
BRANCH  15  18
HETATM   18  C   UNL     1      27.738  44.562  53.099  1.00  0.00     0.057 C 
BRANCH  18  19
HETATM   19  C   UNL     1      28.731  44.559  54.242  1.00  0.00    -0.057 A 
HETATM   20  C   UNL     1      28.948  45.671  55.064  1.00  0.00     0.007 A 
HETATM   21  C   UNL     1      29.921  45.641  56.069  1.00  0.00     0.001 A 
HETATM   22  C   UNL     1      30.703  44.505  56.253  1.00  0.00     0.000 A 
HETATM   23  C   UNL     1      30.515  43.397  55.432  1.00  0.00     0.001 A 
HETATM   24  C   UNL     1      29.539  43.424  54.433  1.00  0.00     0.007 A 
ENDBRANCH  18  19
ENDBRANCH  15  18
ENDBRANCH  12  15
ENDBRANCH   1  11
BRANCH   8  25
HETATM   25  C   UNL     1      21.846  49.083  48.373  1.00  0.00     0.270 C 
HETATM   26  N   UNL     1      21.277  49.409  49.575  1.00  0.00    -0.365 N 
HETATM   27  H   UNL     1      21.863  49.820  50.292  1.00  0.00     0.159 HD
HETATM   28  H   UNL     1      20.295  49.245  49.722  1.00  0.00     0.159 HD
HETATM   29  O   UNL     1      21.180  48.588  47.470  1.00  0.00    -0.266 OA
ENDBRANCH   8  25
TORSDOF 5
ENDMDL
MODEL 2
REMARK VINA RESULT:      -9.1      3.526      8.543
REMARK  5 active torsions:
REMARK  status: ('A' for Active; 'I' for Inactive)
REMARK    1  A    between atoms: C_4  and  C_5 
REMARK    2  A    between atoms: C_5  and  C_6 
REMARK    3  A    between atoms: C_6  and  C_7 
REMARK       I    between atoms: C_7  and  N_8 
REMARK    4  A    between atoms: N_8  and  C_9 
REMARK    5  A    between atoms: C_16  and  C_17 
REMARK       I    between atoms: C_17  and  N_18 
ROOT
HETATM    1  C   UNL     1      27.927  44.334  53.104  1.00  0.00     0.035 A 
HETATM    2  C   UNL     1      28.252  44.936  54.327  1.00  0.00     0.046 A 
HETATM    3  C   UNL     1      29.375  44.476  55.052  1.00  0.00     0.030 A 
HETATM    4  C   UNL     1      30.127  43.431  54.532  1.00  0.00     0.063 A 
HETATM    5  N   UNL     1      31.119  43.207  55.445  1.00  0.00    -0.277 N 
HETATM    6  H   UNL     1      31.853  42.510  55.396  1.00  0.00     0.189 HD
HETATM    7  N   UNL     1      31.086  44.021  56.513  1.00  0.00    -0.168 NA
HETATM    8  C   UNL     1      30.013  44.813  56.284  1.00  0.00     0.156 A 
HETATM    9  C   UNL     1      29.835  42.812  53.316  1.00  0.00     0.034 A 
HETATM   10  C   UNL     1      28.721  43.289  52.614  1.00  0.00     0.032 A 
ENDROOT
BRANCH   1  11
HETATM   11  N   UNL     1      26.815  44.704  52.320  1.00  0.00    -0.326 N 
HETATM   12  C   UNL     1      26.770  44.888  50.955  1.00  0.00     0.231 C 
HETATM   13  O   UNL     1      27.661  44.694  50.143  1.00  0.00    -0.272 OA
HETATM   14  H   UNL     1      25.956  44.891  52.819  1.00  0.00     0.169 HD
BRANCH  12  15
HETATM   15  C   UNL     1      25.425  45.391  50.480  1.00  0.00     0.045 A 
HETATM   16  C   UNL     1      24.321  44.334  50.379  1.00  0.00     0.020 A 
HETATM   17  C   UNL     1      24.913  44.900  49.128  1.00  0.00     0.020 A 
BRANCH  15  18
HETATM   18  C   UNL     1      25.013  46.790  50.928  1.00  0.00     0.057 C 
BRANCH  18  19
HETATM   19  C   UNL     1      25.407  47.909  49.988  1.00  0.00    -0.057 A 
HETATM   20  C   UNL     1      24.475  48.632  49.233  1.00  0.00     0.007 A 
HETATM   21  C   UNL     1      24.893  49.616  48.331  1.00  0.00     0.001 A 
HETATM   22  C   UNL     1      26.249  49.878  48.157  1.00  0.00     0.000 A 
HETATM   23  C   UNL     1      27.190  49.155  48.885  1.00  0.00     0.001 A 
HETATM   24  C   UNL     1      26.773  48.177  49.790  1.00  0.00     0.007 A 
ENDBRANCH  18  19
ENDBRANCH  15  18
ENDBRANCH  12  15
ENDBRANCH   1  11
BRANCH   8  25
HETATM   25  C   UNL     1      29.627  45.862  57.239  1.00  0.00     0.270 C 
HETATM   26  N   UNL     1      30.620  46.213  58.114  1.00  0.00    -0.365 N 
HETATM   27  H   UNL     1      31.516  45.746  58.042  1.00  0.00     0.159 HD
HETATM   28  H   UNL     1      30.448  46.930  58.800  1.00  0.00     0.159 HD
HETATM   29  O   UNL     1      28.527  46.401  57.280  1.00  0.00    -0.266 OA
ENDBRANCH   8  25
TORSDOF 5
ENDMDL
MODEL 3
REMARK VINA RESULT:      -9.0      5.410      7.992
REMARK  5 active torsions:
REMARK  status: ('A' for Active; 'I' for Inactive)
REMARK    1  A    between atoms: C_4  and  C_5 
REMARK    2  A    between atoms: C_5  and  C_6 
REMARK    3  A    between atoms: C_6  and  C_7 
REMARK       I    between atoms: C_7  and  N_8 
REMARK    4  A    between atoms: N_8  and  C_9 
REMARK    5  A    between atoms: C_16  and  C_17 
REMARK       I    between atoms: C_17  and  N_18 
ROOT
HETATM    1  C   UNL     1      27.233  41.640  50.297  1.00  0.00     0.035 A 
HETATM    2  C   UNL     1      27.901  40.440  50.576  1.00  0.00     0.046 A 
HETATM    3  C   UNL     1      28.263  39.581  49.513  1.00  0.00     0.030 A 
HETATM    4  C   UNL     1      27.942  39.951  48.213  1.00  0.00     0.063 A 
HETATM    5  N   UNL     1      28.401  38.935  47.422  1.00  0.00    -0.277 N 
HETATM    6  H   UNL     1      28.334  38.865  46.413  1.00  0.00     0.189 HD
HETATM    7  N   UNL     1      29.003  37.938  48.091  1.00  0.00    -0.168 NA
HETATM    8  C   UNL     1      28.927  38.324  49.385  1.00  0.00     0.156 A 
HETATM    9  C   UNL     1      27.281  41.140  47.899  1.00  0.00     0.034 A 
HETATM   10  C   UNL     1      26.939  41.976  48.969  1.00  0.00     0.032 A 
ENDROOT
BRANCH   1  11
HETATM   11  N   UNL     1      26.810  42.549  51.288  1.00  0.00    -0.326 N 
HETATM   12  C   UNL     1      27.087  43.896  51.369  1.00  0.00     0.231 C 
HETATM   13  O   UNL     1      27.690  44.587  50.564  1.00  0.00    -0.272 OA
HETATM   14  H   UNL     1      26.266  42.163  52.048  1.00  0.00     0.169 HD
BRANCH  12  15
HETATM   15  C   UNL     1      26.550  44.525  52.636  1.00  0.00     0.045 A 
HETATM   16  C   UNL     1      25.196  45.229  52.503  1.00  0.00     0.020 A 
HETATM   17  C   UNL     1      26.434  46.046  52.688  1.00  0.00     0.020 A 
BRANCH  15  18
HETATM   18  C   UNL     1      26.829  43.790  53.944  1.00  0.00     0.057 C 
BRANCH  18  19
HETATM   19  C   UNL     1      28.229  43.964  54.494  1.00  0.00    -0.057 A 
HETATM   20  C   UNL     1      29.240  43.013  54.313  1.00  0.00     0.007 A 
HETATM   21  C   UNL     1      30.501  43.189  54.894  1.00  0.00     0.001 A 
HETATM   22  C   UNL     1      30.761  44.308  55.679  1.00  0.00     0.000 A 
HETATM   23  C   UNL     1      29.761  45.254  55.886  1.00  0.00     0.001 A 
HETATM   24  C   UNL     1      28.505  45.081  55.301  1.00  0.00     0.007 A 
ENDBRANCH  18  19
ENDBRANCH  15  18
ENDBRANCH  12  15
ENDBRANCH   1  11
BRANCH   8  25
HETATM   25  C   UNL     1      29.485  37.489  50.459  1.00  0.00     0.270 C 
HETATM   26  N   UNL     1      28.662  36.470  50.860  1.00  0.00    -0.365 N 
HETATM   27  H   UNL     1      27.764  36.366  50.403  1.00  0.00     0.159 HD
HETATM   28  H   UNL     1      28.964  35.842  51.586  1.00  0.00     0.159 HD
HETATM   29  O   UNL     1      30.584  37.656  50.975  1.00  0.00    -0.266 OA
ENDBRANCH   8  25
TORSDOF 5
ENDMDL
MODEL 4
REMARK VINA RESULT:      -9.0      2.800      3.647
REMARK  5 active torsions:
REMARK  status: ('A' for Active; 'I' for Inactive)
REMARK    1  A    between atoms: C_4  and  C_5 
REMARK    2  A    between atoms: C_5  and  C_6 
REMARK    3  A    between atoms: C_6  and  C_7 
REMARK       I    between atoms: C_7  and  N_8 
REMARK    4  A    between atoms: N_8  and  C_9 
REMARK    5  A    between atoms: C_16  and  C_17 
REMARK       I    between atoms: C_17  and  N_18 
ROOT
HETATM    1  C   UNL     1      26.240  45.007  52.061  1.00  0.00     0.035 A 
HETATM    2  C   UNL     1      25.388  44.563  51.041  1.00  0.00     0.046 A 
HETATM    3  C   UNL     1      24.557  45.493  50.375  1.00  0.00     0.030 A 
HETATM    4  C   UNL     1      24.605  46.828  50.755  1.00  0.00     0.063 A 
HETATM    5  N   UNL     1      23.699  47.467  49.955  1.00  0.00    -0.277 N 
HETATM    6  H   UNL     1      23.465  48.453  49.959  1.00  0.00     0.189 HD
HETATM    7  N   UNL     1      23.070  46.667  49.078  1.00  0.00    -0.168 NA
HETATM    8  C   UNL     1      23.590  45.442  49.325  1.00  0.00     0.156 A 
HETATM    9  C   UNL     1      25.444  47.305  51.763  1.00  0.00     0.034 A 
HETATM   10  C   UNL     1      26.262  46.365  52.404  1.00  0.00     0.032 A 
ENDROOT
BRANCH   1  11
HETATM   11  N   UNL     1      27.088  44.155  52.799  1.00  0.00    -0.326 N 
HETATM   12  C   UNL     1      28.274  43.585  52.389  1.00  0.00     0.231 C 
HETATM   13  O   UNL     1      28.866  43.762  51.336  1.00  0.00    -0.272 OA
HETATM   14  H   UNL     1      26.774  43.903  53.726  1.00  0.00     0.169 HD
BRANCH  12  15
HETATM   15  C   UNL     1      28.850  42.639  53.419  1.00  0.00     0.045 A 
HETATM   16  C   UNL     1      28.474  41.164  53.247  1.00  0.00     0.020 A 
HETATM   17  C   UNL     1      27.884  41.946  54.376  1.00  0.00     0.020 A 
BRANCH  15  18
HETATM   18  C   UNL     1      30.255  42.946  53.929  1.00  0.00     0.057 C 
BRANCH  18  19
HETATM   19  C   UNL     1      30.314  43.718  55.230  1.00  0.00    -0.057 A 
HETATM   20  C   UNL     1      29.643  44.932  55.424  1.00  0.00     0.007 A 
HETATM   21  C   UNL     1      29.777  45.640  56.623  1.00  0.00     0.001 A 
HETATM   22  C   UNL     1      30.599  45.155  57.636  1.00  0.00     0.000 A 
HETATM   23  C   UNL     1      31.288  43.960  57.452  1.00  0.00     0.001 A 
HETATM   24  C   UNL     1      31.150  43.250  56.258  1.00  0.00     0.007 A 
ENDBRANCH  18  19
ENDBRANCH  15  18
ENDBRANCH  12  15
ENDBRANCH   1  11
BRANCH   8  25
HETATM   25  C   UNL     1      23.156  44.266  48.559  1.00  0.00     0.270 C 
HETATM   26  N   UNL     1      24.077  43.822  47.648  1.00  0.00    -0.365 N 
HETATM   27  H   UNL     1      24.959  44.314  47.573  1.00  0.00     0.159 HD
HETATM   28  H   UNL     1      23.869  43.015  47.082  1.00  0.00     0.159 HD
HETATM   29  O   UNL     1      22.076  43.702  48.694  1.00  0.00    -0.266 OA
ENDBRANCH   8  25
TORSDOF 5
ENDMDL
MODEL 5
REMARK VINA RESULT:      -8.8      1.829      2.907
REMARK  5 active torsions:
REMARK  status: ('A' for Active; 'I' for Inactive)
REMARK    1  A    between atoms: C_4  and  C_5 
REMARK    2  A    between atoms: C_5  and  C_6 
REMARK    3  A    between atoms: C_6  and  C_7 
REMARK       I    between atoms: C_7  and  N_8 
REMARK    4  A    between atoms: N_8  and  C_9 
REMARK    5  A    between atoms: C_16  and  C_17 
REMARK       I    between atoms: C_17  and  N_18 
ROOT
HETATM    1  C   UNL     1      25.030  46.180  51.458  1.00  0.00     0.035 A 
HETATM    2  C   UNL     1      24.844  47.395  50.785  1.00  0.00     0.046 A 
HETATM    3  C   UNL     1      24.007  47.440  49.647  1.00  0.00     0.030 A 
HETATM    4  C   UNL     1      23.390  46.270  49.222  1.00  0.00     0.063 A 
HETATM    5  N   UNL     1      22.669  46.621  48.115  1.00  0.00    -0.277 N 
HETATM    6  H   UNL     1      22.096  46.016  47.539  1.00  0.00     0.189 HD
HETATM    7  N   UNL     1      22.753  47.920  47.786  1.00  0.00    -0.168 NA
HETATM    8  C   UNL     1      23.576  48.441  48.725  1.00  0.00     0.156 A 
HETATM    9  C   UNL     1      23.550  45.044  49.870  1.00  0.00     0.034 A 
HETATM   10  C   UNL     1      24.380  45.027  50.998  1.00  0.00     0.032 A 
ENDROOT
BRANCH   1  11
HETATM   11  N   UNL     1      25.864  46.029  52.585  1.00  0.00    -0.326 N 
HETATM   12  C   UNL     1      26.000  46.888  53.654  1.00  0.00     0.231 C 
HETATM   13  O   UNL     1      25.374  47.912  53.876  1.00  0.00    -0.272 OA
HETATM   14  H   UNL     1      26.458  45.211  52.597  1.00  0.00     0.169 HD
BRANCH  12  15
HETATM   15  C   UNL     1      27.072  46.444  54.624  1.00  0.00     0.045 A 
HETATM   16  C   UNL     1      27.369  47.414  55.772  1.00  0.00     0.020 A 
HETATM   17  C   UNL     1      28.370  47.246  54.674  1.00  0.00     0.020 A 
BRANCH  15  18
HETATM   18  C   UNL     1      27.148  44.951  54.933  1.00  0.00     0.057 C 
BRANCH  18  19
HETATM   19  C   UNL     1      28.326  44.226  54.319  1.00  0.00    -0.057 A 
HETATM   20  C   UNL     1      28.323  43.747  53.003  1.00  0.00     0.007 A 
HETATM   21  C   UNL     1      29.412  43.028  52.500  1.00  0.00     0.001 A 
HETATM   22  C   UNL     1      30.511  42.761  53.311  1.00  0.00     0.000 A 
HETATM   23  C   UNL     1      30.523  43.212  54.627  1.00  0.00     0.001 A 
HETATM   24  C   UNL     1      29.439  43.935  55.128  1.00  0.00     0.007 A 
ENDBRANCH  18  19
ENDBRANCH  15  18
ENDBRANCH  12  15
ENDBRANCH   1  11
BRANCH   8  25
HETATM   25  C   UNL     1      23.928  49.868  48.718  1.00  0.00     0.270 C 
HETATM   26  N   UNL     1      24.951  50.187  47.866  1.00  0.00    -0.365 N 
HETATM   27  H   UNL     1      25.374  49.447  47.319  1.00  0.00     0.159 HD
HETATM   28  H   UNL     1      25.256  51.144  47.790  1.00  0.00     0.159 HD
HETATM   29  O   UNL     1      23.378  50.727  49.397  1.00  0.00    -0.266 OA
ENDBRANCH   8  25
TORSDOF 5
ENDMDL
MODEL 6
REMARK VINA RESULT:      -8.2      1.535      2.179
REMARK  5 active torsions:
REMARK  status: ('A' for Active; 'I' for Inactive)
REMARK    1  A    between atoms: C_4  and  C_5 
REMARK    2  A    between atoms: C_5  and  C_6 
REMARK    3  A    between atoms: C_6  and  C_7 
REMARK       I    between atoms: C_7  and  N_8 
REMARK    4  A    between atoms: N_8  and  C_9 
REMARK    5  A    between atoms: C_16  and  C_17 
REMARK       I    between atoms: C_17  and  N_18 
ROOT
HETATM    1  C   UNL     1      26.036  47.238  50.099  1.00  0.00     0.035 A 
HETATM    2  C   UNL     1      24.714  47.442  49.681  1.00  0.00     0.046 A 
HETATM    3  C   UNL     1      24.406  48.551  48.861  1.00  0.00     0.030 A 
HETATM    4  C   UNL     1      25.428  49.416  48.491  1.00  0.00     0.063 A 
HETATM    5  N   UNL     1      24.831  50.377  47.723  1.00  0.00    -0.277 N 
HETATM    6  H   UNL     1      25.275  51.175  47.286  1.00  0.00     0.189 HD
HETATM    7  N   UNL     1      23.510  50.210  47.551  1.00  0.00    -0.168 NA
HETATM    8  C   UNL     1      23.232  49.084  48.249  1.00  0.00     0.156 A 
HETATM    9  C   UNL     1      26.755  49.241  48.885  1.00  0.00     0.034 A 
HETATM   10  C   UNL     1      27.036  48.131  49.693  1.00  0.00     0.032 A 
ENDROOT
BRANCH   1  11
HETATM   11  N   UNL     1      26.438  46.177  50.937  1.00  0.00    -0.326 N 
HETATM   12  C   UNL     1      26.831  44.911  50.562  1.00  0.00     0.231 C 
HETATM   13  O   UNL     1      26.982  44.477  49.431  1.00  0.00    -0.272 OA
HETATM   14  H   UNL     1      26.402  46.353  51.931  1.00  0.00     0.169 HD
BRANCH  12  15
HETATM   15  C   UNL     1      27.087  44.007  51.748  1.00  0.00     0.045 A 
HETATM   16  C   UNL     1      28.451  43.311  51.768  1.00  0.00     0.020 A 
HETATM   17  C   UNL     1      27.220  42.509  51.492  1.00  0.00     0.020 A 
BRANCH  15  18
HETATM   18  C   UNL     1      26.507  44.448  53.090  1.00  0.00     0.057 C 
BRANCH  18  19
HETATM   19  C   UNL     1      27.502  45.069  54.048  1.00  0.00    -0.057 A 
HETATM   20  C   UNL     1      28.531  44.338  54.654  1.00  0.00     0.007 A 
HETATM   21  C   UNL     1      29.387  44.941  55.581  1.00  0.00     0.001 A 
HETATM   22  C   UNL     1      29.215  46.277  55.929  1.00  0.00     0.000 A 
HETATM   23  C   UNL     1      28.185  47.014  55.351  1.00  0.00     0.001 A 
HETATM   24  C   UNL     1      27.334  46.414  54.421  1.00  0.00     0.007 A 
ENDBRANCH  18  19
ENDBRANCH  15  18
ENDBRANCH  12  15
ENDBRANCH   1  11
BRANCH   8  25
HETATM   25  C   UNL     1      21.864  48.550  48.311  1.00  0.00     0.270 C 
HETATM   26  N   UNL     1      21.265  48.689  49.534  1.00  0.00    -0.365 N 
HETATM   27  H   UNL     1      21.785  49.136  50.280  1.00  0.00     0.159 HD
HETATM   28  H   UNL     1      20.324  48.357  49.669  1.00  0.00     0.159 HD
HETATM   29  O   UNL     1      21.275  48.021  47.374  1.00  0.00    -0.266 OA
ENDBRANCH   8  25
TORSDOF 5
ENDMDL
MODEL 7
REMARK VINA RESULT:      -8.2      3.923      9.794
REMARK  5 active torsions:
REMARK  status: ('A' for Active; 'I' for Inactive)
REMARK    1  A    between atoms: C_4  and  C_5 
REMARK    2  A    between atoms: C_5  and  C_6 
REMARK    3  A    between atoms: C_6  and  C_7 
REMARK       I    between atoms: C_7  and  N_8 
REMARK    4  A    between atoms: N_8  and  C_9 
REMARK    5  A    between atoms: C_16  and  C_17 
REMARK       I    between atoms: C_17  and  N_18 
ROOT
HETATM    1  C   UNL     1      22.558  49.451  48.919  1.00  0.00     0.035 A 
HETATM    2  C   UNL     1      23.483  48.563  49.484  1.00  0.00     0.046 A 
HETATM    3  C   UNL     1      24.852  48.680  49.152  1.00  0.00     0.030 A 
HETATM    4  C   UNL     1      25.245  49.676  48.267  1.00  0.00     0.063 A 
HETATM    5  N   UNL     1      26.598  49.534  48.137  1.00  0.00    -0.277 N 
HETATM    6  H   UNL     1      27.222  50.089  47.563  1.00  0.00     0.189 HD
HETATM    7  N   UNL     1      27.126  48.537  48.867  1.00  0.00    -0.168 NA
HETATM    8  C   UNL     1      26.058  47.999  49.501  1.00  0.00     0.156 A 
HETATM    9  C   UNL     1      24.352  50.580  47.691  1.00  0.00     0.034 A 
HETATM   10  C   UNL     1      23.002  50.447  48.039  1.00  0.00     0.032 A 
ENDROOT
BRANCH   1  11
HETATM   11  N   UNL     1      21.171  49.400  49.168  1.00  0.00    -0.326 N 
HETATM   12  C   UNL     1      20.436  50.207  50.010  1.00  0.00     0.231 C 
HETATM   13  O   UNL     1      20.822  51.172  50.649  1.00  0.00    -0.272 OA
HETATM   14  H   UNL     1      20.658  48.665  48.702  1.00  0.00     0.169 HD
BRANCH  12  15
HETATM   15  C   UNL     1      18.987  49.783  50.101  1.00  0.00     0.045 A 
HETATM   16  C   UNL     1      18.686  48.664  51.102  1.00  0.00     0.020 A 
HETATM   17  C   UNL     1      18.621  48.376  49.637  1.00  0.00     0.020 A 
BRANCH  15  18
HETATM   18  C   UNL     1      17.935  50.878  49.941  1.00  0.00     0.057 C 
BRANCH  18  19
HETATM   19  C   UNL     1      17.444  51.097  48.527  1.00  0.00    -0.057 A 
HETATM   20  C   UNL     1      18.170  51.820  47.572  1.00  0.00     0.007 A 
HETATM   21  C   UNL     1      17.645  52.049  46.296  1.00  0.00     0.001 A 
HETATM   22  C   UNL     1      16.380  51.575  45.962  1.00  0.00     0.000 A 
HETATM   23  C   UNL     1      15.636  50.871  46.905  1.00  0.00     0.001 A 
HETATM   24  C   UNL     1      16.162  50.637  48.177  1.00  0.00     0.007 A 
ENDBRANCH  18  19
ENDBRANCH  15  18
ENDBRANCH  12  15
ENDBRANCH   1  11
BRANCH   8  25
HETATM   25  C   UNL     1      26.214  46.860  50.417  1.00  0.00     0.270 C 
HETATM   26  N   UNL     1      26.073  47.184  51.740  1.00  0.00    -0.365 N 
HETATM   27  H   UNL     1      25.875  48.147  51.984  1.00  0.00     0.159 HD
HETATM   28  H   UNL     1      26.158  46.465  52.440  1.00  0.00     0.159 HD
HETATM   29  O   UNL     1      26.449  45.709  50.068  1.00  0.00    -0.266 OA
ENDBRANCH   8  25
TORSDOF 5
ENDMDL
MODEL 8
REMARK VINA RESULT:      -8.1      5.223      7.467
REMARK  5 active torsions:
REMARK  status: ('A' for Active; 'I' for Inactive)
REMARK    1  A    between atoms: C_4  and  C_5 
REMARK    2  A    between atoms: C_5  and  C_6 
REMARK    3  A    between atoms: C_6  and  C_7 
REMARK       I    between atoms: C_7  and  N_8 
REMARK    4  A    between atoms: N_8  and  C_9 
REMARK    5  A    between atoms: C_16  and  C_17 
REMARK       I    between atoms: C_17  and  N_18 
ROOT
HETATM    1  C   UNL     1      27.388  41.133  51.380  1.00  0.00     0.035 A 
HETATM    2  C   UNL     1      26.742  40.642  50.237  1.00  0.00     0.046 A 
HETATM    3  C   UNL     1      27.301  39.550  49.536  1.00  0.00     0.030 A 
HETATM    4  C   UNL     1      28.486  38.991  50.000  1.00  0.00     0.063 A 
HETATM    5  N   UNL     1      28.777  37.981  49.126  1.00  0.00    -0.277 N 
HETATM    6  H   UNL     1      29.577  37.359  49.152  1.00  0.00     0.189 HD
HETATM    7  N   UNL     1      27.882  37.825  48.137  1.00  0.00    -0.168 NA
HETATM    8  C   UNL     1      26.962  38.788  48.378  1.00  0.00     0.156 A 
HETATM    9  C   UNL     1      29.153  39.451  51.136  1.00  0.00     0.034 A 
HETATM   10  C   UNL     1      28.576  40.531  51.816  1.00  0.00     0.032 A 
ENDROOT
BRANCH   1  11
HETATM   11  N   UNL     1      26.923  42.232  52.132  1.00  0.00    -0.326 N 
HETATM   12  C   UNL     1      27.081  43.572  51.851  1.00  0.00     0.231 C 
HETATM   13  O   UNL     1      27.587  44.075  50.861  1.00  0.00    -0.272 OA
HETATM   14  H   UNL     1      26.447  42.014  52.997  1.00  0.00     0.169 HD
BRANCH  12  15
HETATM   15  C   UNL     1      26.539  44.463  52.947  1.00  0.00     0.045 A 
HETATM   16  C   UNL     1      25.181  45.111  52.662  1.00  0.00     0.020 A 
HETATM   17  C   UNL     1      26.413  45.957  52.659  1.00  0.00     0.020 A 
BRANCH  15  18
HETATM   18  C   UNL     1      26.824  44.039  54.385  1.00  0.00     0.057 C 
BRANCH  18  19
HETATM   19  C   UNL     1      28.265  44.183  54.826  1.00  0.00    -0.057 A 
HETATM   20  C   UNL     1      29.219  43.174  54.648  1.00  0.00     0.007 A 
HETATM   21  C   UNL     1      30.524  43.329  55.128  1.00  0.00     0.001 A 
HETATM   22  C   UNL     1      30.887  44.487  55.809  1.00  0.00     0.000 A 
HETATM   23  C   UNL     1      29.947  45.492  56.012  1.00  0.00     0.001 A 
HETATM   24  C   UNL     1      28.646  45.340  55.527  1.00  0.00     0.007 A 
ENDBRANCH  18  19
ENDBRANCH  15  18
ENDBRANCH  12  15
ENDBRANCH   1  11
BRANCH   8  25
HETATM   25  C   UNL     1      25.792  38.954  47.503  1.00  0.00     0.270 C 
HETATM   26  N   UNL     1      25.036  37.822  47.361  1.00  0.00    -0.365 N 
HETATM   27  H   UNL     1      25.323  36.983  47.851  1.00  0.00     0.159 HD
HETATM   28  H   UNL     1      24.210  37.843  46.785  1.00  0.00     0.159 HD
HETATM   29  O   UNL     1      25.485  39.996  46.936  1.00  0.00    -0.266 OA
ENDBRANCH   8  25
TORSDOF 5
ENDMDL
MODEL 9
REMARK VINA RESULT:      -7.9      4.427      6.655
REMARK  5 active torsions:
REMARK  status: ('A' for Active; 'I' for Inactive)
REMARK    1  A    between atoms: C_4  and  C_5 
REMARK    2  A    between atoms: C_5  and  C_6 
REMARK    3  A    between atoms: C_6  and  C_7 
REMARK       I    between atoms: C_7  and  N_8 
REMARK    4  A    between atoms: N_8  and  C_9 
REMARK    5  A    between atoms: C_16  and  C_17 
REMARK       I    between atoms: C_17  and  N_18 
ROOT
HETATM    1  C   UNL     1      25.352  42.986  50.973  1.00  0.00     0.035 A 
HETATM    2  C   UNL     1      26.279  42.002  50.605  1.00  0.00     0.046 A 
HETATM    3  C   UNL     1      25.958  41.095  49.569  1.00  0.00     0.030 A 
HETATM    4  C   UNL     1      24.723  41.204  48.943  1.00  0.00     0.063 A 
HETATM    5  N   UNL     1      24.700  40.204  48.011  1.00  0.00    -0.277 N 
HETATM    6  H   UNL     1      23.947  39.979  47.371  1.00  0.00     0.189 HD
HETATM    7  N   UNL     1      25.815  39.457  47.967  1.00  0.00    -0.168 NA
HETATM    8  C   UNL     1      26.604  39.997  48.925  1.00  0.00     0.156 A 
HETATM    9  C   UNL     1      23.779  42.174  49.281  1.00  0.00     0.034 A 
HETATM   10  C   UNL     1      24.123  43.063  50.306  1.00  0.00     0.032 A 
ENDROOT
BRANCH   1  11
HETATM   11  N   UNL     1      25.569  43.918  52.009  1.00  0.00    -0.326 N 
HETATM   12  C   UNL     1      26.250  45.115  51.937  1.00  0.00     0.231 C 
HETATM   13  O   UNL     1      26.734  45.642  50.948  1.00  0.00    -0.272 OA
HETATM   14  H   UNL     1      25.215  43.666  52.921  1.00  0.00     0.169 HD
BRANCH  12  15
HETATM   15  C   UNL     1      26.370  45.797  53.281  1.00  0.00     0.045 A 
HETATM   16  C   UNL     1      25.488  47.034  53.478  1.00  0.00     0.020 A 
HETATM   17  C   UNL     1      26.965  47.202  53.321  1.00  0.00     0.020 A 
BRANCH  15  18
HETATM   18  C   UNL     1      26.593  44.898  54.494  1.00  0.00     0.057 C 
BRANCH  18  19
HETATM   19  C   UNL     1      28.006  44.383  54.664  1.00  0.00    -0.057 A 
HETATM   20  C   UNL     1      28.440  43.162  54.133  1.00  0.00     0.007 A 
HETATM   21  C   UNL     1      29.738  42.699  54.369  1.00  0.00     0.001 A 
HETATM   22  C   UNL     1      30.615  43.441  55.154  1.00  0.00     0.000 A 
HETATM   23  C   UNL     1      30.196  44.648  55.706  1.00  0.00     0.001 A 
HETATM   24  C   UNL     1      28.901  45.113  55.465  1.00  0.00     0.007 A 
ENDBRANCH  18  19
ENDBRANCH  15  18
ENDBRANCH  12  15
ENDBRANCH   1  11
BRANCH   8  25
HETATM   25  C   UNL     1      27.943  39.456  49.199  1.00  0.00     0.270 C 
HETATM   26  N   UNL     1      28.575  38.947  48.096  1.00  0.00    -0.365 N 
HETATM   27  H   UNL     1      28.096  38.980  47.204  1.00  0.00     0.159 HD
HETATM   28  H   UNL     1      29.501  38.560  48.187  1.00  0.00     0.159 HD
HETATM   29  O   UNL     1      28.482  39.445  50.299  1.00  0.00    -0.266 OA
ENDBRANCH   8  25
TORSDOF 5
ENDMDL
MODEL 10
REMARK VINA RESULT:      -7.8      4.164      8.083
REMARK  5 active torsions:
REMARK  status: ('A' for Active; 'I' for Inactive)
REMARK    1  A    between atoms: C_4  and  C_5 
REMARK    2  A    between atoms: C_5  and  C_6 
REMARK    3  A    between atoms: C_6  and  C_7 
REMARK       I    between atoms: C_7  and  N_8 
REMARK    4  A    between atoms: N_8  and  C_9 
REMARK    5  A    between atoms: C_16  and  C_17 
REMARK       I    between atoms: C_17  and  N_18 
ROOT
HETATM    1  C   UNL     1      27.368  45.558  53.772  1.00  0.00     0.035 A 
HETATM    2  C   UNL     1      28.452  44.830  54.282  1.00  0.00     0.046 A 
HETATM    3  C   UNL     1      29.027  45.210  55.516  1.00  0.00     0.030 A 
HETATM    4  C   UNL     1      28.500  46.302  56.193  1.00  0.00     0.063 A 
HETATM    5  N   UNL     1      29.256  46.427  57.325  1.00  0.00    -0.277 N 
HETATM    6  H   UNL     1      29.159  47.125  58.054  1.00  0.00     0.189 HD
HETATM    7  N   UNL     1      30.225  45.506  57.452  1.00  0.00    -0.168 NA
HETATM    8  C   UNL     1      30.095  44.744  56.341  1.00  0.00     0.156 A 
HETATM    9  C   UNL     1      27.420  47.046  55.718  1.00  0.00     0.034 A 
HETATM   10  C   UNL     1      26.864  46.647  54.495  1.00  0.00     0.032 A 
ENDROOT
BRANCH   1  11
HETATM   11  N   UNL     1      26.744  45.273  52.540  1.00  0.00    -0.326 N 
HETATM   12  C   UNL     1      25.583  44.561  52.329  1.00  0.00     0.231 C 
HETATM   13  O   UNL     1      24.824  44.100  53.166  1.00  0.00    -0.272 OA
HETATM   14  H   UNL     1      27.220  45.600  51.711  1.00  0.00     0.169 HD
BRANCH  12  15
HETATM   15  C   UNL     1      25.279  44.369  50.860  1.00  0.00     0.045 A 
HETATM   16  C   UNL     1      24.136  45.223  50.302  1.00  0.00     0.020 A 
HETATM   17  C   UNL     1      23.935  43.752  50.481  1.00  0.00     0.020 A 
BRANCH  15  18
HETATM   18  C   UNL     1      26.466  44.103  49.938  1.00  0.00     0.057 C 
BRANCH  18  19
HETATM   19  C   UNL     1      26.978  42.678  49.942  1.00  0.00    -0.057 A 
HETATM   20  C   UNL     1      27.648  42.114  51.035  1.00  0.00     0.007 A 
HETATM   21  C   UNL     1      28.158  40.813  50.968  1.00  0.00     0.001 A 
HETATM   22  C   UNL     1      28.022  40.065  49.802  1.00  0.00     0.000 A 
HETATM   23  C   UNL     1      27.376  40.617  48.700  1.00  0.00     0.001 A 
HETATM   24  C   UNL     1      26.861  41.914  48.768  1.00  0.00     0.007 A 
ENDBRANCH  18  19
ENDBRANCH  15  18
ENDBRANCH  12  15
ENDBRANCH   1  11
BRANCH   8  25
HETATM   25  C   UNL     1      30.987  43.601  56.097  1.00  0.00     0.270 C 
HETATM   26  N   UNL     1      31.827  43.316  57.139  1.00  0.00    -0.365 N 
HETATM   27  H   UNL     1      31.775  43.888  57.973  1.00  0.00     0.159 HD
HETATM   28  H   UNL     1      32.470  42.544  57.064  1.00  0.00     0.159 HD
HETATM   29  O   UNL     1      31.006  42.935  55.068  1.00  0.00    -0.266 OA
ENDBRANCH   8  25
TORSDOF 5
ENDMDL
