MODEL 1
REMARK VINA RESULT:      -9.6      0.000      0.000
REMARK  6 active torsions:
REMARK  status: ('A' for Active; 'I' for Inactive)
REMARK    1  A    between atoms: N_4  and  C_5 
REMARK    2  A    between atoms: C_13  and  C_14 
REMARK       I    between atoms: C_14  and  N_15 
REMARK    3  A    between atoms: N_15  and  C_16 
REMARK    4  A    between atoms: C_16  and  C_17 
REMARK    5  A    between atoms: C_17  and  O_18 
REMARK    6  A    between atoms: C_17  and  C_19 
ROOT
HETATM    1  C   UNL     1      25.508  44.263  52.674  1.00  0.00     0.257 C 
HETATM    2  N   UNL     1      26.765  43.730  52.510  1.00  0.00    -0.354 N 
HETATM    3  O   UNL     1      24.885  44.082  53.718  1.00  0.00    -0.267 OA
HETATM    4  H   UNL     1      27.254  43.887  51.637  1.00  0.00     0.162 HD
ENDROOT
BRANCH   1   5
HETATM    5  C   UNL     1      24.971  45.056  51.581  1.00  0.00     0.098 C 
HETATM    6  C   UNL     1      24.097  44.590  50.563  1.00  0.00     0.070 C 
HETATM    7  C   UNL     1      23.547  43.219  50.382  1.00  0.00     0.073 C 
HETATM    8  N   UNL     1      23.805  45.537  49.669  1.00  0.00    -0.170 NA
HETATM    9  N   UNL     1      24.385  46.676  50.141  1.00  0.00    -0.221 N 
HETATM   10  C   UNL     1      25.178  46.378  51.241  1.00  0.00     0.145 C 
HETATM   11 CL   UNL     1      26.290  47.497  51.908  1.00  0.00    -0.061 Cl
BRANCH   9  12
HETATM   12  C   UNL     1      24.081  47.909  49.480  1.00  0.00     0.060 A 
HETATM   13  C   UNL     1      22.772  48.322  49.206  1.00  0.00     0.031 A 
HETATM   14  C   UNL     1      22.537  49.530  48.538  1.00  0.00     0.002 A 
HETATM   15  C   UNL     1      23.601  50.330  48.128  1.00  0.00     0.000 A 
HETATM   16  C   UNL     1      24.907  49.920  48.373  1.00  0.00     0.002 A 
HETATM   17  C   UNL     1      25.147  48.714  49.038  1.00  0.00     0.031 A 
ENDBRANCH   9  12
ENDBRANCH   1   5
BRANCH   2  18
HETATM   18  C   UNL     1      27.370  42.846  53.501  1.00  0.00     0.159 C 
BRANCH  18  19
HETATM   19  C   UNL     1      28.916  42.911  53.527  1.00  0.00     0.169 C 
BRANCH  19  20
HETATM   20  O   UNL     1      29.463  43.458  52.326  1.00  0.00    -0.389 OA
HETATM   21  H   UNL     1      29.986  44.253  52.562  1.00  0.00     0.210 HD
ENDBRANCH  19  20
BRANCH  19  22
HETATM   22  C   UNL     1      29.399  43.759  54.688  1.00  0.00    -0.025 A 
HETATM   23  C   UNL     1      30.528  43.373  55.426  1.00  0.00     0.053 A 
HETATM   24  C   UNL     1      30.957  44.146  56.505  1.00  0.00     0.138 A 
HETATM   25  F   UNL     1      32.040  43.743  57.189  1.00  0.00    -0.204 F 
HETATM   26  C   UNL     1      30.277  45.304  56.870  1.00  0.00     0.072 A 
HETATM   27 CL   UNL     1      30.808  46.256  58.203  1.00  0.00    -0.081 Cl
HETATM   28  C   UNL     1      29.151  45.698  56.151  1.00  0.00     0.028 A 
HETATM   29  C   UNL     1      28.713  44.926  55.070  1.00  0.00     0.012 A 
ENDBRANCH  19  22
ENDBRANCH  18  19
ENDBRANCH   2  18
TORSDOF 6
ENDMDL
MODEL 2
REMARK VINA RESULT:      -9.6      1.686      2.258
REMARK  6 active torsions:
REMARK  status: ('A' for Active; 'I' for Inactive)
REMARK    1  A    between atoms: N_4  and  C_5 
REMARK    2  A    between atoms: C_13  and  C_14 
REMARK       I    between atoms: C_14  and  N_15 
REMARK    3  A    between atoms: N_15  and  C_16 
REMARK    4  A    between atoms: C_16  and  C_17 
REMARK    5  A    between atoms: C_17  and  O_18 
REMARK    6  A    between atoms: C_17  and  C_19 
ROOT
HETATM    1  C   UNL     1      26.354  44.035  52.299  1.00  0.00     0.257 C 
HETATM    2  N   UNL     1      27.583  43.880  52.894  1.00  0.00    -0.354 N 
HETATM    3  O   UNL     1      25.597  43.076  52.171  1.00  0.00    -0.267 OA
HETATM    4  H   UNL     1      28.192  44.685  52.979  1.00  0.00     0.162 HD
ENDROOT
BRANCH   1   5
HETATM    5  C   UNL     1      25.990  45.370  51.855  1.00  0.00     0.098 C 
HETATM    6  C   UNL     1      25.829  46.511  52.686  1.00  0.00     0.070 C 
HETATM    7  C   UNL     1      25.987  46.601  54.163  1.00  0.00     0.073 C 
HETATM    8  N   UNL     1      25.449  47.591  51.999  1.00  0.00    -0.170 NA
HETATM    9  N   UNL     1      25.464  47.216  50.689  1.00  0.00    -0.221 N 
HETATM   10  C   UNL     1      25.690  45.849  50.595  1.00  0.00     0.145 C 
HETATM   11 CL   UNL     1      25.477  44.977  49.137  1.00  0.00    -0.061 Cl
BRANCH   9  12
HETATM   12  C   UNL     1      25.279  48.231  49.697  1.00  0.00     0.060 A 
HETATM   13  C   UNL     1      24.018  48.597  49.210  1.00  0.00     0.031 A 
HETATM   14  C   UNL     1      23.900  49.584  48.224  1.00  0.00     0.002 A 
HETATM   15  C   UNL     1      25.034  50.206  47.708  1.00  0.00     0.000 A 
HETATM   16  C   UNL     1      26.294  49.836  48.166  1.00  0.00     0.002 A 
HETATM   17  C   UNL     1      26.417  48.850  49.148  1.00  0.00     0.031 A 
ENDBRANCH   9  12
ENDBRANCH   1   5
BRANCH   2  18
HETATM   18  C   UNL     1      28.092  42.574  53.299  1.00  0.00     0.159 C 
BRANCH  18  19
HETATM   19  C   UNL     1      29.600  42.577  53.647  1.00  0.00     0.169 C 
BRANCH  19  20
HETATM   20  O   UNL     1      30.415  43.005  52.555  1.00  0.00    -0.389 OA
HETATM   21  H   UNL     1      31.140  43.559  52.911  1.00  0.00     0.210 HD
ENDBRANCH  19  20
BRANCH  19  22
HETATM   22  C   UNL     1      29.879  43.492  54.823  1.00  0.00    -0.025 A 
HETATM   23  C   UNL     1      29.162  44.689  54.975  1.00  0.00     0.053 A 
HETATM   24  C   UNL     1      29.435  45.538  56.048  1.00  0.00     0.138 A 
HETATM   25  F   UNL     1      28.730  46.676  56.158  1.00  0.00    -0.204 F 
HETATM   26  C   UNL     1      30.419  45.218  56.980  1.00  0.00     0.072 A 
HETATM   27 CL   UNL     1      30.755  46.268  58.303  1.00  0.00    -0.081 Cl
HETATM   28  C   UNL     1      31.143  44.037  56.840  1.00  0.00     0.028 A 
HETATM   29  C   UNL     1      30.876  43.183  55.766  1.00  0.00     0.012 A 
ENDBRANCH  19  22
ENDBRANCH  18  19
ENDBRANCH   2  18
TORSDOF 6
ENDMDL
MODEL 3
REMARK VINA RESULT:      -9.2      3.532      8.937
REMARK  6 active torsions:
REMARK  status: ('A' for Active; 'I' for Inactive)
REMARK    1  A    between atoms: N_4  and  C_5 
REMARK    2  A    between atoms: C_13  and  C_14 
REMARK       I    between atoms: C_14  and  N_15 
REMARK    3  A    between atoms: N_15  and  C_16 
REMARK    4  A    between atoms: C_16  and  C_17 
REMARK    5  A    between atoms: C_17  and  O_18 
REMARK    6  A    between atoms: C_17  and  C_19 
ROOT
HETATM    1  C   UNL     1      26.445  45.365  52.009  1.00  0.00     0.257 C 
HETATM    2  N   UNL     1      26.981  45.579  50.762  1.00  0.00    -0.354 N 
HETATM    3  O   UNL     1      25.273  45.654  52.243  1.00  0.00    -0.267 OA
HETATM    4  H   UNL     1      27.951  45.341  50.598  1.00  0.00     0.162 HD
ENDROOT
BRANCH   1   5
HETATM    5  C   UNL     1      27.308  44.770  53.015  1.00  0.00     0.098 C 
HETATM    6  C   UNL     1      27.698  43.405  53.078  1.00  0.00     0.070 C 
HETATM    7  C   UNL     1      27.321  42.299  52.157  1.00  0.00     0.073 C 
HETATM    8  N   UNL     1      28.463  43.143  54.140  1.00  0.00    -0.170 NA
HETATM    9  N   UNL     1      28.688  44.348  54.735  1.00  0.00    -0.221 N 
HETATM   10  C   UNL     1      27.913  45.325  54.125  1.00  0.00     0.145 C 
HETATM   11 CL   UNL     1      27.706  46.889  54.792  1.00  0.00    -0.061 Cl
BRANCH   9  12
HETATM   12  C   UNL     1      29.640  44.403  55.803  1.00  0.00     0.060 A 
HETATM   13  C   UNL     1      29.669  45.440  56.743  1.00  0.00     0.031 A 
HETATM   14  C   UNL     1      30.636  45.451  57.755  1.00  0.00     0.002 A 
HETATM   15  C   UNL     1      31.589  44.437  57.833  1.00  0.00     0.000 A 
HETATM   16  C   UNL     1      31.586  43.413  56.891  1.00  0.00     0.002 A 
HETATM   17  C   UNL     1      30.624  43.399  55.879  1.00  0.00     0.031 A 
ENDBRANCH   9  12
ENDBRANCH   1   5
BRANCH   2  18
HETATM   18  C   UNL     1      26.237  46.250  49.701  1.00  0.00     0.159 C 
BRANCH  18  19
HETATM   19  C   UNL     1      26.527  47.768  49.606  1.00  0.00     0.169 C 
BRANCH  19  20
HETATM   20  O   UNL     1      27.555  48.073  48.663  1.00  0.00    -0.389 OA
HETATM   21  H   UNL     1      28.129  48.768  49.048  1.00  0.00     0.210 HD
ENDBRANCH  19  20
BRANCH  19  22
HETATM   22  C   UNL     1      25.280  48.528  49.196  1.00  0.00    -0.025 A 
HETATM   23  C   UNL     1      24.008  48.030  49.519  1.00  0.00     0.053 A 
HETATM   24  C   UNL     1      22.863  48.722  49.124  1.00  0.00     0.138 A 
HETATM   25  F   UNL     1      21.664  48.213  49.449  1.00  0.00    -0.204 F 
HETATM   26  C   UNL     1      22.960  49.911  48.404  1.00  0.00     0.072 A 
HETATM   27 CL   UNL     1      21.546  50.763  47.917  1.00  0.00    -0.081 Cl
HETATM   28  C   UNL     1      24.214  50.415  48.072  1.00  0.00     0.028 A 
HETATM   29  C   UNL     1      25.366  49.725  48.462  1.00  0.00     0.012 A 
ENDBRANCH  19  22
ENDBRANCH  18  19
ENDBRANCH   2  18
TORSDOF 6
ENDMDL
MODEL 4
REMARK VINA RESULT:      -9.2      2.166      3.316
REMARK  6 active torsions:
REMARK  status: ('A' for Active; 'I' for Inactive)
REMARK    1  A    between atoms: N_4  and  C_5 
REMARK    2  A    between atoms: C_13  and  C_14 
REMARK       I    between atoms: C_14  and  N_15 
REMARK    3  A    between atoms: N_15  and  C_16 
REMARK    4  A    between atoms: C_16  and  C_17 
REMARK    5  A    between atoms: C_17  and  O_18 
REMARK    6  A    between atoms: C_17  and  C_19 
ROOT
HETATM    1  C   UNL     1      26.774  46.199  49.914  1.00  0.00     0.257 C 
HETATM    2  N   UNL     1      26.522  45.544  51.096  1.00  0.00    -0.354 N 
HETATM    3  O   UNL     1      27.685  45.828  49.177  1.00  0.00    -0.267 OA
HETATM    4  H   UNL     1      25.770  45.875  51.689  1.00  0.00     0.162 HD
ENDROOT
BRANCH   1   5
HETATM    5  C   UNL     1      25.912  47.317  49.573  1.00  0.00     0.098 C 
HETATM    6  C   UNL     1      26.338  48.640  49.278  1.00  0.00     0.070 C 
HETATM    7  C   UNL     1      27.727  49.174  49.256  1.00  0.00     0.073 C 
HETATM    8  N   UNL     1      25.315  49.464  49.042  1.00  0.00    -0.170 NA
HETATM    9  N   UNL     1      24.200  48.679  49.062  1.00  0.00    -0.221 N 
HETATM   10  C   UNL     1      24.536  47.399  49.482  1.00  0.00     0.145 C 
HETATM   11 CL   UNL     1      23.360  46.232  49.914  1.00  0.00    -0.061 Cl
BRANCH   9  12
HETATM   12  C   UNL     1      22.960  49.263  48.651  1.00  0.00     0.060 A 
HETATM   13  C   UNL     1      22.003  48.566  47.904  1.00  0.00     0.031 A 
HETATM   14  C   UNL     1      20.814  49.196  47.514  1.00  0.00     0.002 A 
HETATM   15  C   UNL     1      20.575  50.525  47.854  1.00  0.00     0.000 A 
HETATM   16  C   UNL     1      21.528  51.236  48.576  1.00  0.00     0.002 A 
HETATM   17  C   UNL     1      22.716  50.613  48.966  1.00  0.00     0.031 A 
ENDBRANCH   9  12
ENDBRANCH   1   5
BRANCH   2  18
HETATM   18  C   UNL     1      27.374  44.465  51.584  1.00  0.00     0.159 C 
BRANCH  18  19
HETATM   19  C   UNL     1      26.963  43.933  52.978  1.00  0.00     0.169 C 
BRANCH  19  20
HETATM   20  O   UNL     1      26.434  42.607  52.925  1.00  0.00    -0.389 OA
HETATM   21  H   UNL     1      26.201  42.333  53.837  1.00  0.00     0.210 HD
ENDBRANCH  19  20
BRANCH  19  22
HETATM   22  C   UNL     1      28.150  43.923  53.921  1.00  0.00    -0.025 A 
HETATM   23  C   UNL     1      28.401  45.023  54.756  1.00  0.00     0.053 A 
HETATM   24  C   UNL     1      29.506  45.018  55.608  1.00  0.00     0.138 A 
HETATM   25  F   UNL     1      29.714  46.090  56.390  1.00  0.00    -0.204 F 
HETATM   26  C   UNL     1      30.375  43.931  55.645  1.00  0.00     0.072 A 
HETATM   27 CL   UNL     1      31.738  43.927  56.697  1.00  0.00    -0.081 Cl
HETATM   28  C   UNL     1      30.143  42.835  54.819  1.00  0.00     0.028 A 
HETATM   29  C   UNL     1      29.039  42.834  53.960  1.00  0.00     0.012 A 
ENDBRANCH  19  22
ENDBRANCH  18  19
ENDBRANCH   2  18
TORSDOF 6
ENDMDL
MODEL 5
REMARK VINA RESULT:      -9.1      3.173      8.254
REMARK  6 active torsions:
REMARK  status: ('A' for Active; 'I' for Inactive)
REMARK    1  A    between atoms: N_4  and  C_5 
REMARK    2  A    between atoms: C_13  and  C_14 
REMARK       I    between atoms: C_14  and  N_15 
REMARK    3  A    between atoms: N_15  and  C_16 
REMARK    4  A    between atoms: C_16  and  C_17 
REMARK    5  A    between atoms: C_17  and  O_18 
REMARK    6  A    between atoms: C_17  and  C_19 
ROOT
HETATM    1  C   UNL     1      26.012  44.069  52.763  1.00  0.00     0.257 C 
HETATM    2  N   UNL     1      26.462  43.392  51.654  1.00  0.00    -0.354 N 
HETATM    3  O   UNL     1      24.808  44.179  52.982  1.00  0.00    -0.267 OA
HETATM    4  H   UNL     1      27.459  43.323  51.492  1.00  0.00     0.162 HD
ENDROOT
BRANCH   1   5
HETATM    5  C   UNL     1      27.013  44.620  53.660  1.00  0.00     0.098 C 
HETATM    6  C   UNL     1      27.155  45.989  54.012  1.00  0.00     0.070 C 
HETATM    7  C   UNL     1      26.337  47.145  53.553  1.00  0.00     0.073 C 
HETATM    8  N   UNL     1      28.193  46.202  54.824  1.00  0.00    -0.170 NA
HETATM    9  N   UNL     1      28.687  44.966  55.117  1.00  0.00    -0.221 N 
HETATM   10  C   UNL     1      28.048  44.009  54.340  1.00  0.00     0.145 C 
HETATM   11 CL   UNL     1      28.609  42.396  54.216  1.00  0.00    -0.061 Cl
BRANCH   9  12
HETATM   12  C   UNL     1      29.698  44.868  56.125  1.00  0.00     0.060 A 
HETATM   13  C   UNL     1      30.710  43.901  56.096  1.00  0.00     0.031 A 
HETATM   14  C   UNL     1      31.661  43.841  57.121  1.00  0.00     0.002 A 
HETATM   15  C   UNL     1      31.607  44.735  58.189  1.00  0.00     0.000 A 
HETATM   16  C   UNL     1      30.593  45.686  58.242  1.00  0.00     0.002 A 
HETATM   17  C   UNL     1      29.640  45.748  57.222  1.00  0.00     0.031 A 
ENDBRANCH   9  12
ENDBRANCH   1   5
BRANCH   2  18
HETATM   18  C   UNL     1      25.552  42.872  50.639  1.00  0.00     0.159 C 
BRANCH  18  19
HETATM   19  C   UNL     1      25.691  43.572  49.265  1.00  0.00     0.169 C 
BRANCH  19  20
HETATM   20  O   UNL     1      25.062  42.841  48.211  1.00  0.00    -0.389 OA
HETATM   21  H   UNL     1      24.271  43.342  47.921  1.00  0.00     0.210 HD
ENDBRANCH  19  20
BRANCH  19  22
HETATM   22  C   UNL     1      25.076  44.957  49.303  1.00  0.00    -0.025 A 
HETATM   23  C   UNL     1      25.845  46.063  49.699  1.00  0.00     0.053 A 
HETATM   24  C   UNL     1      25.270  47.333  49.751  1.00  0.00     0.138 A 
HETATM   25  F   UNL     1      26.037  48.366  50.137  1.00  0.00    -0.204 F 
HETATM   26  C   UNL     1      23.932  47.526  49.416  1.00  0.00     0.072 A 
HETATM   27 CL   UNL     1      23.225  49.095  49.482  1.00  0.00    -0.081 Cl
HETATM   28  C   UNL     1      23.155  46.439  49.027  1.00  0.00     0.028 A 
HETATM   29  C   UNL     1      23.724  45.162  48.976  1.00  0.00     0.012 A 
ENDBRANCH  19  22
ENDBRANCH  18  19
ENDBRANCH   2  18
TORSDOF 6
ENDMDL
MODEL 6
REMARK VINA RESULT:      -9.0      3.780      9.016
REMARK  6 active torsions:
REMARK  status: ('A' for Active; 'I' for Inactive)
REMARK    1  A    between atoms: N_4  and  C_5 
REMARK    2  A    between atoms: C_13  and  C_14 
REMARK       I    between atoms: C_14  and  N_15 
REMARK    3  A    between atoms: N_15  and  C_16 
REMARK    4  A    between atoms: C_16  and  C_17 
REMARK    5  A    between atoms: C_17  and  O_18 
REMARK    6  A    between atoms: C_17  and  C_19 
ROOT
HETATM    1  C   UNL     1      26.780  44.157  52.049  1.00  0.00     0.257 C 
HETATM    2  N   UNL     1      26.577  45.053  51.027  1.00  0.00    -0.354 N 
HETATM    3  O   UNL     1      26.379  42.998  51.953  1.00  0.00    -0.267 OA
HETATM    4  H   UNL     1      26.909  46.003  51.135  1.00  0.00     0.162 HD
ENDROOT
BRANCH   1   5
HETATM    5  C   UNL     1      27.499  44.629  53.220  1.00  0.00     0.098 C 
HETATM    6  C   UNL     1      27.141  45.743  54.025  1.00  0.00     0.070 C 
HETATM    7  C   UNL     1      25.982  46.662  53.859  1.00  0.00     0.073 C 
HETATM    8  N   UNL     1      28.016  45.963  55.009  1.00  0.00    -0.170 NA
HETATM    9  N   UNL     1      28.905  44.932  54.945  1.00  0.00    -0.221 N 
HETATM   10  C   UNL     1      28.664  44.175  53.806  1.00  0.00     0.145 C 
HETATM   11 CL   UNL     1      29.759  42.988  53.238  1.00  0.00    -0.061 Cl
BRANCH   9  12
HETATM   12  C   UNL     1      29.858  44.799  56.004  1.00  0.00     0.060 A 
HETATM   13  C   UNL     1      30.851  43.812  56.014  1.00  0.00     0.031 A 
HETATM   14  C   UNL     1      31.745  43.719  57.087  1.00  0.00     0.002 A 
HETATM   15  C   UNL     1      31.651  44.598  58.164  1.00  0.00     0.000 A 
HETATM   16  C   UNL     1      30.655  45.569  58.177  1.00  0.00     0.002 A 
HETATM   17  C   UNL     1      29.759  45.664  57.109  1.00  0.00     0.031 A 
ENDBRANCH   9  12
ENDBRANCH   1   5
BRANCH   2  18
HETATM   18  C   UNL     1      25.793  44.717  49.843  1.00  0.00     0.159 C 
BRANCH  18  19
HETATM   19  C   UNL     1      24.274  44.960  50.015  1.00  0.00     0.169 C 
BRANCH  19  20
HETATM   20  O   UNL     1      23.864  44.921  51.383  1.00  0.00    -0.389 OA
HETATM   21  H   UNL     1      24.498  44.361  51.877  1.00  0.00     0.210 HD
ENDBRANCH  19  20
BRANCH  19  22
HETATM   22  C   UNL     1      23.878  46.308  49.447  1.00  0.00    -0.025 A 
HETATM   23  C   UNL     1      22.786  46.416  48.572  1.00  0.00     0.053 A 
HETATM   24  C   UNL     1      22.436  47.656  48.037  1.00  0.00     0.138 A 
HETATM   25  F   UNL     1      21.387  47.718  47.201  1.00  0.00    -0.204 F 
HETATM   26  C   UNL     1      23.160  48.802  48.356  1.00  0.00     0.072 A 
HETATM   27 CL   UNL     1      22.728  50.331  47.694  1.00  0.00    -0.081 Cl
HETATM   28  C   UNL     1      24.250  48.711  49.218  1.00  0.00     0.028 A 
HETATM   29  C   UNL     1      24.608  47.471  49.756  1.00  0.00     0.012 A 
ENDBRANCH  19  22
ENDBRANCH  18  19
ENDBRANCH   2  18
TORSDOF 6
ENDMDL
MODEL 7
REMARK VINA RESULT:      -9.0      2.042      2.865
REMARK  6 active torsions:
REMARK  status: ('A' for Active; 'I' for Inactive)
REMARK    1  A    between atoms: N_4  and  C_5 
REMARK    2  A    between atoms: C_13  and  C_14 
REMARK       I    between atoms: C_14  and  N_15 
REMARK    3  A    between atoms: N_15  and  C_16 
REMARK    4  A    between atoms: C_16  and  C_17 
REMARK    5  A    between atoms: C_17  and  O_18 
REMARK    6  A    between atoms: C_17  and  C_19 
ROOT
HETATM    1  C   UNL     1      25.356  44.135  50.974  1.00  0.00     0.257 C 
HETATM    2  N   UNL     1      26.665  43.810  50.710  1.00  0.00    -0.354 N 
HETATM    3  O   UNL     1      24.577  43.288  51.404  1.00  0.00    -0.267 OA
HETATM    4  H   UNL     1      27.284  44.525  50.348  1.00  0.00     0.162 HD
ENDROOT
BRANCH   1   5
HETATM    5  C   UNL     1      24.950  45.511  50.745  1.00  0.00     0.098 C 
HETATM    6  C   UNL     1      25.299  46.629  51.548  1.00  0.00     0.070 C 
HETATM    7  C   UNL     1      26.135  46.650  52.780  1.00  0.00     0.073 C 
HETATM    8  N   UNL     1      24.743  47.762  51.114  1.00  0.00    -0.170 NA
HETATM    9  N   UNL     1      24.111  47.437  49.951  1.00  0.00    -0.221 N 
HETATM   10  C   UNL     1      24.141  46.061  49.769  1.00  0.00     0.145 C 
HETATM   11 CL   UNL     1      23.195  45.265  48.585  1.00  0.00    -0.061 Cl
BRANCH   9  12
HETATM   12  C   UNL     1      23.577  48.501  49.156  1.00  0.00     0.060 A 
HETATM   13  C   UNL     1      24.382  49.467  48.540  1.00  0.00     0.031 A 
HETATM   14  C   UNL     1      23.802  50.496  47.789  1.00  0.00     0.002 A 
HETATM   15  C   UNL     1      22.418  50.580  47.654  1.00  0.00     0.000 A 
HETATM   16  C   UNL     1      21.606  49.640  48.280  1.00  0.00     0.002 A 
HETATM   17  C   UNL     1      22.180  48.612  49.032  1.00  0.00     0.031 A 
ENDBRANCH   9  12
ENDBRANCH   1   5
BRANCH   2  18
HETATM   18  C   UNL     1      27.164  42.443  50.818  1.00  0.00     0.159 C 
BRANCH  18  19
HETATM   19  C   UNL     1      27.072  41.861  52.250  1.00  0.00     0.169 C 
BRANCH  19  20
HETATM   20  O   UNL     1      27.356  40.462  52.293  1.00  0.00    -0.389 OA
HETATM   21  H   UNL     1      27.369  40.180  53.231  1.00  0.00     0.210 HD
ENDBRANCH  19  20
BRANCH  19  22
HETATM   22  C   UNL     1      28.045  42.563  53.178  1.00  0.00    -0.025 A 
HETATM   23  C   UNL     1      27.590  43.542  54.074  1.00  0.00     0.053 A 
HETATM   24  C   UNL     1      28.491  44.198  54.912  1.00  0.00     0.138 A 
HETATM   25  F   UNL     1      28.018  45.131  55.754  1.00  0.00    -0.204 F 
HETATM   26  C   UNL     1      29.850  43.898  54.874  1.00  0.00     0.072 A 
HETATM   27 CL   UNL     1      30.961  44.710  55.909  1.00  0.00    -0.081 Cl
HETATM   28  C   UNL     1      30.319  42.933  53.987  1.00  0.00     0.028 A 
HETATM   29  C   UNL     1      29.422  42.273  53.142  1.00  0.00     0.012 A 
ENDBRANCH  19  22
ENDBRANCH  18  19
ENDBRANCH   2  18
TORSDOF 6
ENDMDL
MODEL 8
REMARK VINA RESULT:      -8.9      1.753      2.450
REMARK  6 active torsions:
REMARK  status: ('A' for Active; 'I' for Inactive)
REMARK    1  A    between atoms: N_4  and  C_5 
REMARK    2  A    between atoms: C_13  and  C_14 
REMARK       I    between atoms: C_14  and  N_15 
REMARK    3  A    between atoms: N_15  and  C_16 
REMARK    4  A    between atoms: C_16  and  C_17 
REMARK    5  A    between atoms: C_17  and  O_18 
REMARK    6  A    between atoms: C_17  and  C_19 
ROOT
HETATM    1  C   UNL     1      26.346  45.261  50.244  1.00  0.00     0.257 C 
HETATM    2  N   UNL     1      26.472  45.107  51.604  1.00  0.00    -0.354 N 
HETATM    3  O   UNL     1      27.162  44.749  49.480  1.00  0.00    -0.267 OA
HETATM    4  H   UNL     1      25.791  45.546  52.212  1.00  0.00     0.162 HD
ENDROOT
BRANCH   1   5
HETATM    5  C   UNL     1      25.210  46.025  49.760  1.00  0.00     0.098 C 
HETATM    6  C   UNL     1      23.944  45.496  49.391  1.00  0.00     0.070 C 
HETATM    7  C   UNL     1      23.501  44.075  49.411  1.00  0.00     0.073 C 
HETATM    8  N   UNL     1      23.110  46.437  48.943  1.00  0.00    -0.170 NA
HETATM    9  N   UNL     1      23.765  47.619  49.114  1.00  0.00    -0.221 N 
HETATM   10  C   UNL     1      25.073  47.377  49.511  1.00  0.00     0.145 C 
HETATM   11 CL   UNL     1      26.273  48.598  49.531  1.00  0.00    -0.061 Cl
BRANCH   9  12
HETATM   12  C   UNL     1      23.036  48.831  48.892  1.00  0.00     0.060 A 
HETATM   13  C   UNL     1      23.646  50.020  48.475  1.00  0.00     0.031 A 
HETATM   14  C   UNL     1      22.884  51.179  48.292  1.00  0.00     0.002 A 
HETATM   15  C   UNL     1      21.512  51.169  48.535  1.00  0.00     0.000 A 
HETATM   16  C   UNL     1      20.897  50.001  48.973  1.00  0.00     0.002 A 
HETATM   17  C   UNL     1      21.654  48.841  49.158  1.00  0.00     0.031 A 
ENDBRANCH   9  12
ENDBRANCH   1   5
BRANCH   2  18
HETATM   18  C   UNL     1      27.618  44.436  52.208  1.00  0.00     0.159 C 
BRANCH  18  19
HETATM   19  C   UNL     1      27.309  43.799  53.585  1.00  0.00     0.169 C 
BRANCH  19  20
HETATM   20  O   UNL     1      26.899  42.435  53.479  1.00  0.00    -0.389 OA
HETATM   21  H   UNL     1      26.963  42.026  54.367  1.00  0.00     0.210 HD
ENDBRANCH  19  20
BRANCH  19  22
HETATM   22  C   UNL     1      28.527  43.852  54.486  1.00  0.00    -0.025 A 
HETATM   23  C   UNL     1      28.778  44.986  55.274  1.00  0.00     0.053 A 
HETATM   24  C   UNL     1      29.910  45.037  56.087  1.00  0.00     0.138 A 
HETATM   25  F   UNL     1      30.117  46.141  56.824  1.00  0.00    -0.204 F 
HETATM   26  C   UNL     1      30.807  43.973  56.132  1.00  0.00     0.072 A 
HETATM   27 CL   UNL     1      32.204  44.040  57.136  1.00  0.00    -0.081 Cl
HETATM   28  C   UNL     1      30.575  42.843  55.352  1.00  0.00     0.028 A 
HETATM   29  C   UNL     1      29.444  42.786  54.532  1.00  0.00     0.012 A 
ENDBRANCH  19  22
ENDBRANCH  18  19
ENDBRANCH   2  18
TORSDOF 6
ENDMDL
MODEL 9
REMARK VINA RESULT:      -8.9      3.946      9.282
REMARK  6 active torsions:
REMARK  status: ('A' for Active; 'I' for Inactive)
REMARK    1  A    between atoms: N_4  and  C_5 
REMARK    2  A    between atoms: C_13  and  C_14 
REMARK       I    between atoms: C_14  and  N_15 
REMARK    3  A    between atoms: N_15  and  C_16 
REMARK    4  A    between atoms: C_16  and  C_17 
REMARK    5  A    between atoms: C_17  and  O_18 
REMARK    6  A    between atoms: C_17  and  C_19 
ROOT
HETATM    1  C   UNL     1      25.024  44.861  51.418  1.00  0.00     0.257 C 
HETATM    2  N   UNL     1      25.322  45.773  50.434  1.00  0.00    -0.354 N 
HETATM    3  O   UNL     1      23.869  44.473  51.581  1.00  0.00    -0.267 OA
HETATM    4  H   UNL     1      26.281  46.083  50.327  1.00  0.00     0.162 HD
ENDROOT
BRANCH   1   5
HETATM    5  C   UNL     1      26.124  44.369  52.229  1.00  0.00     0.098 C 
HETATM    6  C   UNL     1      26.777  43.116  52.078  1.00  0.00     0.070 C 
HETATM    7  C   UNL     1      26.491  42.045  51.085  1.00  0.00     0.073 C 
HETATM    8  N   UNL     1      27.726  42.922  52.997  1.00  0.00    -0.170 NA
HETATM    9  N   UNL     1      27.798  44.087  53.700  1.00  0.00    -0.221 N 
HETATM   10  C   UNL     1      26.767  44.933  53.314  1.00  0.00     0.145 C 
HETATM   11 CL   UNL     1      26.360  46.350  54.184  1.00  0.00    -0.061 Cl
BRANCH   9  12
HETATM   12  C   UNL     1      28.867  44.241  54.640  1.00  0.00     0.060 A 
HETATM   13  C   UNL     1      29.072  45.416  55.373  1.00  0.00     0.031 A 
HETATM   14  C   UNL     1      30.147  45.514  56.264  1.00  0.00     0.002 A 
HETATM   15  C   UNL     1      31.033  44.451  56.424  1.00  0.00     0.000 A 
HETATM   16  C   UNL     1      30.854  43.287  55.684  1.00  0.00     0.002 A 
HETATM   17  C   UNL     1      29.784  43.184  54.792  1.00  0.00     0.031 A 
ENDBRANCH   9  12
ENDBRANCH   1   5
BRANCH   2  18
HETATM   18  C   UNL     1      24.289  46.402  49.618  1.00  0.00     0.159 C 
BRANCH  18  19
HETATM   19  C   UNL     1      24.087  47.905  49.925  1.00  0.00     0.169 C 
BRANCH  19  20
HETATM   20  O   UNL     1      25.249  48.685  49.639  1.00  0.00    -0.389 OA
HETATM   21  H   UNL     1      25.138  49.566  50.054  1.00  0.00     0.210 HD
ENDBRANCH  19  20
BRANCH  19  22
HETATM   22  C   UNL     1      22.937  48.469  49.113  1.00  0.00    -0.025 A 
HETATM   23  C   UNL     1      22.641  49.840  49.160  1.00  0.00     0.053 A 
HETATM   24  C   UNL     1      21.570  50.351  48.427  1.00  0.00     0.138 A 
HETATM   25  F   UNL     1      21.316  51.668  48.500  1.00  0.00    -0.204 F 
HETATM   26  C   UNL     1      20.779  49.517  47.641  1.00  0.00     0.072 A 
HETATM   27 CL   UNL     1      19.457  50.150  46.738  1.00  0.00    -0.081 Cl
HETATM   28  C   UNL     1      21.056  48.154  47.588  1.00  0.00     0.028 A 
HETATM   29  C   UNL     1      22.126  47.634  48.323  1.00  0.00     0.012 A 
ENDBRANCH  19  22
ENDBRANCH  18  19
ENDBRANCH   2  18
TORSDOF 6
ENDMDL
MODEL 10
REMARK VINA RESULT:      -8.8      3.269      4.598
REMARK  6 active torsions:
REMARK  status: ('A' for Active; 'I' for Inactive)
REMARK    1  A    between atoms: N_4  and  C_5 
REMARK    2  A    between atoms: C_13  and  C_14 
REMARK       I    between atoms: C_14  and  N_15 
REMARK    3  A    between atoms: N_15  and  C_16 
REMARK    4  A    between atoms: C_16  and  C_17 
REMARK    5  A    between atoms: C_17  and  O_18 
REMARK    6  A    between atoms: C_17  and  C_19 
ROOT
HETATM    1  C   UNL     1      24.375  47.919  49.773  1.00  0.00     0.257 C 
HETATM    2  N   UNL     1      24.266  47.137  50.898  1.00  0.00    -0.354 N 
HETATM    3  O   UNL     1      25.480  48.230  49.333  1.00  0.00    -0.267 OA
HETATM    4  H   UNL     1      23.344  46.903  51.246  1.00  0.00     0.162 HD
ENDROOT
BRANCH   1   5
HETATM    5  C   UNL     1      23.142  48.335  49.127  1.00  0.00     0.098 C 
HETATM    6  C   UNL     1      22.189  47.477  48.517  1.00  0.00     0.070 C 
HETATM    7  C   UNL     1      22.232  45.994  48.397  1.00  0.00     0.073 C 
HETATM    8  N   UNL     1      21.176  48.150  47.967  1.00  0.00    -0.170 NA
HETATM    9  N   UNL     1      21.379  49.455  48.302  1.00  0.00    -0.221 N 
HETATM   10  C   UNL     1      22.616  49.595  48.916  1.00  0.00     0.145 C 
HETATM   11 CL   UNL     1      23.339  51.121  49.201  1.00  0.00    -0.061 Cl
BRANCH   9  12
HETATM   12  C   UNL     1      20.341  50.395  48.005  1.00  0.00     0.060 A 
HETATM   13  C   UNL     1      20.098  51.531  48.786  1.00  0.00     0.031 A 
HETATM   14  C   UNL     1      19.055  52.406  48.457  1.00  0.00     0.002 A 
HETATM   15  C   UNL     1      18.239  52.151  47.358  1.00  0.00     0.000 A 
HETATM   16  C   UNL     1      18.455  51.013  46.587  1.00  0.00     0.002 A 
HETATM   17  C   UNL     1      19.493  50.136  46.912  1.00  0.00     0.031 A 
ENDBRANCH   9  12
ENDBRANCH   1   5
BRANCH   2  18
HETATM   18  C   UNL     1      25.431  46.734  51.680  1.00  0.00     0.159 C 
BRANCH  18  19
HETATM   19  C   UNL     1      26.003  45.355  51.273  1.00  0.00     0.169 C 
BRANCH  19  20
HETATM   20  O   UNL     1      26.601  45.369  49.976  1.00  0.00    -0.389 OA
HETATM   21  H   UNL     1      25.888  45.468  49.311  1.00  0.00     0.210 HD
ENDBRANCH  19  20
BRANCH  19  22
HETATM   22  C   UNL     1      27.054  44.895  52.265  1.00  0.00    -0.025 A 
HETATM   23  C   UNL     1      28.044  43.980  51.877  1.00  0.00     0.053 A 
HETATM   24  C   UNL     1      28.996  43.545  52.798  1.00  0.00     0.138 A 
HETATM   25  F   UNL     1      29.926  42.666  52.389  1.00  0.00    -0.204 F 
HETATM   26  C   UNL     1      28.983  44.005  54.112  1.00  0.00     0.072 A 
HETATM   27 CL   UNL     1      30.160  43.467  55.247  1.00  0.00    -0.081 Cl
HETATM   28  C   UNL     1      28.004  44.910  54.515  1.00  0.00     0.028 A 
HETATM   29  C   UNL     1      27.043  45.348  53.597  1.00  0.00     0.012 A 
ENDBRANCH  19  22
ENDBRANCH  18  19
ENDBRANCH   2  18
TORSDOF 6
ENDMDL
