MODEL 1
REMARK VINA RESULT:      -9.2      0.000      0.000
REMARK  4 active torsions:
REMARK  status: ('A' for Active; 'I' for Inactive)
REMARK    1  A    between atoms: C_2  and  C_3 
REMARK    2  A    between atoms: C_7  and  N_8 
REMARK       I    between atoms: N_8  and  C_9 
REMARK    3  A    between atoms: C_9  and  C_10 
REMARK    4  A    between atoms: C_12  and  C_13 
ROOT
HETATM    1  C   UNL     1      26.668  45.594  52.952  1.00  0.00     0.149 A 
HETATM    2  N   UNL     1      27.638  45.828  53.917  1.00  0.00    -0.223 NA
HETATM    3  C   UNL     1      28.191  44.659  54.193  1.00  0.00     0.139 A 
HETATM    4  N   UNL     1      27.591  43.676  53.439  1.00  0.00    -0.342 N 
HETATM    5  H   UNL     1      27.821  42.694  53.466  1.00  0.00     0.167 HD
HETATM    6  C   UNL     1      26.628  44.247  52.646  1.00  0.00     0.041 A 
HETATM    7  C   UNL     1      25.794  43.472  51.700  1.00  0.00     0.071 C 
ENDROOT
BRANCH   1   8
HETATM    8  C   UNL     1      25.847  46.667  52.385  1.00  0.00     0.278 C 
HETATM    9  N   UNL     1      25.859  46.648  51.003  1.00  0.00    -0.306 N 
HETATM   10  H   UNL     1      26.419  45.922  50.562  1.00  0.00     0.170 HD
HETATM   11  O   UNL     1      25.224  47.477  53.070  1.00  0.00    -0.265 OA
BRANCH   9  12
HETATM   12  C   UNL     1      25.143  47.540  50.236  1.00  0.00     0.126 A 
HETATM   13  N   UNL     1      23.776  47.603  50.198  1.00  0.00    -0.262 N 
HETATM   14  N   UNL     1      23.302  48.544  49.362  1.00  0.00    -0.178 NA
HETATM   15  H   UNL     1      23.124  47.021  50.719  1.00  0.00     0.191 HD
HETATM   16  C   UNL     1      24.407  49.107  48.856  1.00  0.00     0.058 A 
HETATM   17  C   UNL     1      25.585  48.514  49.375  1.00  0.00     0.079 A 
BRANCH  16  18
HETATM   18  C   UNL     1      24.303  50.215  47.863  1.00  0.00     0.056 C 
HETATM   19  C   UNL     1      22.999  50.988  47.989  1.00  0.00     0.011 C 
ENDBRANCH  16  18
ENDBRANCH   9  12
ENDBRANCH   1   8
BRANCH   3  20
HETATM   20  C   UNL     1      29.276  44.431  55.156  1.00  0.00     0.012 A 
HETATM   21  C   UNL     1      29.485  45.368  56.182  1.00  0.00     0.039 A 
HETATM   22  C   UNL     1      30.507  45.189  57.113  1.00  0.00     0.035 A 
HETATM   23 CL   UNL     1      30.741  46.351  58.360  1.00  0.00    -0.084 Cl
HETATM   24  C   UNL     1      31.340  44.077  57.042  1.00  0.00     0.024 A 
HETATM   25  C   UNL     1      31.149  43.138  56.030  1.00  0.00     0.003 A 
HETATM   26  C   UNL     1      30.124  43.314  55.093  1.00  0.00     0.015 A 
ENDBRANCH   3  20
TORSDOF 4
ENDMDL
MODEL 2
REMARK VINA RESULT:      -9.0      1.008      1.026
REMARK  4 active torsions:
REMARK  status: ('A' for Active; 'I' for Inactive)
REMARK    1  A    between atoms: C_2  and  C_3 
REMARK    2  A    between atoms: C_7  and  N_8 
REMARK       I    between atoms: N_8  and  C_9 
REMARK    3  A    between atoms: C_9  and  C_10 
REMARK    4  A    between atoms: C_12  and  C_13 
ROOT
HETATM    1  C   UNL     1      26.817  44.769  52.076  1.00  0.00     0.149 A 
HETATM    2  N   UNL     1      27.424  45.093  53.282  1.00  0.00    -0.223 NA
HETATM    3  C   UNL     1      28.390  44.211  53.472  1.00  0.00     0.139 A 
HETATM    4  N   UNL     1      28.411  43.318  52.425  1.00  0.00    -0.342 N 
HETATM    5  H   UNL     1      29.047  42.539  52.331  1.00  0.00     0.167 HD
HETATM    6  C   UNL     1      27.427  43.656  51.531  1.00  0.00     0.041 A 
HETATM    7  C   UNL     1      27.177  42.904  50.279  1.00  0.00     0.071 C 
ENDROOT
BRANCH   1   8
HETATM    8  C   UNL     1      25.701  45.542  51.524  1.00  0.00     0.278 C 
HETATM    9  N   UNL     1      26.142  46.625  50.787  1.00  0.00    -0.306 N 
HETATM   10  H   UNL     1      27.148  46.754  50.723  1.00  0.00     0.170 HD
HETATM   11  O   UNL     1      24.520  45.246  51.701  1.00  0.00    -0.265 OA
BRANCH   9  12
HETATM   12  C   UNL     1      25.285  47.489  50.144  1.00  0.00     0.126 A 
HETATM   13  N   UNL     1      23.922  47.465  50.272  1.00  0.00    -0.262 N 
HETATM   14  N   UNL     1      23.293  48.397  49.532  1.00  0.00    -0.178 NA
HETATM   15  H   UNL     1      23.375  46.828  50.846  1.00  0.00     0.191 HD
HETATM   16  C   UNL     1      24.292  49.044  48.918  1.00  0.00     0.058 A 
HETATM   17  C   UNL     1      25.559  48.514  49.271  1.00  0.00     0.079 A 
BRANCH  16  18
HETATM   18  C   UNL     1      24.001  50.170  47.984  1.00  0.00     0.056 C 
HETATM   19  C   UNL     1      22.980  51.145  48.550  1.00  0.00     0.011 C 
ENDBRANCH  16  18
ENDBRANCH   9  12
ENDBRANCH   1   8
BRANCH   3  20
HETATM   20  C   UNL     1      29.304  44.176  54.621  1.00  0.00     0.012 A 
HETATM   21  C   UNL     1      29.159  45.135  55.637  1.00  0.00     0.039 A 
HETATM   22  C   UNL     1      30.010  45.137  56.742  1.00  0.00     0.035 A 
HETATM   23 CL   UNL     1      29.810  46.323  57.972  1.00  0.00    -0.084 Cl
HETATM   24  C   UNL     1      31.020  44.187  56.857  1.00  0.00     0.024 A 
HETATM   25  C   UNL     1      31.180  43.229  55.858  1.00  0.00     0.003 A 
HETATM   26  C   UNL     1      30.328  43.224  54.747  1.00  0.00     0.015 A 
ENDBRANCH   3  20
TORSDOF 4
ENDMDL
MODEL 3
REMARK VINA RESULT:      -8.7      3.388      8.877
REMARK  4 active torsions:
REMARK  status: ('A' for Active; 'I' for Inactive)
REMARK    1  A    between atoms: C_2  and  C_3 
REMARK    2  A    between atoms: C_7  and  N_8 
REMARK       I    between atoms: N_8  and  C_9 
REMARK    3  A    between atoms: C_9  and  C_10 
REMARK    4  A    between atoms: C_12  and  C_13 
ROOT
HETATM    1  C   UNL     1      25.277  46.123  51.977  1.00  0.00     0.149 A 
HETATM    2  N   UNL     1      25.123  47.381  51.411  1.00  0.00    -0.223 NA
HETATM    3  C   UNL     1      24.362  47.227  50.341  1.00  0.00     0.139 A 
HETATM    4  N   UNL     1      24.034  45.898  50.196  1.00  0.00    -0.342 N 
HETATM    5  H   UNL     1      23.469  45.511  49.455  1.00  0.00     0.167 HD
HETATM    6  C   UNL     1      24.599  45.185  51.223  1.00  0.00     0.041 A 
HETATM    7  C   UNL     1      24.438  43.721  51.376  1.00  0.00     0.071 C 
ENDROOT
BRANCH   1   8
HETATM    8  C   UNL     1      26.055  45.899  53.199  1.00  0.00     0.278 C 
HETATM    9  N   UNL     1      27.246  45.247  52.938  1.00  0.00    -0.306 N 
HETATM   10  H   UNL     1      27.429  45.005  51.967  1.00  0.00     0.170 HD
HETATM   11  O   UNL     1      25.682  46.260  54.314  1.00  0.00    -0.265 OA
BRANCH   9  12
HETATM   12  C   UNL     1      28.165  44.947  53.918  1.00  0.00     0.126 A 
HETATM   13  N   UNL     1      28.401  45.725  55.020  1.00  0.00    -0.262 N 
HETATM   14  N   UNL     1      29.357  45.236  55.831  1.00  0.00    -0.178 NA
HETATM   15  H   UNL     1      27.940  46.600  55.259  1.00  0.00     0.191 HD
HETATM   16  C   UNL     1      29.737  44.102  55.228  1.00  0.00     0.058 A 
HETATM   17  C   UNL     1      29.018  43.876  54.028  1.00  0.00     0.079 A 
BRANCH  16  18
HETATM   18  C   UNL     1      30.807  43.252  55.826  1.00  0.00     0.056 C 
HETATM   19  C   UNL     1      31.355  43.832  57.120  1.00  0.00     0.011 C 
ENDBRANCH  16  18
ENDBRANCH   9  12
ENDBRANCH   1   8
BRANCH   3  20
HETATM   20  C   UNL     1      23.930  48.300  49.436  1.00  0.00     0.012 A 
HETATM   21  C   UNL     1      22.570  48.403  49.101  1.00  0.00     0.039 A 
HETATM   22  C   UNL     1      22.122  49.405  48.242  1.00  0.00     0.035 A 
HETATM   23 CL   UNL     1      20.450  49.510  47.848  1.00  0.00    -0.084 Cl
HETATM   24  C   UNL     1      23.016  50.323  47.699  1.00  0.00     0.024 A 
HETATM   25  C   UNL     1      24.370  50.235  48.018  1.00  0.00     0.003 A 
HETATM   26  C   UNL     1      24.824  49.230  48.881  1.00  0.00     0.015 A 
ENDBRANCH   3  20
TORSDOF 4
ENDMDL
MODEL 4
REMARK VINA RESULT:      -8.5      4.433      7.133
REMARK  4 active torsions:
REMARK  status: ('A' for Active; 'I' for Inactive)
REMARK    1  A    between atoms: C_2  and  C_3 
REMARK    2  A    between atoms: C_7  and  N_8 
REMARK       I    between atoms: N_8  and  C_9 
REMARK    3  A    between atoms: C_9  and  C_10 
REMARK    4  A    between atoms: C_12  and  C_13 
ROOT
HETATM    1  C   UNL     1      27.613  42.520  51.986  1.00  0.00     0.149 A 
HETATM    2  N   UNL     1      28.413  42.573  53.119  1.00  0.00    -0.223 NA
HETATM    3  C   UNL     1      28.395  43.826  53.541  1.00  0.00     0.139 A 
HETATM    4  N   UNL     1      27.614  44.583  52.698  1.00  0.00    -0.342 N 
HETATM    5  H   UNL     1      27.442  45.574  52.790  1.00  0.00     0.167 HD
HETATM    6  C   UNL     1      27.107  43.776  51.712  1.00  0.00     0.041 A 
HETATM    7  C   UNL     1      26.215  44.270  50.639  1.00  0.00     0.071 C 
ENDROOT
BRANCH   1   8
HETATM    8  C   UNL     1      27.381  41.277  51.244  1.00  0.00     0.278 C 
HETATM    9  N   UNL     1      28.513  40.865  50.566  1.00  0.00    -0.306 N 
HETATM   10  H   UNL     1      29.337  41.453  50.656  1.00  0.00     0.170 HD
HETATM   11  O   UNL     1      26.303  40.683  51.240  1.00  0.00    -0.265 OA
BRANCH   9  12
HETATM   12  C   UNL     1      28.556  39.710  49.818  1.00  0.00     0.126 A 
HETATM   13  N   UNL     1      28.388  38.451  50.329  1.00  0.00    -0.262 N 
HETATM   14  N   UNL     1      28.490  37.476  49.407  1.00  0.00    -0.178 NA
HETATM   15  H   UNL     1      28.209  38.206  51.300  1.00  0.00     0.191 HD
HETATM   16  C   UNL     1      28.722  38.138  48.266  1.00  0.00     0.058 A 
HETATM   17  C   UNL     1      28.770  39.540  48.472  1.00  0.00     0.079 A 
BRANCH  16  18
HETATM   18  C   UNL     1      28.904  37.396  46.986  1.00  0.00     0.056 C 
HETATM   19  C   UNL     1      27.677  36.580  46.607  1.00  0.00     0.011 C 
ENDBRANCH  16  18
ENDBRANCH   9  12
ENDBRANCH   1   8
BRANCH   3  20
HETATM   20  C   UNL     1      29.100  44.342  54.721  1.00  0.00     0.012 A 
HETATM   21  C   UNL     1      30.152  43.591  55.270  1.00  0.00     0.039 A 
HETATM   22  C   UNL     1      30.842  44.047  56.393  1.00  0.00     0.035 A 
HETATM   23 CL   UNL     1      32.128  43.107  57.045  1.00  0.00    -0.084 Cl
HETATM   24  C   UNL     1      30.499  45.256  56.991  1.00  0.00     0.024 A 
HETATM   25  C   UNL     1      29.456  46.013  56.461  1.00  0.00     0.003 A 
HETATM   26  C   UNL     1      28.761  45.559  55.334  1.00  0.00     0.015 A 
ENDBRANCH   3  20
TORSDOF 4
ENDMDL
MODEL 5
REMARK VINA RESULT:      -8.3      2.020      2.906
REMARK  4 active torsions:
REMARK  status: ('A' for Active; 'I' for Inactive)
REMARK    1  A    between atoms: C_2  and  C_3 
REMARK    2  A    between atoms: C_7  and  N_8 
REMARK       I    between atoms: N_8  and  C_9 
REMARK    3  A    between atoms: C_9  and  C_10 
REMARK    4  A    between atoms: C_12  and  C_13 
ROOT
HETATM    1  C   UNL     1      25.084  45.446  51.022  1.00  0.00     0.149 A 
HETATM    2  N   UNL     1      25.985  46.069  51.874  1.00  0.00    -0.223 NA
HETATM    3  C   UNL     1      26.436  45.139  52.699  1.00  0.00     0.139 A 
HETATM    4  N   UNL     1      25.836  43.936  52.407  1.00  0.00    -0.342 N 
HETATM    5  H   UNL     1      25.998  43.066  52.894  1.00  0.00     0.167 HD
HETATM    6  C   UNL     1      24.981  44.108  51.348  1.00  0.00     0.041 A 
HETATM    7  C   UNL     1      24.178  43.007  50.768  1.00  0.00     0.071 C 
ENDROOT
BRANCH   1   8
HETATM    8  C   UNL     1      24.386  46.166  49.953  1.00  0.00     0.278 C 
HETATM    9  N   UNL     1      24.342  47.527  50.193  1.00  0.00    -0.306 N 
HETATM   10  H   UNL     1      24.778  47.852  51.052  1.00  0.00     0.170 HD
HETATM   11  O   UNL     1      23.906  45.611  48.965  1.00  0.00    -0.265 OA
BRANCH   9  12
HETATM   12  C   UNL     1      23.763  48.421  49.321  1.00  0.00     0.126 A 
HETATM   13  N   UNL     1      24.445  49.112  48.356  1.00  0.00    -0.262 N 
HETATM   14  N   UNL     1      23.669  49.942  47.636  1.00  0.00    -0.178 NA
HETATM   15  H   UNL     1      25.441  49.056  48.155  1.00  0.00     0.191 HD
HETATM   16  C   UNL     1      22.447  49.767  48.155  1.00  0.00     0.058 A 
HETATM   17  C   UNL     1      22.454  48.822  49.212  1.00  0.00     0.079 A 
BRANCH  16  18
HETATM   18  C   UNL     1      21.283  50.531  47.620  1.00  0.00     0.056 C 
HETATM   19  C   UNL     1      20.610  51.384  48.684  1.00  0.00     0.011 C 
ENDBRANCH  16  18
ENDBRANCH   9  12
ENDBRANCH   1   8
BRANCH   3  20
HETATM   20  C   UNL     1      27.421  45.347  53.768  1.00  0.00     0.012 A 
HETATM   21  C   UNL     1      28.377  44.349  54.017  1.00  0.00     0.039 A 
HETATM   22  C   UNL     1      29.326  44.508  55.027  1.00  0.00     0.035 A 
HETATM   23 CL   UNL     1      30.487  43.270  55.311  1.00  0.00    -0.084 Cl
HETATM   24  C   UNL     1      29.342  45.660  55.807  1.00  0.00     0.024 A 
HETATM   25  C   UNL     1      28.399  46.660  55.575  1.00  0.00     0.003 A 
HETATM   26  C   UNL     1      27.445  46.505  54.563  1.00  0.00     0.015 A 
ENDBRANCH   3  20
TORSDOF 4
ENDMDL
MODEL 6
REMARK VINA RESULT:      -8.3      3.782      9.328
REMARK  4 active torsions:
REMARK  status: ('A' for Active; 'I' for Inactive)
REMARK    1  A    between atoms: C_2  and  C_3 
REMARK    2  A    between atoms: C_7  and  N_8 
REMARK       I    between atoms: N_8  and  C_9 
REMARK    3  A    between atoms: C_9  and  C_10 
REMARK    4  A    between atoms: C_12  and  C_13 
ROOT
HETATM    1  C   UNL     1      25.728  47.730  49.539  1.00  0.00     0.149 A 
HETATM    2  N   UNL     1      24.341  47.794  49.525  1.00  0.00    -0.223 NA
HETATM    3  C   UNL     1      24.020  48.999  49.086  1.00  0.00     0.139 A 
HETATM    4  N   UNL     1      25.166  49.717  48.830  1.00  0.00    -0.342 N 
HETATM    5  H   UNL     1      25.200  50.668  48.494  1.00  0.00     0.167 HD
HETATM    6  C   UNL     1      26.256  48.931  49.106  1.00  0.00     0.041 A 
HETATM    7  C   UNL     1      27.652  49.392  48.931  1.00  0.00     0.071 C 
ENDROOT
BRANCH   1   8
HETATM    8  C   UNL     1      26.456  46.529  49.959  1.00  0.00     0.278 C 
HETATM    9  N   UNL     1      26.072  46.109  51.219  1.00  0.00    -0.306 N 
HETATM   10  H   UNL     1      25.361  46.666  51.687  1.00  0.00     0.170 HD
HETATM   11  O   UNL     1      27.300  45.970  49.260  1.00  0.00    -0.265 OA
BRANCH   9  12
HETATM   12  C   UNL     1      26.591  44.987  51.824  1.00  0.00     0.126 A 
HETATM   13  N   UNL     1      26.538  43.727  51.291  1.00  0.00    -0.262 N 
HETATM   14  N   UNL     1      27.098  42.786  52.074  1.00  0.00    -0.178 NA
HETATM   15  H   UNL     1      26.124  43.458  50.402  1.00  0.00     0.191 HD
HETATM   16  C   UNL     1      27.532  43.474  53.138  1.00  0.00     0.058 A 
HETATM   17  C   UNL     1      27.240  44.857  53.027  1.00  0.00     0.079 A 
BRANCH  16  18
HETATM   18  C   UNL     1      28.221  42.772  54.260  1.00  0.00     0.056 C 
HETATM   19  C   UNL     1      29.735  42.884  54.173  1.00  0.00     0.011 C 
ENDBRANCH  16  18
ENDBRANCH   9  12
ENDBRANCH   1   8
BRANCH   3  20
HETATM   20  C   UNL     1      22.654  49.506  48.900  1.00  0.00     0.012 A 
HETATM   21  C   UNL     1      21.573  48.618  49.027  1.00  0.00     0.039 A 
HETATM   22  C   UNL     1      20.263  49.062  48.854  1.00  0.00     0.035 A 
HETATM   23 CL   UNL     1      18.957  47.953  49.016  1.00  0.00    -0.084 Cl
HETATM   24  C   UNL     1      20.002  50.395  48.551  1.00  0.00     0.024 A 
HETATM   25  C   UNL     1      21.062  51.290  48.419  1.00  0.00     0.003 A 
HETATM   26  C   UNL     1      22.380  50.848  48.592  1.00  0.00     0.015 A 
ENDBRANCH   3  20
TORSDOF 4
ENDMDL
MODEL 7
REMARK VINA RESULT:      -8.2      3.236      3.803
REMARK  4 active torsions:
REMARK  status: ('A' for Active; 'I' for Inactive)
REMARK    1  A    between atoms: C_2  and  C_3 
REMARK    2  A    between atoms: C_7  and  N_8 
REMARK       I    between atoms: N_8  and  C_9 
REMARK    3  A    between atoms: C_9  and  C_10 
REMARK    4  A    between atoms: C_12  and  C_13 
ROOT
HETATM    1  C   UNL     1      27.469  42.976  51.563  1.00  0.00     0.149 A 
HETATM    2  N   UNL     1      27.742  43.926  52.537  1.00  0.00    -0.223 NA
HETATM    3  C   UNL     1      28.665  43.407  53.328  1.00  0.00     0.139 A 
HETATM    4  N   UNL     1      28.982  42.140  52.896  1.00  0.00    -0.342 N 
HETATM    5  H   UNL     1      29.653  41.522  53.330  1.00  0.00     0.167 HD
HETATM    6  C   UNL     1      28.241  41.850  51.779  1.00  0.00     0.041 A 
HETATM    7  C   UNL     1      28.342  40.566  51.049  1.00  0.00     0.071 C 
ENDROOT
BRANCH   1   8
HETATM    8  C   UNL     1      26.496  43.205  50.491  1.00  0.00     0.278 C 
HETATM    9  N   UNL     1      25.197  43.176  50.962  1.00  0.00    -0.306 N 
HETATM   10  H   UNL     1      25.076  43.001  51.956  1.00  0.00     0.170 HD
HETATM   11  O   UNL     1      26.814  43.402  49.319  1.00  0.00    -0.265 OA
BRANCH   9  12
HETATM   12  C   UNL     1      24.104  43.392  50.153  1.00  0.00     0.126 A 
HETATM   13  N   UNL     1      23.414  42.402  49.506  1.00  0.00    -0.262 N 
HETATM   14  N   UNL     1      22.392  42.857  48.758  1.00  0.00    -0.178 NA
HETATM   15  H   UNL     1      23.606  41.404  49.537  1.00  0.00     0.191 HD
HETATM   16  C   UNL     1      22.426  44.183  48.943  1.00  0.00     0.058 A 
HETATM   17  C   UNL     1      23.479  44.566  49.811  1.00  0.00     0.079 A 
BRANCH  16  18
HETATM   18  C   UNL     1      21.435  45.066  48.263  1.00  0.00     0.056 C 
HETATM   19  C   UNL     1      21.911  46.507  48.166  1.00  0.00     0.011 C 
ENDBRANCH  16  18
ENDBRANCH   9  12
ENDBRANCH   1   8
BRANCH   3  20
HETATM   20  C   UNL     1      29.263  44.069  54.495  1.00  0.00     0.012 A 
HETATM   21  C   UNL     1      30.297  43.420  55.191  1.00  0.00     0.039 A 
HETATM   22  C   UNL     1      30.888  44.014  56.305  1.00  0.00     0.035 A 
HETATM   23 CL   UNL     1      32.152  43.198  57.139  1.00  0.00    -0.084 Cl
HETATM   24  C   UNL     1      30.462  45.262  56.749  1.00  0.00     0.024 A 
HETATM   25  C   UNL     1      29.437  45.920  56.073  1.00  0.00     0.003 A 
HETATM   26  C   UNL     1      28.841  45.327  54.953  1.00  0.00     0.015 A 
ENDBRANCH   3  20
TORSDOF 4
ENDMDL
MODEL 8
REMARK VINA RESULT:      -8.1      5.664     10.491
REMARK  4 active torsions:
REMARK  status: ('A' for Active; 'I' for Inactive)
REMARK    1  A    between atoms: C_2  and  C_3 
REMARK    2  A    between atoms: C_7  and  N_8 
REMARK       I    between atoms: N_8  and  C_9 
REMARK    3  A    between atoms: C_9  and  C_10 
REMARK    4  A    between atoms: C_12  and  C_13 
ROOT
HETATM    1  C   UNL     1      23.594  48.800  49.120  1.00  0.00     0.149 A 
HETATM    2  N   UNL     1      22.231  49.060  49.120  1.00  0.00    -0.223 NA
HETATM    3  C   UNL     1      22.042  50.108  48.337  1.00  0.00     0.139 A 
HETATM    4  N   UNL     1      23.254  50.538  47.844  1.00  0.00    -0.342 N 
HETATM    5  H   UNL     1      23.390  51.326  47.228  1.00  0.00     0.167 HD
HETATM    6  C   UNL     1      24.246  49.721  48.324  1.00  0.00     0.041 A 
HETATM    7  C   UNL     1      25.676  49.897  47.982  1.00  0.00     0.071 C 
ENDROOT
BRANCH   1   8
HETATM    8  C   UNL     1      24.183  47.690  49.875  1.00  0.00     0.278 C 
HETATM    9  N   UNL     1      23.651  46.471  49.495  1.00  0.00    -0.306 N 
HETATM   10  H   UNL     1      22.939  46.491  48.769  1.00  0.00     0.170 HD
HETATM   11  O   UNL     1      25.049  47.841  50.736  1.00  0.00    -0.265 OA
BRANCH   9  12
HETATM   12  C   UNL     1      24.062  45.275  50.039  1.00  0.00     0.126 A 
HETATM   13  N   UNL     1      23.962  44.955  51.366  1.00  0.00    -0.262 N 
HETATM   14  N   UNL     1      24.445  43.734  51.664  1.00  0.00    -0.178 NA
HETATM   15  H   UNL     1      23.580  45.537  52.107  1.00  0.00     0.191 HD
HETATM   16  C   UNL     1      24.858  43.257  50.483  1.00  0.00     0.058 A 
HETATM   17  C   UNL     1      24.637  44.184  49.434  1.00  0.00     0.079 A 
BRANCH  16  18
HETATM   18  C   UNL     1      25.474  41.902  50.391  1.00  0.00     0.056 C 
HETATM   19  C   UNL     1      26.894  41.870  50.937  1.00  0.00     0.011 C 
ENDBRANCH  16  18
ENDBRANCH   9  12
ENDBRANCH   1   8
BRANCH   3  20
HETATM   20  C   UNL     1      20.747  50.731  48.035  1.00  0.00     0.012 A 
HETATM   21  C   UNL     1      19.976  50.221  46.977  1.00  0.00     0.039 A 
HETATM   22  C   UNL     1      18.743  50.788  46.657  1.00  0.00     0.035 A 
HETATM   23 CL   UNL     1      17.818  50.144  45.357  1.00  0.00    -0.084 Cl
HETATM   24  C   UNL     1      18.253  51.870  47.382  1.00  0.00     0.024 A 
HETATM   25  C   UNL     1      19.005  52.390  48.433  1.00  0.00     0.003 A 
HETATM   26  C   UNL     1      20.244  51.824  48.758  1.00  0.00     0.015 A 
ENDBRANCH   3  20
TORSDOF 4
ENDMDL
MODEL 9
REMARK VINA RESULT:      -7.6      3.683      4.056
REMARK  4 active torsions:
REMARK  status: ('A' for Active; 'I' for Inactive)
REMARK    1  A    between atoms: C_2  and  C_3 
REMARK    2  A    between atoms: C_7  and  N_8 
REMARK       I    between atoms: N_8  and  C_9 
REMARK    3  A    between atoms: C_9  and  C_10 
REMARK    4  A    between atoms: C_12  and  C_13 
ROOT
HETATM    1  C   UNL     1      27.259  42.048  51.426  1.00  0.00     0.149 A 
HETATM    2  N   UNL     1      27.474  42.994  52.419  1.00  0.00    -0.223 NA
HETATM    3  C   UNL     1      28.617  42.680  53.004  1.00  0.00     0.139 A 
HETATM    4  N   UNL     1      29.137  41.547  52.420  1.00  0.00    -0.342 N 
HETATM    5  H   UNL     1      29.998  41.093  52.686  1.00  0.00     0.167 HD
HETATM    6  C   UNL     1      28.296  41.135  51.418  1.00  0.00     0.041 A 
HETATM    7  C   UNL     1      28.560  39.946  50.577  1.00  0.00     0.071 C 
ENDROOT
BRANCH   1   8
HETATM    8  C   UNL     1      26.085  42.080  50.550  1.00  0.00     0.278 C 
HETATM    9  N   UNL     1      25.623  43.369  50.356  1.00  0.00    -0.306 N 
HETATM   10  H   UNL     1      26.131  44.111  50.831  1.00  0.00     0.170 HD
HETATM   11  O   UNL     1      25.585  41.072  50.051  1.00  0.00    -0.265 OA
BRANCH   9  12
HETATM   12  C   UNL     1      24.547  43.664  49.550  1.00  0.00     0.126 A 
HETATM   13  N   UNL     1      24.499  43.417  48.204  1.00  0.00    -0.262 N 
HETATM   14  N   UNL     1      23.348  43.808  47.625  1.00  0.00    -0.178 NA
HETATM   15  H   UNL     1      25.227  42.992  47.636  1.00  0.00     0.191 HD
HETATM   16  C   UNL     1      22.635  44.312  48.640  1.00  0.00     0.058 A 
HETATM   17  C   UNL     1      23.342  44.242  49.867  1.00  0.00     0.079 A 
BRANCH  16  18
HETATM   18  C   UNL     1      21.271  44.868  48.402  1.00  0.00     0.056 C 
HETATM   19  C   UNL     1      20.870  44.814  46.935  1.00  0.00     0.011 C 
ENDBRANCH  16  18
ENDBRANCH   9  12
ENDBRANCH   1   8
BRANCH   3  20
HETATM   20  C   UNL     1      29.244  43.416  54.109  1.00  0.00     0.012 A 
HETATM   21  C   UNL     1      28.624  44.581  54.592  1.00  0.00     0.039 A 
HETATM   22  C   UNL     1      29.191  45.309  55.637  1.00  0.00     0.035 A 
HETATM   23 CL   UNL     1      28.410  46.732  56.209  1.00  0.00    -0.084 Cl
HETATM   24  C   UNL     1      30.383  44.894  56.222  1.00  0.00     0.024 A 
HETATM   25  C   UNL     1      31.014  43.743  55.755  1.00  0.00     0.003 A 
HETATM   26  C   UNL     1      30.448  43.009  54.705  1.00  0.00     0.015 A 
ENDBRANCH   3  20
TORSDOF 4
ENDMDL
MODEL 10
REMARK VINA RESULT:      -7.6      4.998      7.630
REMARK  4 active torsions:
REMARK  status: ('A' for Active; 'I' for Inactive)
REMARK    1  A    between atoms: C_2  and  C_3 
REMARK    2  A    between atoms: C_7  and  N_8 
REMARK       I    between atoms: N_8  and  C_9 
REMARK    3  A    between atoms: C_9  and  C_10 
REMARK    4  A    between atoms: C_12  and  C_13 
ROOT
HETATM    1  C   UNL     1      27.490  41.934  50.995  1.00  0.00     0.149 A 
HETATM    2  N   UNL     1      28.553  42.171  51.855  1.00  0.00    -0.223 NA
HETATM    3  C   UNL     1      28.122  43.021  52.770  1.00  0.00     0.139 A 
HETATM    4  N   UNL     1      26.810  43.348  52.512  1.00  0.00    -0.342 N 
HETATM    5  H   UNL     1      26.246  43.985  53.056  1.00  0.00     0.167 HD
HETATM    6  C   UNL     1      26.391  42.668  51.397  1.00  0.00     0.041 A 
HETATM    7  C   UNL     1      25.022  42.783  50.844  1.00  0.00     0.071 C 
ENDROOT
BRANCH   1   8
HETATM    8  C   UNL     1      27.591  41.022  49.852  1.00  0.00     0.278 C 
HETATM    9  N   UNL     1      27.425  39.703  50.230  1.00  0.00    -0.306 N 
HETATM   10  H   UNL     1      27.263  39.530  51.219  1.00  0.00     0.170 HD
HETATM   11  O   UNL     1      27.795  41.402  48.699  1.00  0.00    -0.265 OA
BRANCH   9  12
HETATM   12  C   UNL     1      27.449  38.659  49.332  1.00  0.00     0.126 A 
HETATM   13  N   UNL     1      28.346  38.545  48.304  1.00  0.00    -0.262 N 
HETATM   14  N   UNL     1      28.162  37.447  47.548  1.00  0.00    -0.178 NA
HETATM   15  H   UNL     1      29.094  39.194  48.073  1.00  0.00     0.191 HD
HETATM   16  C   UNL     1      27.119  36.835  48.122  1.00  0.00     0.058 A 
HETATM   17  C   UNL     1      26.638  37.555  49.245  1.00  0.00     0.079 A 
BRANCH  16  18
HETATM   18  C   UNL     1      26.593  35.556  47.562  1.00  0.00     0.056 C 
HETATM   19  C   UNL     1      27.259  35.179  46.248  1.00  0.00     0.011 C 
ENDBRANCH  16  18
ENDBRANCH   9  12
ENDBRANCH   1   8
BRANCH   3  20
HETATM   20  C   UNL     1      28.911  43.546  53.892  1.00  0.00     0.012 A 
HETATM   21  C   UNL     1      28.423  44.650  54.611  1.00  0.00     0.039 A 
HETATM   22  C   UNL     1      29.145  45.180  55.679  1.00  0.00     0.035 A 
HETATM   23 CL   UNL     1      28.525  46.533  56.543  1.00  0.00    -0.084 Cl
HETATM   24  C   UNL     1      30.364  44.624  56.053  1.00  0.00     0.024 A 
HETATM   25  C   UNL     1      30.865  43.529  55.350  1.00  0.00     0.003 A 
HETATM   26  C   UNL     1      30.143  42.994  54.277  1.00  0.00     0.015 A 
ENDBRANCH   3  20
TORSDOF 4
ENDMDL
