MODEL 1
REMARK VINA RESULT:      -9.6      0.000      0.000
REMARK  4 active torsions:
REMARK  status: ('A' for Active; 'I' for Inactive)
REMARK    1  A    between atoms: C_8  and  C_9 
REMARK    2  A    between atoms: C_9  and  C_10 
REMARK       I    between atoms: C_10  and  N_11 
REMARK    3  A    between atoms: N_11  and  C_12 
REMARK    4  A    between atoms: C_14  and  C_15 
ROOT
HETATM    1  C   UNL     1      25.937  46.693  52.346  1.00  0.00     0.226 C 
HETATM    2  N   UNL     1      26.288  46.712  51.004  1.00  0.00    -0.327 N 
HETATM    3  O   UNL     1      25.380  47.595  52.967  1.00  0.00    -0.273 OA
HETATM    4  H   UNL     1      26.695  45.860  50.636  1.00  0.00     0.169 HD
ENDROOT
BRANCH   2   5
HETATM    5  C   UNL     1      26.114  47.770  50.085  1.00  0.00     0.035 A 
HETATM    6  C   UNL     1      24.802  48.052  49.666  1.00  0.00     0.042 A 
HETATM    7  C   UNL     1      24.533  49.072  48.736  1.00  0.00    -0.021 A 
HETATM    8  C   UNL     1      25.606  49.819  48.238  1.00  0.00     0.012 A 
HETATM    9  C   UNL     1      26.912  49.550  48.651  1.00  0.00     0.003 A 
HETATM   10  C   UNL     1      27.163  48.528  49.567  1.00  0.00     0.029 A 
BRANCH   7  11
HETATM   11  C   UNL     1      23.178  49.348  48.275  1.00  0.00     0.010 A 
HETATM   12  C   UNL     1      22.564  50.566  47.888  1.00  0.00     0.152 A 
HETATM   13  N   UNL     1      21.289  50.416  47.522  1.00  0.00    -0.187 NA
HETATM   14  N   UNL     1      21.074  49.101  47.674  1.00  0.00    -0.289 N 
HETATM   15  H   UNL     1      20.153  48.737  47.454  1.00  0.00     0.188 HD
HETATM   16  C   UNL     1      22.170  48.419  48.121  1.00  0.00     0.123 A 
ENDBRANCH   7  11
ENDBRANCH   2   5
BRANCH   1  17
HETATM   17  C   UNL     1      26.355  45.409  53.049  1.00  0.00     0.144 C 
BRANCH  17  18
HETATM   18  C   UNL     1      27.369  45.653  54.120  1.00  0.00    -0.021 A 
HETATM   19  C   UNL     1      28.493  44.829  54.453  1.00  0.00    -0.001 A 
HETATM   20  C   UNL     1      29.002  43.609  53.960  1.00  0.00     0.014 A 
HETATM   21  C   UNL     1      29.179  45.460  55.493  1.00  0.00     0.042 A 
HETATM   22  C   UNL     1      30.167  43.069  54.519  1.00  0.00     0.001 A 
HETATM   23  C   UNL     1      30.827  43.725  55.556  1.00  0.00     0.002 A 
HETATM   24  C   UNL     1      30.344  44.934  56.064  1.00  0.00     0.030 A 
HETATM   25  N   UNL     1      28.500  46.619  55.784  1.00  0.00    -0.365 N 
HETATM   26  H   UNL     1      28.775  47.283  56.494  1.00  0.00     0.165 HD
HETATM   27  C   UNL     1      27.415  46.748  54.962  1.00  0.00     0.097 A 
ENDBRANCH  17  18
ENDBRANCH   1  17
TORSDOF 4
ENDMDL
MODEL 2
REMARK VINA RESULT:      -9.4      1.869      2.377
REMARK  4 active torsions:
REMARK  status: ('A' for Active; 'I' for Inactive)
REMARK    1  A    between atoms: C_8  and  C_9 
REMARK    2  A    between atoms: C_9  and  C_10 
REMARK       I    between atoms: C_10  and  N_11 
REMARK    3  A    between atoms: N_11  and  C_12 
REMARK    4  A    between atoms: C_14  and  C_15 
ROOT
HETATM    1  C   UNL     1      26.708  45.026  50.608  1.00  0.00     0.226 C 
HETATM    2  N   UNL     1      26.167  46.264  50.924  1.00  0.00    -0.327 N 
HETATM    3  O   UNL     1      27.301  44.733  49.573  1.00  0.00    -0.273 OA
HETATM    4  H   UNL     1      25.757  46.350  51.846  1.00  0.00     0.169 HD
ENDROOT
BRANCH   2   5
HETATM    5  C   UNL     1      26.151  47.426  50.121  1.00  0.00     0.035 A 
HETATM    6  C   UNL     1      24.895  47.963  49.790  1.00  0.00     0.042 A 
HETATM    7  C   UNL     1      24.777  49.104  48.977  1.00  0.00    -0.021 A 
HETATM    8  C   UNL     1      25.948  49.712  48.508  1.00  0.00     0.012 A 
HETATM    9  C   UNL     1      27.199  49.189  48.836  1.00  0.00     0.003 A 
HETATM   10  C   UNL     1      27.299  48.050  49.636  1.00  0.00     0.029 A 
BRANCH   7  11
HETATM   11  C   UNL     1      23.477  49.647  48.604  1.00  0.00     0.010 A 
HETATM   12  C   UNL     1      22.922  50.936  48.804  1.00  0.00     0.152 A 
HETATM   13  N   UNL     1      21.685  51.054  48.316  1.00  0.00    -0.187 NA
HETATM   14  N   UNL     1      21.435  49.841  47.801  1.00  0.00    -0.289 N 
HETATM   15  H   UNL     1      20.533  49.681  47.365  1.00  0.00     0.188 HD
HETATM   16  C   UNL     1      22.472  48.965  47.948  1.00  0.00     0.123 A 
ENDBRANCH   7  11
ENDBRANCH   2   5
BRANCH   1  17
HETATM   17  C   UNL     1      26.463  43.981  51.687  1.00  0.00     0.144 C 
BRANCH  17  18
HETATM   18  C   UNL     1      27.737  43.425  52.238  1.00  0.00    -0.021 A 
HETATM   19  C   UNL     1      28.454  43.881  53.393  1.00  0.00    -0.001 A 
HETATM   20  C   UNL     1      28.256  44.916  54.330  1.00  0.00     0.014 A 
HETATM   21  C   UNL     1      29.564  43.049  53.549  1.00  0.00     0.042 A 
HETATM   22  C   UNL     1      29.169  45.083  55.379  1.00  0.00     0.001 A 
HETATM   23  C   UNL     1      30.267  44.235  55.506  1.00  0.00     0.002 A 
HETATM   24  C   UNL     1      30.486  43.202  54.592  1.00  0.00     0.030 A 
HETATM   25  N   UNL     1      29.528  42.126  52.531  1.00  0.00    -0.365 N 
HETATM   26  H   UNL     1      30.209  41.391  52.398  1.00  0.00     0.165 HD
HETATM   27  C   UNL     1      28.432  42.338  51.742  1.00  0.00     0.097 A 
ENDBRANCH  17  18
ENDBRANCH   1  17
TORSDOF 4
ENDMDL
MODEL 3
REMARK VINA RESULT:      -9.3      1.731      2.807
REMARK  4 active torsions:
REMARK  status: ('A' for Active; 'I' for Inactive)
REMARK    1  A    between atoms: C_8  and  C_9 
REMARK    2  A    between atoms: C_9  and  C_10 
REMARK       I    between atoms: C_10  and  N_11 
REMARK    3  A    between atoms: N_11  and  C_12 
REMARK    4  A    between atoms: C_14  and  C_15 
ROOT
HETATM    1  C   UNL     1      26.268  46.110  53.928  1.00  0.00     0.226 C 
HETATM    2  N   UNL     1      26.436  46.479  52.601  1.00  0.00    -0.327 N 
HETATM    3  O   UNL     1      25.282  45.559  54.411  1.00  0.00    -0.273 OA
HETATM    4  H   UNL     1      27.336  46.877  52.359  1.00  0.00     0.169 HD
ENDROOT
BRANCH   2   5
HETATM    5  C   UNL     1      25.512  46.333  51.543  1.00  0.00     0.035 A 
HETATM    6  C   UNL     1      25.273  47.458  50.736  1.00  0.00     0.042 A 
HETATM    7  C   UNL     1      24.353  47.416  49.673  1.00  0.00    -0.021 A 
HETATM    8  C   UNL     1      23.680  46.215  49.423  1.00  0.00     0.012 A 
HETATM    9  C   UNL     1      23.913  45.091  50.216  1.00  0.00     0.003 A 
HETATM   10  C   UNL     1      24.822  45.152  51.273  1.00  0.00     0.029 A 
BRANCH   7  11
HETATM   11  C   UNL     1      24.079  48.589  48.852  1.00  0.00     0.010 A 
HETATM   12  C   UNL     1      24.939  49.623  48.402  1.00  0.00     0.152 A 
HETATM   13  N   UNL     1      24.312  50.538  47.660  1.00  0.00    -0.187 NA
HETATM   14  N   UNL     1      23.044  50.101  47.630  1.00  0.00    -0.289 N 
HETATM   15  H   UNL     1      22.360  50.645  47.115  1.00  0.00     0.188 HD
HETATM   16  C   UNL     1      22.853  48.942  48.327  1.00  0.00     0.123 A 
ENDBRANCH   7  11
ENDBRANCH   2   5
BRANCH   1  17
HETATM   17  C   UNL     1      27.449  46.500  54.805  1.00  0.00     0.144 C 
BRANCH  17  18
HETATM   18  C   UNL     1      28.479  45.419  54.883  1.00  0.00    -0.021 A 
HETATM   19  C   UNL     1      29.409  45.183  55.948  1.00  0.00    -0.001 A 
HETATM   20  C   UNL     1      29.681  45.818  57.178  1.00  0.00     0.014 A 
HETATM   21  C   UNL     1      30.153  44.052  55.608  1.00  0.00     0.042 A 
HETATM   22  C   UNL     1      30.679  45.304  58.016  1.00  0.00     0.001 A 
HETATM   23  C   UNL     1      31.403  44.174  57.646  1.00  0.00     0.002 A 
HETATM   24  C   UNL     1      31.155  43.526  56.433  1.00  0.00     0.030 A 
HETATM   25  N   UNL     1      29.698  43.618  54.386  1.00  0.00    -0.365 N 
HETATM   26  H   UNL     1      30.054  42.809  53.895  1.00  0.00     0.165 HD
HETATM   27  C   UNL     1      28.689  44.427  53.944  1.00  0.00     0.097 A 
ENDBRANCH  17  18
ENDBRANCH   1  17
TORSDOF 4
ENDMDL
MODEL 4
REMARK VINA RESULT:      -9.3      5.070      6.185
REMARK  4 active torsions:
REMARK  status: ('A' for Active; 'I' for Inactive)
REMARK    1  A    between atoms: C_8  and  C_9 
REMARK    2  A    between atoms: C_9  and  C_10 
REMARK       I    between atoms: C_10  and  N_11 
REMARK    3  A    between atoms: N_11  and  C_12 
REMARK    4  A    between atoms: C_14  and  C_15 
ROOT
HETATM    1  C   UNL     1      29.064  41.721  52.942  1.00  0.00     0.226 C 
HETATM    2  N   UNL     1      29.000  41.710  51.556  1.00  0.00    -0.327 N 
HETATM    3  O   UNL     1      28.281  41.171  53.712  1.00  0.00    -0.273 OA
HETATM    4  H   UNL     1      29.760  42.171  51.070  1.00  0.00     0.169 HD
ENDROOT
BRANCH   2   5
HETATM    5  C   UNL     1      28.015  41.104  50.745  1.00  0.00     0.035 A 
HETATM    6  C   UNL     1      26.800  41.791  50.585  1.00  0.00     0.042 A 
HETATM    7  C   UNL     1      25.752  41.256  49.815  1.00  0.00    -0.021 A 
HETATM    8  C   UNL     1      25.947  40.018  49.192  1.00  0.00     0.012 A 
HETATM    9  C   UNL     1      27.152  39.330  49.342  1.00  0.00     0.003 A 
HETATM   10  C   UNL     1      28.179  39.870  50.117  1.00  0.00     0.029 A 
BRANCH   7  11
HETATM   11  C   UNL     1      24.478  41.950  49.671  1.00  0.00     0.010 A 
HETATM   12  C   UNL     1      23.473  41.839  48.676  1.00  0.00     0.152 A 
HETATM   13  N   UNL     1      22.436  42.652  48.888  1.00  0.00    -0.187 NA
HETATM   14  N   UNL     1      22.768  43.293  50.019  1.00  0.00    -0.289 N 
HETATM   15  H   UNL     1      22.120  43.981  50.389  1.00  0.00     0.188 HD
HETATM   16  C   UNL     1      23.977  42.910  50.526  1.00  0.00     0.123 A 
ENDBRANCH   7  11
ENDBRANCH   2   5
BRANCH   1  17
HETATM   17  C   UNL     1      30.225  42.549  53.474  1.00  0.00     0.144 C 
BRANCH  17  18
HETATM   18  C   UNL     1      29.770  43.656  54.369  1.00  0.00    -0.021 A 
HETATM   19  C   UNL     1      30.286  43.993  55.663  1.00  0.00    -0.001 A 
HETATM   20  C   UNL     1      31.295  43.460  56.491  1.00  0.00     0.014 A 
HETATM   21  C   UNL     1      29.584  45.113  56.113  1.00  0.00     0.042 A 
HETATM   22  C   UNL     1      31.563  44.058  57.729  1.00  0.00     0.001 A 
HETATM   23  C   UNL     1      30.843  45.174  58.148  1.00  0.00     0.002 A 
HETATM   24  C   UNL     1      29.837  45.723  57.348  1.00  0.00     0.030 A 
HETATM   25  N   UNL     1      28.675  45.443  55.136  1.00  0.00    -0.365 N 
HETATM   26  H   UNL     1      28.032  46.221  55.189  1.00  0.00     0.165 HD
HETATM   27  C   UNL     1      28.782  44.580  54.082  1.00  0.00     0.097 A 
ENDBRANCH  17  18
ENDBRANCH   1  17
TORSDOF 4
ENDMDL
MODEL 5
REMARK VINA RESULT:      -9.1      2.782      3.958
REMARK  4 active torsions:
REMARK  status: ('A' for Active; 'I' for Inactive)
REMARK    1  A    between atoms: C_8  and  C_9 
REMARK    2  A    between atoms: C_9  and  C_10 
REMARK       I    between atoms: C_10  and  N_11 
REMARK    3  A    between atoms: N_11  and  C_12 
REMARK    4  A    between atoms: C_14  and  C_15 
ROOT
HETATM    1  C   UNL     1      28.195  42.920  52.642  1.00  0.00     0.226 C 
HETATM    2  N   UNL     1      28.066  43.570  51.424  1.00  0.00    -0.327 N 
HETATM    3  O   UNL     1      27.357  42.196  53.175  1.00  0.00    -0.273 OA
HETATM    4  H   UNL     1      28.876  44.087  51.105  1.00  0.00     0.169 HD
ENDROOT
BRANCH   2   5
HETATM    5  C   UNL     1      26.946  43.569  50.563  1.00  0.00     0.035 A 
HETATM    6  C   UNL     1      26.197  44.755  50.477  1.00  0.00     0.042 A 
HETATM    7  C   UNL     1      25.053  44.842  49.664  1.00  0.00    -0.021 A 
HETATM    8  C   UNL     1      24.676  43.718  48.921  1.00  0.00     0.012 A 
HETATM    9  C   UNL     1      25.416  42.537  48.996  1.00  0.00     0.003 A 
HETATM   10  C   UNL     1      26.543  42.463  49.815  1.00  0.00     0.029 A 
BRANCH   7  11
HETATM   11  C   UNL     1      24.254  46.060  49.596  1.00  0.00     0.010 A 
HETATM   12  C   UNL     1      23.094  46.362  48.839  1.00  0.00     0.152 A 
HETATM   13  N   UNL     1      22.643  47.601  49.046  1.00  0.00    -0.187 NA
HETATM   14  N   UNL     1      23.512  48.105  49.936  1.00  0.00    -0.289 N 
HETATM   15  H   UNL     1      23.375  49.059  50.253  1.00  0.00     0.188 HD
HETATM   16  C   UNL     1      24.492  47.225  50.296  1.00  0.00     0.123 A 
ENDBRANCH   7  11
ENDBRANCH   2   5
BRANCH   1  17
HETATM   17  C   UNL     1      29.517  43.219  53.335  1.00  0.00     0.144 C 
BRANCH  17  18
HETATM   18  C   UNL     1      29.360  44.190  54.461  1.00  0.00    -0.021 A 
HETATM   19  C   UNL     1      30.105  44.225  55.686  1.00  0.00    -0.001 A 
HETATM   20  C   UNL     1      31.138  43.437  56.234  1.00  0.00     0.014 A 
HETATM   21  C   UNL     1      29.643  45.317  56.423  1.00  0.00     0.042 A 
HETATM   22  C   UNL     1      31.667  43.765  57.488  1.00  0.00     0.001 A 
HETATM   23  C   UNL     1      31.184  44.862  58.197  1.00  0.00     0.002 A 
HETATM   24  C   UNL     1      30.161  45.659  57.678  1.00  0.00     0.030 A 
HETATM   25  N   UNL     1      28.658  45.922  55.680  1.00  0.00    -0.365 N 
HETATM   26  H   UNL     1      28.147  46.746  55.966  1.00  0.00     0.165 HD
HETATM   27  C   UNL     1      28.484  45.258  54.498  1.00  0.00     0.097 A 
ENDBRANCH  17  18
ENDBRANCH   1  17
TORSDOF 4
ENDMDL
MODEL 6
REMARK VINA RESULT:      -9.1      5.267      8.874
REMARK  4 active torsions:
REMARK  status: ('A' for Active; 'I' for Inactive)
REMARK    1  A    between atoms: C_8  and  C_9 
REMARK    2  A    between atoms: C_9  and  C_10 
REMARK       I    between atoms: C_10  and  N_11 
REMARK    3  A    between atoms: N_11  and  C_12 
REMARK    4  A    between atoms: C_14  and  C_15 
ROOT
HETATM    1  C   UNL     1      27.321  43.514  51.699  1.00  0.00     0.226 C 
HETATM    2  N   UNL     1      27.162  43.642  53.071  1.00  0.00    -0.327 N 
HETATM    3  O   UNL     1      27.887  44.310  50.953  1.00  0.00    -0.273 OA
HETATM    4  H   UNL     1      26.715  42.865  53.543  1.00  0.00     0.169 HD
ENDROOT
BRANCH   2   5
HETATM    5  C   UNL     1      27.578  44.716  53.889  1.00  0.00     0.035 A 
HETATM    6  C   UNL     1      28.560  44.446  54.856  1.00  0.00     0.042 A 
HETATM    7  C   UNL     1      29.021  45.445  55.732  1.00  0.00    -0.021 A 
HETATM    8  C   UNL     1      28.488  46.733  55.612  1.00  0.00     0.012 A 
HETATM    9  C   UNL     1      27.515  47.013  54.651  1.00  0.00     0.003 A 
HETATM   10  C   UNL     1      27.061  46.007  53.796  1.00  0.00     0.029 A 
BRANCH   7  11
HETATM   11  C   UNL     1      30.017  45.163  56.758  1.00  0.00     0.010 A 
HETATM   12  C   UNL     1      31.007  44.150  56.831  1.00  0.00     0.152 A 
HETATM   13  N   UNL     1      31.741  44.216  57.944  1.00  0.00    -0.187 NA
HETATM   14  N   UNL     1      31.227  45.270  58.595  1.00  0.00    -0.289 N 
HETATM   15  H   UNL     1      31.628  45.523  59.492  1.00  0.00     0.188 HD
HETATM   16  C   UNL     1      30.195  45.869  57.930  1.00  0.00     0.123 A 
ENDBRANCH   7  11
ENDBRANCH   2   5
BRANCH   1  17
HETATM   17  C   UNL     1      26.668  42.257  51.142  1.00  0.00     0.144 C 
BRANCH  17  18
HETATM   18  C   UNL     1      27.624  41.110  51.057  1.00  0.00    -0.021 A 
HETATM   19  C   UNL     1      27.826  40.231  49.943  1.00  0.00    -0.001 A 
HETATM   20  C   UNL     1      27.254  40.119  48.659  1.00  0.00     0.014 A 
HETATM   21  C   UNL     1      28.834  39.334  50.299  1.00  0.00     0.042 A 
HETATM   22  C   UNL     1      27.706  39.123  47.784  1.00  0.00     0.001 A 
HETATM   23  C   UNL     1      28.714  38.244  48.171  1.00  0.00     0.002 A 
HETATM   24  C   UNL     1      29.298  38.331  49.437  1.00  0.00     0.030 A 
HETATM   25  N   UNL     1      29.230  39.651  51.576  1.00  0.00    -0.365 N 
HETATM   26  H   UNL     1      29.955  39.169  52.090  1.00  0.00     0.165 HD
HETATM   27  C   UNL     1      28.515  40.720  52.039  1.00  0.00     0.097 A 
ENDBRANCH  17  18
ENDBRANCH   1  17
TORSDOF 4
ENDMDL
MODEL 7
REMARK VINA RESULT:      -9.1      2.299      9.171
REMARK  4 active torsions:
REMARK  status: ('A' for Active; 'I' for Inactive)
REMARK    1  A    between atoms: C_8  and  C_9 
REMARK    2  A    between atoms: C_9  and  C_10 
REMARK       I    between atoms: C_10  and  N_11 
REMARK    3  A    between atoms: N_11  and  C_12 
REMARK    4  A    between atoms: C_14  and  C_15 
ROOT
HETATM    1  C   UNL     1      26.584  45.180  50.997  1.00  0.00     0.226 C 
HETATM    2  N   UNL     1      26.827  44.899  52.333  1.00  0.00    -0.327 N 
HETATM    3  O   UNL     1      27.295  44.865  50.045  1.00  0.00    -0.273 OA
HETATM    4  H   UNL     1      26.108  45.187  52.988  1.00  0.00     0.169 HD
ENDROOT
BRANCH   2   5
HETATM    5  C   UNL     1      27.943  44.232  52.883  1.00  0.00     0.035 A 
HETATM    6  C   UNL     1      28.414  44.682  54.129  1.00  0.00     0.042 A 
HETATM    7  C   UNL     1      29.534  44.095  54.745  1.00  0.00    -0.021 A 
HETATM    8  C   UNL     1      30.171  43.033  54.094  1.00  0.00     0.012 A 
HETATM    9  C   UNL     1      29.708  42.575  52.860  1.00  0.00     0.003 A 
HETATM   10  C   UNL     1      28.602  43.175  52.257  1.00  0.00     0.029 A 
BRANCH   7  11
HETATM   11  C   UNL     1      30.045  44.579  56.021  1.00  0.00     0.010 A 
HETATM   12  C   UNL     1      31.036  44.042  56.882  1.00  0.00     0.152 A 
HETATM   13  N   UNL     1      31.232  44.780  57.978  1.00  0.00    -0.187 NA
HETATM   14  N   UNL     1      30.367  45.794  57.829  1.00  0.00    -0.289 N 
HETATM   15  H   UNL     1      30.328  46.502  58.555  1.00  0.00     0.188 HD
HETATM   16  C   UNL     1      29.635  45.721  56.678  1.00  0.00     0.123 A 
ENDBRANCH   7  11
ENDBRANCH   2   5
BRANCH   1  17
HETATM   17  C   UNL     1      25.315  45.993  50.783  1.00  0.00     0.144 C 
BRANCH  17  18
HETATM   18  C   UNL     1      25.573  47.262  50.035  1.00  0.00    -0.021 A 
HETATM   19  C   UNL     1      24.615  48.065  49.334  1.00  0.00    -0.001 A 
HETATM   20  C   UNL     1      23.227  47.965  49.100  1.00  0.00     0.014 A 
HETATM   21  C   UNL     1      25.295  49.168  48.816  1.00  0.00     0.042 A 
HETATM   22  C   UNL     1      22.576  48.961  48.363  1.00  0.00     0.001 A 
HETATM   23  C   UNL     1      23.285  50.049  47.860  1.00  0.00     0.002 A 
HETATM   24  C   UNL     1      24.660  50.173  48.076  1.00  0.00     0.030 A 
HETATM   25  N   UNL     1      26.613  49.043  49.184  1.00  0.00    -0.365 N 
HETATM   26  H   UNL     1      27.340  49.706  48.951  1.00  0.00     0.165 HD
HETATM   27  C   UNL     1      26.791  47.906  49.922  1.00  0.00     0.097 A 
ENDBRANCH  17  18
ENDBRANCH   1  17
TORSDOF 4
ENDMDL
MODEL 8
REMARK VINA RESULT:      -8.9      4.895      7.539
REMARK  4 active torsions:
REMARK  status: ('A' for Active; 'I' for Inactive)
REMARK    1  A    between atoms: C_8  and  C_9 
REMARK    2  A    between atoms: C_9  and  C_10 
REMARK       I    between atoms: C_10  and  N_11 
REMARK    3  A    between atoms: N_11  and  C_12 
REMARK    4  A    between atoms: C_14  and  C_15 
ROOT
HETATM    1  C   UNL     1      26.230  44.141  52.016  1.00  0.00     0.226 C 
HETATM    2  N   UNL     1      25.702  42.864  51.898  1.00  0.00    -0.327 N 
HETATM    3  O   UNL     1      26.972  44.701  51.211  1.00  0.00    -0.273 OA
HETATM    4  H   UNL     1      25.063  42.575  52.629  1.00  0.00     0.169 HD
ENDROOT
BRANCH   2   5
HETATM    5  C   UNL     1      25.928  41.932  50.860  1.00  0.00     0.035 A 
HETATM    6  C   UNL     1      27.073  41.122  50.959  1.00  0.00     0.042 A 
HETATM    7  C   UNL     1      27.393  40.182  49.964  1.00  0.00    -0.021 A 
HETATM    8  C   UNL     1      26.534  40.055  48.866  1.00  0.00     0.012 A 
HETATM    9  C   UNL     1      25.392  40.850  48.762  1.00  0.00     0.003 A 
HETATM   10  C   UNL     1      25.094  41.786  49.753  1.00  0.00     0.029 A 
BRANCH   7  11
HETATM   11  C   UNL     1      28.595  39.362  50.045  1.00  0.00     0.010 A 
HETATM   12  C   UNL     1      29.256  38.591  49.056  1.00  0.00     0.152 A 
HETATM   13  N   UNL     1      30.343  37.968  49.517  1.00  0.00    -0.187 NA
HETATM   14  N   UNL     1      30.387  38.333  50.807  1.00  0.00    -0.289 N 
HETATM   15  H   UNL     1      31.143  37.976  51.382  1.00  0.00     0.188 HD
HETATM   16  C   UNL     1      29.366  39.164  51.172  1.00  0.00     0.123 A 
ENDBRANCH   7  11
ENDBRANCH   2   5
BRANCH   1  17
HETATM   17  C   UNL     1      25.833  44.828  53.315  1.00  0.00     0.144 C 
BRANCH  17  18
HETATM   18  C   UNL     1      27.021  45.253  54.118  1.00  0.00    -0.021 A 
HETATM   19  C   UNL     1      28.159  44.456  54.471  1.00  0.00    -0.001 A 
HETATM   20  C   UNL     1      28.538  43.119  54.232  1.00  0.00     0.014 A 
HETATM   21  C   UNL     1      29.029  45.272  55.196  1.00  0.00     0.042 A 
HETATM   22  C   UNL     1      29.762  42.649  54.723  1.00  0.00     0.001 A 
HETATM   23  C   UNL     1      30.608  43.489  55.443  1.00  0.00     0.002 A 
HETATM   24  C   UNL     1      30.257  44.818  55.694  1.00  0.00     0.030 A 
HETATM   25  N   UNL     1      28.447  46.513  55.283  1.00  0.00    -0.365 N 
HETATM   26  H   UNL     1      28.858  47.310  55.750  1.00  0.00     0.165 HD
HETATM   27  C   UNL     1      27.244  46.515  54.634  1.00  0.00     0.097 A 
ENDBRANCH  17  18
ENDBRANCH   1  17
TORSDOF 4
ENDMDL
MODEL 9
REMARK VINA RESULT:      -8.9      2.099      3.271
REMARK  4 active torsions:
REMARK  status: ('A' for Active; 'I' for Inactive)
REMARK    1  A    between atoms: C_8  and  C_9 
REMARK    2  A    between atoms: C_9  and  C_10 
REMARK       I    between atoms: C_10  and  N_11 
REMARK    3  A    between atoms: N_11  and  C_12 
REMARK    4  A    between atoms: C_14  and  C_15 
ROOT
HETATM    1  C   UNL     1      27.016  44.307  53.300  1.00  0.00     0.226 C 
HETATM    2  N   UNL     1      27.142  44.725  51.983  1.00  0.00    -0.327 N 
HETATM    3  O   UNL     1      26.003  44.376  53.993  1.00  0.00    -0.273 OA
HETATM    4  H   UNL     1      28.036  44.545  51.541  1.00  0.00     0.169 HD
ENDROOT
BRANCH   2   5
HETATM    5  C   UNL     1      26.160  45.344  51.179  1.00  0.00     0.035 A 
HETATM    6  C   UNL     1      26.522  46.530  50.517  1.00  0.00     0.042 A 
HETATM    7  C   UNL     1      25.605  47.230  49.713  1.00  0.00    -0.021 A 
HETATM    8  C   UNL     1      24.313  46.712  49.571  1.00  0.00     0.012 A 
HETATM    9  C   UNL     1      23.945  45.533  50.221  1.00  0.00     0.003 A 
HETATM   10  C   UNL     1      24.864  44.856  51.023  1.00  0.00     0.029 A 
BRANCH   7  11
HETATM   11  C   UNL     1      25.966  48.476  49.049  1.00  0.00     0.010 A 
HETATM   12  C   UNL     1      25.179  49.383  48.295  1.00  0.00     0.152 A 
HETATM   13  N   UNL     1      25.875  50.426  47.839  1.00  0.00    -0.187 NA
HETATM   14  N   UNL     1      27.116  50.197  48.296  1.00  0.00    -0.289 N 
HETATM   15  H   UNL     1      27.842  50.869  48.071  1.00  0.00     0.188 HD
HETATM   16  C   UNL     1      27.223  49.046  49.023  1.00  0.00     0.123 A 
ENDBRANCH   7  11
ENDBRANCH   2   5
BRANCH   1  17
HETATM   17  C   UNL     1      28.314  43.758  53.874  1.00  0.00     0.144 C 
BRANCH  17  18
HETATM   18  C   UNL     1      28.831  44.588  55.004  1.00  0.00    -0.021 A 
HETATM   19  C   UNL     1      29.893  44.257  55.909  1.00  0.00    -0.001 A 
HETATM   20  C   UNL     1      30.744  43.143  56.064  1.00  0.00     0.014 A 
HETATM   21  C   UNL     1      30.052  45.337  56.778  1.00  0.00     0.042 A 
HETATM   22  C   UNL     1      31.714  43.149  57.074  1.00  0.00     0.001 A 
HETATM   23  C   UNL     1      31.846  44.244  57.924  1.00  0.00     0.002 A 
HETATM   24  C   UNL     1      31.016  45.360  57.793  1.00  0.00     0.030 A 
HETATM   25  N   UNL     1      29.125  46.288  56.420  1.00  0.00    -0.365 N 
HETATM   26  H   UNL     1      29.015  47.183  56.876  1.00  0.00     0.165 HD
HETATM   27  C   UNL     1      28.391  45.851  55.353  1.00  0.00     0.097 A 
ENDBRANCH  17  18
ENDBRANCH   1  17
TORSDOF 4
ENDMDL
MODEL 10
REMARK VINA RESULT:      -8.8      4.954      6.898
REMARK  4 active torsions:
REMARK  status: ('A' for Active; 'I' for Inactive)
REMARK    1  A    between atoms: C_8  and  C_9 
REMARK    2  A    between atoms: C_9  and  C_10 
REMARK       I    between atoms: C_10  and  N_11 
REMARK    3  A    between atoms: N_11  and  C_12 
REMARK    4  A    between atoms: C_14  and  C_15 
ROOT
HETATM    1  C   UNL     1      26.982  45.185  54.271  1.00  0.00     0.226 C 
HETATM    2  N   UNL     1      27.359  44.782  52.999  1.00  0.00    -0.327 N 
HETATM    3  O   UNL     1      26.081  44.701  54.952  1.00  0.00    -0.273 OA
HETATM    4  H   UNL     1      28.161  45.255  52.599  1.00  0.00     0.169 HD
ENDROOT
BRANCH   2   5
HETATM    5  C   UNL     1      26.775  43.767  52.209  1.00  0.00     0.035 A 
HETATM    6  C   UNL     1      27.552  42.625  51.949  1.00  0.00     0.042 A 
HETATM    7  C   UNL     1      27.064  41.572  51.154  1.00  0.00    -0.021 A 
HETATM    8  C   UNL     1      25.770  41.677  50.631  1.00  0.00     0.012 A 
HETATM    9  C   UNL     1      24.989  42.804  50.888  1.00  0.00     0.003 A 
HETATM   10  C   UNL     1      25.492  43.845  51.670  1.00  0.00     0.029 A 
BRANCH   7  11
HETATM   11  C   UNL     1      27.877  40.400  50.855  1.00  0.00     0.010 A 
HETATM   12  C   UNL     1      27.806  39.476  49.782  1.00  0.00     0.152 A 
HETATM   13  N   UNL     1      28.735  38.520  49.853  1.00  0.00    -0.187 NA
HETATM   14  N   UNL     1      29.407  38.821  50.974  1.00  0.00    -0.289 N 
HETATM   15  H   UNL     1      30.179  38.221  51.246  1.00  0.00     0.188 HD
HETATM   16  C   UNL     1      28.935  39.933  51.609  1.00  0.00     0.123 A 
ENDBRANCH   7  11
ENDBRANCH   2   5
BRANCH   1  17
HETATM   17  C   UNL     1      27.789  46.371  54.780  1.00  0.00     0.144 C 
BRANCH  17  18
HETATM   18  C   UNL     1      28.605  46.029  55.984  1.00  0.00    -0.021 A 
HETATM   19  C   UNL     1      29.636  45.037  56.079  1.00  0.00    -0.001 A 
HETATM   20  C   UNL     1      30.196  44.107  55.178  1.00  0.00     0.014 A 
HETATM   21  C   UNL     1      30.144  45.087  57.379  1.00  0.00     0.042 A 
HETATM   22  C   UNL     1      31.232  43.268  55.605  1.00  0.00     0.001 A 
HETATM   23  C   UNL     1      31.716  43.345  56.909  1.00  0.00     0.002 A 
HETATM   24  C   UNL     1      31.179  44.256  57.822  1.00  0.00     0.030 A 
HETATM   25  N   UNL     1      29.451  46.067  58.049  1.00  0.00    -0.365 N 
HETATM   26  H   UNL     1      29.612  46.328  59.012  1.00  0.00     0.165 HD
HETATM   27  C   UNL     1      28.529  46.643  57.220  1.00  0.00     0.097 A 
ENDBRANCH  17  18
ENDBRANCH   1  17
TORSDOF 4
ENDMDL
