MODEL 1
REMARK VINA RESULT:      -9.4      0.000      0.000
REMARK  6 active torsions:
REMARK  status: ('A' for Active; 'I' for Inactive)
REMARK    1  A    between atoms: C_3  and  N_4 
REMARK       I    between atoms: N_4  and  C_5 
REMARK    2  A    between atoms: C_5  and  C_6 
REMARK    3  A    between atoms: C_14  and  N_15 
REMARK       I    between atoms: N_15  and  C_16 
REMARK       I    between atoms: C_16  and  N_17 
REMARK    4  A    between atoms: N_17  and  C_18 
REMARK    5  A    between atoms: C_18  and  C_19 
REMARK    6  A    between atoms: C_19  and  N_20 
ROOT
HETATM    1  N   UNL     1      24.245  44.733  49.899  1.00  0.00    -0.309 N 
HETATM    2  C   UNL     1      23.702  45.846  49.341  1.00  0.00     0.321 C 
HETATM    3  N   UNL     1      24.044  47.054  49.881  1.00  0.00    -0.337 N 
HETATM    4  O   UNL     1      22.911  45.755  48.407  1.00  0.00    -0.247 OA
HETATM    5  H   UNL     1      23.756  43.891  49.611  1.00  0.00     0.170 HD
HETATM    6  H   UNL     1      24.234  46.952  50.874  1.00  0.00     0.164 HD
ENDROOT
BRANCH   1   7
HETATM    7  C   UNL     1      25.318  44.551  50.792  1.00  0.00     0.036 A 
HETATM    8  C   UNL     1      26.654  44.508  50.407  1.00  0.00     0.032 A 
HETATM    9  C   UNL     1      27.664  44.337  51.362  1.00  0.00     0.032 A 
HETATM   10  C   UNL     1      27.363  44.199  52.720  1.00  0.00     0.041 A 
HETATM   11  C   UNL     1      26.011  44.197  53.116  1.00  0.00    -0.033 A 
HETATM   12  C   UNL     1      25.594  44.032  54.554  1.00  0.00     0.050 C 
HETATM   13  C   UNL     1      25.005  44.361  52.142  1.00  0.00     0.038 A 
BRANCH  10  14
HETATM   14  N   UNL     1      28.364  44.085  53.707  1.00  0.00    -0.321 N 
HETATM   15  C   UNL     1      28.802  45.038  54.614  1.00  0.00     0.279 C 
HETATM   16  O   UNL     1      28.432  46.207  54.649  1.00  0.00    -0.265 OA
HETATM   17  H   UNL     1      28.837  43.192  53.798  1.00  0.00     0.169 HD
BRANCH  15  18
HETATM   18  C   UNL     1      29.778  44.507  55.548  1.00  0.00     0.142 A 
HETATM   19  O   UNL     1      30.021  45.180  56.721  1.00  0.00    -0.317 OA
HETATM   20  C   UNL     1      30.986  44.492  57.384  1.00  0.00     0.143 A 
HETATM   21  C   UNL     1      31.364  43.380  56.670  1.00  0.00     0.027 A 
HETATM   22  C   UNL     1      30.586  43.388  55.487  1.00  0.00     0.045 A 
ENDBRANCH  15  18
ENDBRANCH  10  14
ENDBRANCH   1   7
BRANCH   3  23
HETATM   23  C   UNL     1      23.301  48.262  49.525  1.00  0.00     0.108 C 
HETATM   24  C   UNL     1      24.158  49.147  48.620  1.00  0.00     0.034 C 
BRANCH  23  25
HETATM   25  C   UNL     1      21.853  48.051  48.989  1.00  0.00     0.259 C 
BRANCH  25  26
HETATM   26  N   UNL     1      20.755  48.992  49.461  1.00  0.00    -0.069 N 
HETATM   27  H   UNL     1      21.165  49.390  50.317  1.00  0.00     0.280 HD
HETATM   28  C   UNL     1      20.458  50.167  48.572  1.00  0.00     0.239 C 
HETATM   29  C   UNL     1      19.656  51.201  49.368  1.00  0.00     0.007 C 
HETATM   30  C   UNL     1      18.370  50.576  49.927  1.00  0.00     0.007 C 
HETATM   31  C   UNL     1      19.332  52.412  48.494  1.00  0.00     0.011 C 
HETATM   32  C   UNL     1      18.666  49.313  50.734  1.00  0.00     0.028 C 
HETATM   33  C   UNL     1      19.495  48.309  49.939  1.00  0.00     0.235 C 
ENDBRANCH  25  26
ENDBRANCH  23  25
ENDBRANCH   3  23
TORSDOF 6
ENDMDL
MODEL 2
REMARK VINA RESULT:      -9.3      2.630      9.037
REMARK  6 active torsions:
REMARK  status: ('A' for Active; 'I' for Inactive)
REMARK    1  A    between atoms: C_3  and  N_4 
REMARK       I    between atoms: N_4  and  C_5 
REMARK    2  A    between atoms: C_5  and  C_6 
REMARK    3  A    between atoms: C_14  and  N_15 
REMARK       I    between atoms: N_15  and  C_16 
REMARK       I    between atoms: C_16  and  N_17 
REMARK    4  A    between atoms: N_17  and  C_18 
REMARK    5  A    between atoms: C_18  and  C_19 
REMARK    6  A    between atoms: C_19  and  N_20 
ROOT
HETATM    1  N   UNL     1      26.782  43.098  49.593  1.00  0.00    -0.309 N 
HETATM    2  C   UNL     1      27.343  42.389  50.608  1.00  0.00     0.321 C 
HETATM    3  N   UNL     1      27.223  42.895  51.872  1.00  0.00    -0.337 N 
HETATM    4  O   UNL     1      27.958  41.351  50.380  1.00  0.00    -0.247 OA
HETATM    5  H   UNL     1      27.125  42.795  48.687  1.00  0.00     0.170 HD
HETATM    6  H   UNL     1      27.188  43.910  51.841  1.00  0.00     0.164 HD
ENDROOT
BRANCH   1   7
HETATM    7  C   UNL     1      25.855  44.156  49.581  1.00  0.00     0.036 A 
HETATM    8  C   UNL     1      24.491  43.996  49.361  1.00  0.00     0.032 A 
HETATM    9  C   UNL     1      23.633  45.103  49.378  1.00  0.00     0.032 A 
HETATM   10  C   UNL     1      24.117  46.393  49.609  1.00  0.00     0.041 A 
HETATM   11  C   UNL     1      25.502  46.573  49.789  1.00  0.00    -0.033 A 
HETATM   12  C   UNL     1      26.114  47.930  50.022  1.00  0.00     0.050 C 
HETATM   13  C   UNL     1      26.355  45.450  49.760  1.00  0.00     0.038 A 
BRANCH  10  14
HETATM   14  N   UNL     1      23.266  47.515  49.690  1.00  0.00    -0.321 N 
HETATM   15  C   UNL     1      22.514  48.109  48.689  1.00  0.00     0.279 C 
HETATM   16  O   UNL     1      22.533  47.791  47.504  1.00  0.00    -0.265 OA
HETATM   17  H   UNL     1      23.159  47.962  50.595  1.00  0.00     0.169 HD
BRANCH  15  18
HETATM   18  C   UNL     1      21.674  49.183  49.188  1.00  0.00     0.142 A 
HETATM   19  O   UNL     1      20.371  48.914  49.530  1.00  0.00    -0.317 OA
HETATM   20  C   UNL     1      19.813  50.086  49.930  1.00  0.00     0.143 A 
HETATM   21  C   UNL     1      20.732  51.105  49.866  1.00  0.00     0.027 A 
HETATM   22  C   UNL     1      21.932  50.525  49.389  1.00  0.00     0.045 A 
ENDBRANCH  15  18
ENDBRANCH  10  14
ENDBRANCH   1   7
BRANCH   3  23
HETATM   23  C   UNL     1      28.024  42.347  52.967  1.00  0.00     0.108 C 
HETATM   24  C   UNL     1      29.487  42.248  52.537  1.00  0.00     0.034 C 
BRANCH  23  25
HETATM   25  C   UNL     1      27.836  43.015  54.363  1.00  0.00     0.259 C 
BRANCH  25  26
HETATM   26  N   UNL     1      27.953  44.528  54.470  1.00  0.00    -0.069 N 
HETATM   27  H   UNL     1      28.509  44.761  53.636  1.00  0.00     0.280 HD
HETATM   28  C   UNL     1      26.675  45.306  54.334  1.00  0.00     0.239 C 
HETATM   29  C   UNL     1      27.013  46.772  54.054  1.00  0.00     0.007 C 
HETATM   30  C   UNL     1      27.905  47.343  55.165  1.00  0.00     0.007 C 
HETATM   31  C   UNL     1      25.735  47.597  53.911  1.00  0.00     0.011 C 
HETATM   32  C   UNL     1      29.149  46.483  55.383  1.00  0.00     0.028 C 
HETATM   33  C   UNL     1      28.795  45.019  55.625  1.00  0.00     0.235 C 
ENDBRANCH  25  26
ENDBRANCH  23  25
ENDBRANCH   3  23
TORSDOF 6
ENDMDL
MODEL 3
REMARK VINA RESULT:      -9.3      2.769     10.862
REMARK  6 active torsions:
REMARK  status: ('A' for Active; 'I' for Inactive)
REMARK    1  A    between atoms: C_3  and  N_4 
REMARK       I    between atoms: N_4  and  C_5 
REMARK    2  A    between atoms: C_5  and  C_6 
REMARK    3  A    between atoms: C_14  and  N_15 
REMARK       I    between atoms: N_15  and  C_16 
REMARK       I    between atoms: C_16  and  N_17 
REMARK    4  A    between atoms: N_17  and  C_18 
REMARK    5  A    between atoms: C_18  and  C_19 
REMARK    6  A    between atoms: C_19  and  N_20 
ROOT
HETATM    1  N   UNL     1      25.009  48.091  49.093  1.00  0.00    -0.309 N 
HETATM    2  C   UNL     1      25.684  47.306  49.973  1.00  0.00     0.321 C 
HETATM    3  N   UNL     1      25.166  47.179  51.232  1.00  0.00    -0.337 N 
HETATM    4  O   UNL     1      26.735  46.762  49.647  1.00  0.00    -0.247 OA
HETATM    5  H   UNL     1      25.579  48.329  48.287  1.00  0.00     0.170 HD
HETATM    6  H   UNL     1      24.669  48.026  51.492  1.00  0.00     0.164 HD
ENDROOT
BRANCH   1   7
HETATM    7  C   UNL     1      23.710  48.630  49.113  1.00  0.00     0.036 A 
HETATM    8  C   UNL     1      23.415  49.943  49.466  1.00  0.00     0.032 A 
HETATM    9  C   UNL     1      22.094  50.406  49.448  1.00  0.00     0.032 A 
HETATM   10  C   UNL     1      21.036  49.568  49.082  1.00  0.00     0.041 A 
HETATM   11  C   UNL     1      21.318  48.225  48.765  1.00  0.00    -0.033 A 
HETATM   12  C   UNL     1      20.239  47.245  48.381  1.00  0.00     0.050 C 
HETATM   13  C   UNL     1      22.652  47.771  48.797  1.00  0.00     0.038 A 
BRANCH  10  14
HETATM   14  N   UNL     1      19.705  50.026  48.997  1.00  0.00    -0.321 N 
HETATM   15  C   UNL     1      18.750  50.108  49.998  1.00  0.00     0.279 C 
HETATM   16  O   UNL     1      18.890  49.700  51.147  1.00  0.00    -0.265 OA
HETATM   17  H   UNL     1      19.377  50.359  48.097  1.00  0.00     0.169 HD
BRANCH  15  18
HETATM   18  C   UNL     1      17.524  50.738  49.545  1.00  0.00     0.142 A 
HETATM   19  O   UNL     1      17.041  51.833  50.221  1.00  0.00    -0.317 OA
HETATM   20  C   UNL     1      15.883  52.198  49.614  1.00  0.00     0.143 A 
HETATM   21  C   UNL     1      15.612  51.370  48.551  1.00  0.00     0.027 A 
HETATM   22  C   UNL     1      16.669  50.429  48.505  1.00  0.00     0.045 A 
ENDBRANCH  15  18
ENDBRANCH  10  14
ENDBRANCH   1   7
BRANCH   3  23
HETATM   23  C   UNL     1      25.964  46.587  52.305  1.00  0.00     0.108 C 
HETATM   24  C   UNL     1      25.741  47.364  53.602  1.00  0.00     0.034 C 
BRANCH  23  25
HETATM   25  C   UNL     1      25.847  45.043  52.484  1.00  0.00     0.259 C 
BRANCH  25  26
HETATM   26  N   UNL     1      27.121  44.225  52.622  1.00  0.00    -0.069 N 
HETATM   27  H   UNL     1      27.752  44.695  51.958  1.00  0.00     0.280 HD
HETATM   28  C   UNL     1      27.814  44.293  53.954  1.00  0.00     0.239 C 
HETATM   29  C   UNL     1      29.246  43.773  53.796  1.00  0.00     0.007 C 
HETATM   30  C   UNL     1      29.244  42.345  53.232  1.00  0.00     0.007 C 
HETATM   31  C   UNL     1      29.982  43.824  55.133  1.00  0.00     0.011 C 
HETATM   32  C   UNL     1      28.439  42.255  51.937  1.00  0.00     0.028 C 
HETATM   33  C   UNL     1      27.027  42.810  52.103  1.00  0.00     0.235 C 
ENDBRANCH  25  26
ENDBRANCH  23  25
ENDBRANCH   3  23
TORSDOF 6
ENDMDL
MODEL 4
REMARK VINA RESULT:      -9.3      2.579     10.689
REMARK  6 active torsions:
REMARK  status: ('A' for Active; 'I' for Inactive)
REMARK    1  A    between atoms: C_3  and  N_4 
REMARK       I    between atoms: N_4  and  C_5 
REMARK    2  A    between atoms: C_5  and  C_6 
REMARK    3  A    between atoms: C_14  and  N_15 
REMARK       I    between atoms: N_15  and  C_16 
REMARK       I    between atoms: C_16  and  N_17 
REMARK    4  A    between atoms: N_17  and  C_18 
REMARK    5  A    between atoms: C_18  and  C_19 
REMARK    6  A    between atoms: C_19  and  N_20 
ROOT
HETATM    1  N   UNL     1      25.082  46.709  49.419  1.00  0.00    -0.309 N 
HETATM    2  C   UNL     1      25.733  46.241  50.517  1.00  0.00     0.321 C 
HETATM    3  N   UNL     1      25.220  46.567  51.741  1.00  0.00    -0.337 N 
HETATM    4  O   UNL     1      26.758  45.576  50.399  1.00  0.00    -0.247 OA
HETATM    5  H   UNL     1      25.654  46.637  48.584  1.00  0.00     0.170 HD
HETATM    6  H   UNL     1      24.759  47.472  51.698  1.00  0.00     0.164 HD
ENDROOT
BRANCH   1   7
HETATM    7  C   UNL     1      23.805  47.275  49.249  1.00  0.00     0.036 A 
HETATM    8  C   UNL     1      22.679  46.558  48.861  1.00  0.00     0.032 A 
HETATM    9  C   UNL     1      21.440  47.196  48.727  1.00  0.00     0.032 A 
HETATM   10  C   UNL     1      21.298  48.565  48.972  1.00  0.00     0.041 A 
HETATM   11  C   UNL     1      22.440  49.310  49.323  1.00  0.00    -0.033 A 
HETATM   12  C   UNL     1      22.385  50.793  49.583  1.00  0.00     0.050 C 
HETATM   13  C   UNL     1      23.683  48.655  49.445  1.00  0.00     0.038 A 
BRANCH  10  14
HETATM   14  N   UNL     1      20.050  49.219  48.901  1.00  0.00    -0.321 N 
HETATM   15  C   UNL     1      19.010  49.205  49.817  1.00  0.00     0.279 C 
HETATM   16  O   UNL     1      18.973  48.528  50.839  1.00  0.00    -0.265 OA
HETATM   17  H   UNL     1      19.865  49.795  48.087  1.00  0.00     0.169 HD
BRANCH  15  18
HETATM   18  C   UNL     1      17.927  50.095  49.440  1.00  0.00     0.142 A 
HETATM   19  O   UNL     1      17.657  51.193  50.221  1.00  0.00    -0.317 OA
HETATM   20  C   UNL     1      16.591  51.826  49.665  1.00  0.00     0.143 A 
HETATM   21  C   UNL     1      16.174  51.167  48.533  1.00  0.00     0.027 A 
HETATM   22  C   UNL     1      17.035  50.052  48.387  1.00  0.00     0.045 A 
ENDBRANCH  15  18
ENDBRANCH  10  14
ENDBRANCH   1   7
BRANCH   3  23
HETATM   23  C   UNL     1      26.003  46.341  52.956  1.00  0.00     0.108 C 
HETATM   24  C   UNL     1      25.797  47.503  53.926  1.00  0.00     0.034 C 
BRANCH  23  25
HETATM   25  C   UNL     1      25.850  44.942  53.627  1.00  0.00     0.259 C 
BRANCH  25  26
HETATM   26  N   UNL     1      27.105  44.141  53.938  1.00  0.00    -0.069 N 
HETATM   27  H   UNL     1      26.869  43.714  54.845  1.00  0.00     0.280 HD
HETATM   28  C   UNL     1      27.405  42.992  53.017  1.00  0.00     0.239 C 
HETATM   29  C   UNL     1      28.425  42.069  53.691  1.00  0.00     0.007 C 
HETATM   30  C   UNL     1      29.697  42.846  54.058  1.00  0.00     0.007 C 
HETATM   31  C   UNL     1      28.758  40.888  52.781  1.00  0.00     0.011 C 
HETATM   32  C   UNL     1      29.377  44.081  54.897  1.00  0.00     0.028 C 
HETATM   33  C   UNL     1      28.333  44.971  54.229  1.00  0.00     0.235 C 
ENDBRANCH  25  26
ENDBRANCH  23  25
ENDBRANCH   3  23
TORSDOF 6
ENDMDL
MODEL 5
REMARK VINA RESULT:      -8.9      2.879     10.730
REMARK  6 active torsions:
REMARK  status: ('A' for Active; 'I' for Inactive)
REMARK    1  A    between atoms: C_3  and  N_4 
REMARK       I    between atoms: N_4  and  C_5 
REMARK    2  A    between atoms: C_5  and  C_6 
REMARK    3  A    between atoms: C_14  and  N_15 
REMARK       I    between atoms: N_15  and  C_16 
REMARK       I    between atoms: C_16  and  N_17 
REMARK    4  A    between atoms: N_17  and  C_18 
REMARK    5  A    between atoms: C_18  and  C_19 
REMARK    6  A    between atoms: C_19  and  N_20 
ROOT
HETATM    1  N   UNL     1      22.857  45.763  48.301  1.00  0.00    -0.309 N 
HETATM    2  C   UNL     1      23.943  45.583  49.098  1.00  0.00     0.321 C 
HETATM    3  N   UNL     1      24.207  46.547  50.031  1.00  0.00    -0.337 N 
HETATM    4  O   UNL     1      24.668  44.603  48.955  1.00  0.00    -0.247 OA
HETATM    5  H   UNL     1      22.879  45.150  47.492  1.00  0.00     0.170 HD
HETATM    6  H   UNL     1      23.893  47.453  49.696  1.00  0.00     0.164 HD
ENDROOT
BRANCH   1   7
HETATM    7  C   UNL     1      21.757  46.636  48.386  1.00  0.00     0.036 A 
HETATM    8  C   UNL     1      20.462  46.231  48.694  1.00  0.00     0.032 A 
HETATM    9  C   UNL     1      19.424  47.167  48.773  1.00  0.00     0.032 A 
HETATM   10  C   UNL     1      19.653  48.526  48.541  1.00  0.00     0.041 A 
HETATM   11  C   UNL     1      20.951  48.942  48.185  1.00  0.00    -0.033 A 
HETATM   12  C   UNL     1      21.284  50.382  47.896  1.00  0.00     0.050 C 
HETATM   13  C   UNL     1      21.984  47.986  48.101  1.00  0.00     0.038 A 
BRANCH  10  14
HETATM   14  N   UNL     1      18.637  49.496  48.672  1.00  0.00    -0.321 N 
HETATM   15  C   UNL     1      18.184  50.129  49.819  1.00  0.00     0.279 C 
HETATM   16  O   UNL     1      18.552  49.876  50.961  1.00  0.00    -0.265 OA
HETATM   17  H   UNL     1      18.164  49.801  47.827  1.00  0.00     0.169 HD
BRANCH  15  18
HETATM   18  C   UNL     1      17.194  51.152  49.533  1.00  0.00     0.142 A 
HETATM   19  O   UNL     1      17.203  52.317  50.262  1.00  0.00    -0.317 OA
HETATM   20  C   UNL     1      16.167  53.074  49.817  1.00  0.00     0.143 A 
HETATM   21  C   UNL     1      15.496  52.429  48.806  1.00  0.00     0.027 A 
HETATM   22  C   UNL     1      16.158  51.190  48.621  1.00  0.00     0.045 A 
ENDBRANCH  15  18
ENDBRANCH  10  14
ENDBRANCH   1   7
BRANCH   3  23
HETATM   23  C   UNL     1      25.491  46.568  50.731  1.00  0.00     0.108 C 
HETATM   24  C   UNL     1      26.311  47.772  50.268  1.00  0.00     0.034 C 
BRANCH  23  25
HETATM   25  C   UNL     1      25.437  46.418  52.281  1.00  0.00     0.259 C 
BRANCH  25  26
HETATM   26  N   UNL     1      26.645  45.837  53.001  1.00  0.00    -0.069 N 
HETATM   27  H   UNL     1      27.428  46.276  52.498  1.00  0.00     0.280 HD
HETATM   28  C   UNL     1      26.816  46.235  54.440  1.00  0.00     0.239 C 
HETATM   29  C   UNL     1      28.249  45.918  54.876  1.00  0.00     0.007 C 
HETATM   30  C   UNL     1      28.564  44.431  54.660  1.00  0.00     0.007 C 
HETATM   31  C   UNL     1      28.461  46.308  56.338  1.00  0.00     0.011 C 
HETATM   32  C   UNL     1      28.276  44.000  53.223  1.00  0.00     0.028 C 
HETATM   33  C   UNL     1      26.856  44.356  52.794  1.00  0.00     0.235 C 
ENDBRANCH  25  26
ENDBRANCH  23  25
ENDBRANCH   3  23
TORSDOF 6
ENDMDL
MODEL 6
REMARK VINA RESULT:      -8.8      3.585     10.349
REMARK  6 active torsions:
REMARK  status: ('A' for Active; 'I' for Inactive)
REMARK    1  A    between atoms: C_3  and  N_4 
REMARK       I    between atoms: N_4  and  C_5 
REMARK    2  A    between atoms: C_5  and  C_6 
REMARK    3  A    between atoms: C_14  and  N_15 
REMARK       I    between atoms: N_15  and  C_16 
REMARK       I    between atoms: C_16  and  N_17 
REMARK    4  A    between atoms: N_17  and  C_18 
REMARK    5  A    between atoms: C_18  and  C_19 
REMARK    6  A    between atoms: C_19  and  N_20 
ROOT
HETATM    1  N   UNL     1      25.054  48.611  48.997  1.00  0.00    -0.309 N 
HETATM    2  C   UNL     1      25.681  47.647  49.721  1.00  0.00     0.321 C 
HETATM    3  N   UNL     1      25.054  47.199  50.850  1.00  0.00    -0.337 N 
HETATM    4  O   UNL     1      26.782  47.226  49.381  1.00  0.00    -0.247 OA
HETATM    5  H   UNL     1      25.685  49.055  48.336  1.00  0.00     0.170 HD
HETATM    6  H   UNL     1      24.495  47.943  51.258  1.00  0.00     0.164 HD
ENDROOT
BRANCH   1   7
HETATM    7  C   UNL     1      23.735  49.099  49.015  1.00  0.00     0.036 A 
HETATM    8  C   UNL     1      23.398  50.431  49.230  1.00  0.00     0.032 A 
HETATM    9  C   UNL     1      22.058  50.837  49.220  1.00  0.00     0.032 A 
HETATM   10  C   UNL     1      21.024  49.922  49.001  1.00  0.00     0.041 A 
HETATM   11  C   UNL     1      21.350  48.563  48.826  1.00  0.00    -0.033 A 
HETATM   12  C   UNL     1      20.301  47.505  48.606  1.00  0.00     0.050 C 
HETATM   13  C   UNL     1      22.704  48.168  48.848  1.00  0.00     0.038 A 
BRANCH  10  14
HETATM   14  N   UNL     1      19.671  50.315  48.927  1.00  0.00    -0.321 N 
HETATM   15  C   UNL     1      18.710  50.311  49.925  1.00  0.00     0.279 C 
HETATM   16  O   UNL     1      18.867  49.869  51.059  1.00  0.00    -0.265 OA
HETATM   17  H   UNL     1      19.330  50.665  48.037  1.00  0.00     0.169 HD
BRANCH  15  18
HETATM   18  C   UNL     1      17.455  50.896  49.489  1.00  0.00     0.142 A 
HETATM   19  O   UNL     1      16.896  51.913  50.224  1.00  0.00    -0.317 OA
HETATM   20  C   UNL     1      15.727  52.247  49.619  1.00  0.00     0.143 A 
HETATM   21  C   UNL     1      15.525  51.477  48.500  1.00  0.00     0.027 A 
HETATM   22  C   UNL     1      16.638  50.606  48.414  1.00  0.00     0.045 A 
ENDBRANCH  15  18
ENDBRANCH  10  14
ENDBRANCH   1   7
BRANCH   3  23
HETATM   23  C   UNL     1      25.775  46.377  51.821  1.00  0.00     0.108 C 
HETATM   24  C   UNL     1      26.070  47.199  53.075  1.00  0.00     0.034 C 
BRANCH  23  25
HETATM   25  C   UNL     1      25.165  44.976  52.131  1.00  0.00     0.259 C 
BRANCH  25  26
HETATM   26  N   UNL     1      25.373  43.852  51.129  1.00  0.00    -0.069 N 
HETATM   27  H   UNL     1      25.476  43.032  51.742  1.00  0.00     0.280 HD
HETATM   28  C   UNL     1      24.210  43.538  50.230  1.00  0.00     0.239 C 
HETATM   29  C   UNL     1      24.427  42.161  49.597  1.00  0.00     0.007 C 
HETATM   30  C   UNL     1      25.758  42.120  48.834  1.00  0.00     0.007 C 
HETATM   31  C   UNL     1      23.263  41.808  48.673  1.00  0.00     0.011 C 
HETATM   32  C   UNL     1      26.926  42.553  49.718  1.00  0.00     0.028 C 
HETATM   33  C   UNL     1      26.677  43.911  50.368  1.00  0.00     0.235 C 
ENDBRANCH  25  26
ENDBRANCH  23  25
ENDBRANCH   3  23
TORSDOF 6
ENDMDL
MODEL 7
REMARK VINA RESULT:      -8.6      1.792      2.890
REMARK  6 active torsions:
REMARK  status: ('A' for Active; 'I' for Inactive)
REMARK    1  A    between atoms: C_3  and  N_4 
REMARK       I    between atoms: N_4  and  C_5 
REMARK    2  A    between atoms: C_5  and  C_6 
REMARK    3  A    between atoms: C_14  and  N_15 
REMARK       I    between atoms: N_15  and  C_16 
REMARK       I    between atoms: C_16  and  N_17 
REMARK    4  A    between atoms: N_17  and  C_18 
REMARK    5  A    between atoms: C_18  and  C_19 
REMARK    6  A    between atoms: C_19  and  N_20 
ROOT
HETATM    1  N   UNL     1      22.821  47.038  49.058  1.00  0.00    -0.309 N 
HETATM    2  C   UNL     1      22.218  48.242  48.872  1.00  0.00     0.321 C 
HETATM    3  N   UNL     1      22.512  49.238  49.761  1.00  0.00    -0.337 N 
HETATM    4  O   UNL     1      21.420  48.407  47.955  1.00  0.00    -0.247 OA
HETATM    5  H   UNL     1      22.367  46.304  48.523  1.00  0.00     0.170 HD
HETATM    6  H   UNL     1      22.720  48.843  50.673  1.00  0.00     0.164 HD
ENDROOT
BRANCH   1   7
HETATM    7  C   UNL     1      23.914  46.641  49.851  1.00  0.00     0.036 A 
HETATM    8  C   UNL     1      24.949  47.488  50.232  1.00  0.00     0.032 A 
HETATM    9  C   UNL     1      25.995  47.016  51.034  1.00  0.00     0.032 A 
HETATM   10  C   UNL     1      26.034  45.689  51.471  1.00  0.00     0.041 A 
HETATM   11  C   UNL     1      25.013  44.812  51.055  1.00  0.00    -0.033 A 
HETATM   12  C   UNL     1      24.986  43.360  51.458  1.00  0.00     0.050 C 
HETATM   13  C   UNL     1      23.972  45.299  50.239  1.00  0.00     0.038 A 
BRANCH  10  14
HETATM   14  N   UNL     1      27.043  45.205  52.328  1.00  0.00    -0.321 N 
HETATM   15  C   UNL     1      27.117  45.277  53.710  1.00  0.00     0.279 C 
HETATM   16  O   UNL     1      26.322  45.870  54.433  1.00  0.00    -0.265 OA
HETATM   17  H   UNL     1      27.830  44.723  51.905  1.00  0.00     0.169 HD
BRANCH  15  18
HETATM   18  C   UNL     1      28.263  44.563  54.243  1.00  0.00     0.142 A 
HETATM   19  O   UNL     1      29.058  45.174  55.182  1.00  0.00    -0.317 OA
HETATM   20  C   UNL     1      30.061  44.309  55.480  1.00  0.00     0.143 A 
HETATM   21  C   UNL     1      29.925  43.145  54.763  1.00  0.00     0.027 A 
HETATM   22  C   UNL     1      28.766  43.307  53.965  1.00  0.00     0.045 A 
ENDBRANCH  15  18
ENDBRANCH  10  14
ENDBRANCH   1   7
BRANCH   3  23
HETATM   23  C   UNL     1      21.709  50.460  49.796  1.00  0.00     0.108 C 
HETATM   24  C   UNL     1      21.735  51.134  48.425  1.00  0.00     0.034 C 
BRANCH  23  25
HETATM   25  C   UNL     1      20.274  50.328  50.391  1.00  0.00     0.259 C 
BRANCH  25  26
HETATM   26  N   UNL     1      19.122  50.003  49.453  1.00  0.00    -0.069 N 
HETATM   27  H   UNL     1      19.609  49.834  48.562  1.00  0.00     0.280 HD
HETATM   28  C   UNL     1      18.364  48.738  49.744  1.00  0.00     0.239 C 
HETATM   29  C   UNL     1      17.542  48.356  48.510  1.00  0.00     0.007 C 
HETATM   30  C   UNL     1      16.600  49.500  48.111  1.00  0.00     0.007 C 
HETATM   31  C   UNL     1      16.754  47.073  48.770  1.00  0.00     0.011 C 
HETATM   32  C   UNL     1      17.358  50.814  47.931  1.00  0.00     0.028 C 
HETATM   33  C   UNL     1      18.199  51.161  49.156  1.00  0.00     0.235 C 
ENDBRANCH  25  26
ENDBRANCH  23  25
ENDBRANCH   3  23
TORSDOF 6
ENDMDL
MODEL 8
REMARK VINA RESULT:      -8.5     18.483     22.220
REMARK  6 active torsions:
REMARK  status: ('A' for Active; 'I' for Inactive)
REMARK    1  A    between atoms: C_3  and  N_4 
REMARK       I    between atoms: N_4  and  C_5 
REMARK    2  A    between atoms: C_5  and  C_6 
REMARK    3  A    between atoms: C_14  and  N_15 
REMARK       I    between atoms: N_15  and  C_16 
REMARK       I    between atoms: C_16  and  N_17 
REMARK    4  A    between atoms: N_17  and  C_18 
REMARK    5  A    between atoms: C_18  and  C_19 
REMARK    6  A    between atoms: C_19  and  N_20 
ROOT
HETATM    1  N   UNL     1      39.254  40.986  62.469  1.00  0.00    -0.309 N 
HETATM    2  C   UNL     1      39.674  39.870  63.120  1.00  0.00     0.321 C 
HETATM    3  N   UNL     1      40.113  40.018  64.406  1.00  0.00    -0.337 N 
HETATM    4  O   UNL     1      39.681  38.781  62.554  1.00  0.00    -0.247 OA
HETATM    5  H   UNL     1      39.186  40.834  61.467  1.00  0.00     0.170 HD
HETATM    6  H   UNL     1      40.528  40.937  64.530  1.00  0.00     0.164 HD
ENDROOT
BRANCH   1   7
HETATM    7  C   UNL     1      38.927  42.277  62.922  1.00  0.00     0.036 A 
HETATM    8  C   UNL     1      37.626  42.727  63.126  1.00  0.00     0.032 A 
HETATM    9  C   UNL     1      37.387  44.025  63.592  1.00  0.00     0.032 A 
HETATM   10  C   UNL     1      38.439  44.906  63.861  1.00  0.00     0.041 A 
HETATM   11  C   UNL     1      39.758  44.476  63.617  1.00  0.00    -0.033 A 
HETATM   12  C   UNL     1      40.951  45.365  63.856  1.00  0.00     0.050 C 
HETATM   13  C   UNL     1      39.983  43.169  63.138  1.00  0.00     0.038 A 
BRANCH  10  14
HETATM   14  N   UNL     1      38.227  46.197  64.388  1.00  0.00    -0.321 N 
HETATM   15  C   UNL     1      37.914  46.564  65.687  1.00  0.00     0.279 C 
HETATM   16  O   UNL     1      37.680  45.787  66.607  1.00  0.00    -0.265 OA
HETATM   17  H   UNL     1      38.322  46.985  63.756  1.00  0.00     0.169 HD
BRANCH  15  18
HETATM   18  C   UNL     1      37.883  48.004  65.864  1.00  0.00     0.142 A 
HETATM   19  O   UNL     1      37.528  48.523  67.085  1.00  0.00    -0.317 OA
HETATM   20  C   UNL     1      37.551  49.876  66.966  1.00  0.00     0.143 A 
HETATM   21  C   UNL     1      37.926  50.243  65.696  1.00  0.00     0.027 A 
HETATM   22  C   UNL     1      38.142  49.038  64.985  1.00  0.00     0.045 A 
ENDBRANCH  15  18
ENDBRANCH  10  14
ENDBRANCH   1   7
BRANCH   3  23
HETATM   23  C   UNL     1      40.831  38.932  65.073  1.00  0.00     0.108 C 
HETATM   24  C   UNL     1      42.293  38.929  64.627  1.00  0.00     0.034 C 
BRANCH  23  25
HETATM   25  C   UNL     1      40.658  38.835  66.619  1.00  0.00     0.259 C 
BRANCH  25  26
HETATM   26  N   UNL     1      40.241  37.504  67.225  1.00  0.00    -0.069 N 
HETATM   27  H   UNL     1      39.232  37.640  67.373  1.00  0.00     0.280 HD
HETATM   28  C   UNL     1      40.361  36.300  66.333  1.00  0.00     0.239 C 
HETATM   29  C   UNL     1      39.537  35.156  66.930  1.00  0.00     0.007 C 
HETATM   30  C   UNL     1      39.999  34.846  68.360  1.00  0.00     0.007 C 
HETATM   31  C   UNL     1      39.636  33.912  66.049  1.00  0.00     0.011 C 
HETATM   32  C   UNL     1      39.989  36.097  69.236  1.00  0.00     0.028 C 
HETATM   33  C   UNL     1      40.784  37.239  68.610  1.00  0.00     0.235 C 
ENDBRANCH  25  26
ENDBRANCH  23  25
ENDBRANCH   3  23
TORSDOF 6
ENDMDL
MODEL 9
REMARK VINA RESULT:      -8.4      2.592     10.305
REMARK  6 active torsions:
REMARK  status: ('A' for Active; 'I' for Inactive)
REMARK    1  A    between atoms: C_3  and  N_4 
REMARK       I    between atoms: N_4  and  C_5 
REMARK    2  A    between atoms: C_5  and  C_6 
REMARK    3  A    between atoms: C_14  and  N_15 
REMARK       I    between atoms: N_15  and  C_16 
REMARK       I    between atoms: C_16  and  N_17 
REMARK    4  A    between atoms: N_17  and  C_18 
REMARK    5  A    between atoms: C_18  and  C_19 
REMARK    6  A    between atoms: C_19  and  N_20 
ROOT
HETATM    1  N   UNL     1      24.745  46.999  49.149  1.00  0.00    -0.309 N 
HETATM    2  C   UNL     1      25.130  45.876  49.811  1.00  0.00     0.321 C 
HETATM    3  N   UNL     1      24.300  45.406  50.789  1.00  0.00    -0.337 N 
HETATM    4  O   UNL     1      26.199  45.333  49.551  1.00  0.00    -0.247 OA
HETATM    5  H   UNL     1      25.514  47.413  48.631  1.00  0.00     0.170 HD
HETATM    6  H   UNL     1      23.797  46.175  51.222  1.00  0.00     0.164 HD
ENDROOT
BRANCH   1   7
HETATM    7  C   UNL     1      23.513  47.676  49.074  1.00  0.00     0.036 A 
HETATM    8  C   UNL     1      22.322  47.085  48.667  1.00  0.00     0.032 A 
HETATM    9  C   UNL     1      21.135  47.827  48.634  1.00  0.00     0.032 A 
HETATM   10  C   UNL     1      21.111  49.176  49.000  1.00  0.00     0.041 A 
HETATM   11  C   UNL     1      22.320  49.796  49.372  1.00  0.00    -0.033 A 
HETATM   12  C   UNL     1      22.393  51.250  49.760  1.00  0.00     0.050 C 
HETATM   13  C   UNL     1      23.509  49.038  49.392  1.00  0.00     0.038 A 
BRANCH  10  14
HETATM   14  N   UNL     1      19.919  49.929  49.032  1.00  0.00    -0.321 N 
HETATM   15  C   UNL     1      18.895  49.895  49.966  1.00  0.00     0.279 C 
HETATM   16  O   UNL     1      18.820  49.113  50.908  1.00  0.00    -0.265 OA
HETATM   17  H   UNL     1      19.769  50.605  48.290  1.00  0.00     0.169 HD
BRANCH  15  18
HETATM   18  C   UNL     1      17.882  50.903  49.714  1.00  0.00     0.142 A 
HETATM   19  O   UNL     1      16.688  50.528  49.147  1.00  0.00    -0.317 OA
HETATM   20  C   UNL     1      15.946  51.656  48.996  1.00  0.00     0.143 A 
HETATM   21  C   UNL     1      16.630  52.751  49.466  1.00  0.00     0.027 A 
HETATM   22  C   UNL     1      17.877  52.267  49.931  1.00  0.00     0.045 A 
ENDBRANCH  15  18
ENDBRANCH  10  14
ENDBRANCH   1   7
BRANCH   3  23
HETATM   23  C   UNL     1      24.763  44.380  51.724  1.00  0.00     0.108 C 
HETATM   24  C   UNL     1      24.445  42.993  51.167  1.00  0.00     0.034 C 
BRANCH  23  25
HETATM   25  C   UNL     1      26.230  44.518  52.231  1.00  0.00     0.259 C 
BRANCH  25  26
HETATM   26  N   UNL     1      26.517  45.464  53.387  1.00  0.00    -0.069 N 
HETATM   27  H   UNL     1      25.831  45.159  54.091  1.00  0.00     0.280 HD
HETATM   28  C   UNL     1      27.861  45.323  54.045  1.00  0.00     0.239 C 
HETATM   29  C   UNL     1      27.826  46.030  55.403  1.00  0.00     0.007 C 
HETATM   30  C   UNL     1      27.432  47.504  55.235  1.00  0.00     0.007 C 
HETATM   31  C   UNL     1      29.179  45.909  56.102  1.00  0.00     0.011 C 
HETATM   32  C   UNL     1      26.123  47.650  54.462  1.00  0.00     0.028 C 
HETATM   33  C   UNL     1      26.162  46.910  53.128  1.00  0.00     0.235 C 
ENDBRANCH  25  26
ENDBRANCH  23  25
ENDBRANCH   3  23
TORSDOF 6
ENDMDL
MODEL 10
REMARK VINA RESULT:      -8.2      8.099     14.235
REMARK  6 active torsions:
REMARK  status: ('A' for Active; 'I' for Inactive)
REMARK    1  A    between atoms: C_3  and  N_4 
REMARK       I    between atoms: N_4  and  C_5 
REMARK    2  A    between atoms: C_5  and  C_6 
REMARK    3  A    between atoms: C_14  and  N_15 
REMARK       I    between atoms: N_15  and  C_16 
REMARK       I    between atoms: C_16  and  N_17 
REMARK    4  A    between atoms: N_17  and  C_18 
REMARK    5  A    between atoms: C_18  and  C_19 
REMARK    6  A    between atoms: C_19  and  N_20 
ROOT
HETATM    1  N   UNL     1      14.758  53.789  49.065  1.00  0.00    -0.309 N 
HETATM    2  C   UNL     1      15.629  52.815  48.691  1.00  0.00     0.321 C 
HETATM    3  N   UNL     1      16.840  52.777  49.322  1.00  0.00    -0.337 N 
HETATM    4  O   UNL     1      15.338  52.025  47.798  1.00  0.00    -0.247 OA
HETATM    5  H   UNL     1      14.006  53.900  48.391  1.00  0.00     0.170 HD
HETATM    6  H   UNL     1      17.121  53.713  49.599  1.00  0.00     0.164 HD
ENDROOT
BRANCH   1   7
HETATM    7  C   UNL     1      14.727  54.653  50.175  1.00  0.00     0.036 A 
HETATM    8  C   UNL     1      14.429  54.247  51.472  1.00  0.00     0.032 A 
HETATM    9  C   UNL     1      14.433  55.170  52.524  1.00  0.00     0.032 A 
HETATM   10  C   UNL     1      14.729  56.519  52.307  1.00  0.00     0.041 A 
HETATM   11  C   UNL     1      14.990  56.949  50.991  1.00  0.00    -0.033 A 
HETATM   12  C   UNL     1      15.297  58.386  50.660  1.00  0.00     0.050 C 
HETATM   13  C   UNL     1      14.973  56.010  49.940  1.00  0.00     0.038 A 
BRANCH  10  14
HETATM   14  N   UNL     1      14.798  57.456  53.359  1.00  0.00    -0.321 N 
HETATM   15  C   UNL     1      15.673  57.493  54.433  1.00  0.00     0.279 C 
HETATM   16  O   UNL     1      16.509  56.634  54.697  1.00  0.00    -0.265 OA
HETATM   17  H   UNL     1      14.138  58.227  53.347  1.00  0.00     0.169 HD
BRANCH  15  18
HETATM   18  C   UNL     1      15.501  58.681  55.248  1.00  0.00     0.142 A 
HETATM   19  O   UNL     1      14.303  58.889  55.888  1.00  0.00    -0.317 OA
HETATM   20  C   UNL     1      14.402  60.073  56.546  1.00  0.00     0.143 A 
HETATM   21  C   UNL     1      15.644  60.630  56.355  1.00  0.00     0.027 A 
HETATM   22  C   UNL     1      16.353  59.734  55.520  1.00  0.00     0.045 A 
ENDBRANCH  15  18
ENDBRANCH  10  14
ENDBRANCH   1   7
BRANCH   3  23
HETATM   23  C   UNL     1      17.924  51.948  48.795  1.00  0.00     0.108 C 
HETATM   24  C   UNL     1      18.812  52.785  47.874  1.00  0.00     0.034 C 
BRANCH  23  25
HETATM   25  C   UNL     1      18.729  51.115  49.838  1.00  0.00     0.259 C 
BRANCH  25  26
HETATM   26  N   UNL     1      19.873  50.240  49.347  1.00  0.00    -0.069 N 
HETATM   27  H   UNL     1      19.732  50.252  48.328  1.00  0.00     0.280 HD
HETATM   28  C   UNL     1      21.260  50.773  49.570  1.00  0.00     0.239 C 
HETATM   29  C   UNL     1      22.237  50.003  48.677  1.00  0.00     0.007 C 
HETATM   30  C   UNL     1      22.158  48.496  48.962  1.00  0.00     0.007 C 
HETATM   31  C   UNL     1      23.662  50.516  48.878  1.00  0.00     0.011 C 
HETATM   32  C   UNL     1      20.725  47.979  48.850  1.00  0.00     0.028 C 
HETATM   33  C   UNL     1      19.760  48.780  49.719  1.00  0.00     0.235 C 
ENDBRANCH  25  26
ENDBRANCH  23  25
ENDBRANCH   3  23
TORSDOF 6
ENDMDL
