MODEL 1
REMARK VINA RESULT:      -8.8      0.000      0.000
REMARK  9 active torsions:
REMARK  status: ('A' for Active; 'I' for Inactive)
REMARK    1  A    between atoms: C_6  and  S_7 
REMARK    2  A    between atoms: S_7  and  C_8 
REMARK    3  A    between atoms: C_8  and  C_9 
REMARK       I    between atoms: C_9  and  N_10 
REMARK    4  A    between atoms: N_10  and  N_11 
REMARK    5  A    between atoms: N_11  and  C_12 
REMARK    6  A    between atoms: C_12  and  N_13 
REMARK    7  A    between atoms: N_13  and  C_14 
REMARK    8  A    between atoms: C_17  and  O_18 
REMARK    9  A    between atoms: O_18  and  C_19 
ROOT
HETATM    1  C   UNL     1      24.694  46.762  50.809  1.00  0.00     0.245 C 
HETATM    2  N   UNL     1      24.414  45.444  51.149  1.00  0.00    -0.267 N 
HETATM    3  O   UNL     1      25.429  47.504  51.461  1.00  0.00    -0.271 OA
HETATM    4  H   UNL     1      24.205  44.808  50.380  1.00  0.00     0.190 HD
ENDROOT
BRANCH   2   5
HETATM    5  N   UNL     1      25.148  44.880  52.200  1.00  0.00    -0.274 N 
HETATM    6  H   UNL     1      24.897  45.189  53.131  1.00  0.00     0.189 HD
BRANCH   5   7
HETATM    7  C   UNL     1      26.134  43.949  51.999  1.00  0.00     0.191 C 
HETATM    8  S   UNL     1      26.858  43.614  50.523  1.00  0.00    -0.039 SA
BRANCH   7   9
HETATM    9  N   UNL     1      26.640  43.322  53.107  1.00  0.00    -0.332 N 
HETATM   10  H   UNL     1      26.111  42.495  53.364  1.00  0.00     0.168 HD
BRANCH   9  11
HETATM   11  C   UNL     1      27.741  43.638  53.924  1.00  0.00     0.034 A 
HETATM   12  C   UNL     1      27.859  44.826  54.644  1.00  0.00     0.032 A 
HETATM   13  C   UNL     1      29.010  45.084  55.396  1.00  0.00     0.039 A 
HETATM   14  C   UNL     1      30.043  44.148  55.467  1.00  0.00     0.075 A 
HETATM   15  C   UNL     1      29.902  42.933  54.797  1.00  0.00     0.039 A 
HETATM   16  C   UNL     1      28.749  42.676  54.043  1.00  0.00     0.032 A 
BRANCH  14  17
HETATM   17  O   UNL     1      31.119  44.544  56.209  1.00  0.00    -0.290 OA
BRANCH  17  18
HETATM   18  C   UNL     1      31.410  43.792  57.375  1.00  0.00     0.505 C 
HETATM   19  F   UNL     1      32.482  42.996  57.142  1.00  0.00    -0.184 F 
HETATM   20  F   UNL     1      31.782  44.671  58.339  1.00  0.00    -0.184 F 
ENDBRANCH  17  18
ENDBRANCH  14  17
ENDBRANCH   9  11
ENDBRANCH   7   9
ENDBRANCH   5   7
ENDBRANCH   2   5
BRANCH   1  21
HETATM   21  C   UNL     1      24.010  47.200  49.524  1.00  0.00     0.187 C 
BRANCH  21  22
HETATM   22  S   UNL     1      24.568  48.851  49.019  1.00  0.00    -0.083 SA
BRANCH  22  23
HETATM   23  C   UNL     1      23.068  49.696  48.956  1.00  0.00     0.168 A 
HETATM   24  N   UNL     1      22.456  50.320  49.935  1.00  0.00    -0.223 NA
HETATM   25  C   UNL     1      21.272  50.750  49.377  1.00  0.00     0.086 A 
HETATM   26  C   UNL     1      21.183  50.380  48.036  1.00  0.00     0.063 A 
HETATM   27  C   UNL     1      20.210  51.456  49.961  1.00  0.00     0.034 A 
HETATM   28  C   UNL     1      20.083  50.673  47.228  1.00  0.00     0.032 A 
HETATM   29  N   UNL     1      22.358  49.717  47.794  1.00  0.00    -0.333 N 
HETATM   30  C   UNL     1      19.034  51.374  47.831  1.00  0.00     0.002 A 
HETATM   31  C   UNL     1      19.092  51.761  49.172  1.00  0.00     0.002 A 
HETATM   32  H   UNL     1      22.643  49.285  46.927  1.00  0.00     0.168 HD
ENDBRANCH  22  23
ENDBRANCH  21  22
ENDBRANCH   1  21
TORSDOF 9
ENDMDL
MODEL 2
REMARK VINA RESULT:      -8.6      5.880     12.124
REMARK  9 active torsions:
REMARK  status: ('A' for Active; 'I' for Inactive)
REMARK    1  A    between atoms: C_6  and  S_7 
REMARK    2  A    between atoms: S_7  and  C_8 
REMARK    3  A    between atoms: C_8  and  C_9 
REMARK       I    between atoms: C_9  and  N_10 
REMARK    4  A    between atoms: N_10  and  N_11 
REMARK    5  A    between atoms: N_11  and  C_12 
REMARK    6  A    between atoms: C_12  and  N_13 
REMARK    7  A    between atoms: N_13  and  C_14 
REMARK    8  A    between atoms: C_17  and  O_18 
REMARK    9  A    between atoms: O_18  and  C_19 
ROOT
HETATM    1  C   UNL     1      25.360  47.460  51.104  1.00  0.00     0.245 C 
HETATM    2  N   UNL     1      24.072  47.402  50.587  1.00  0.00    -0.267 N 
HETATM    3  O   UNL     1      26.297  48.049  50.564  1.00  0.00    -0.271 OA
HETATM    4  H   UNL     1      23.312  47.315  51.261  1.00  0.00     0.190 HD
ENDROOT
BRANCH   2   5
HETATM    5  N   UNL     1      23.786  48.205  49.475  1.00  0.00    -0.274 N 
HETATM    6  H   UNL     1      24.582  48.482  48.913  1.00  0.00     0.189 HD
BRANCH   5   7
HETATM    7  C   UNL     1      22.511  48.584  49.143  1.00  0.00     0.191 C 
HETATM    8  S   UNL     1      21.511  47.767  48.072  1.00  0.00    -0.039 SA
BRANCH   7   9
HETATM    9  N   UNL     1      21.978  49.648  49.819  1.00  0.00    -0.332 N 
HETATM   10  H   UNL     1      22.562  49.955  50.590  1.00  0.00     0.168 HD
BRANCH   9  11
HETATM   11  C   UNL     1      20.780  50.360  49.623  1.00  0.00     0.034 A 
HETATM   12  C   UNL     1      19.591  50.081  50.297  1.00  0.00     0.032 A 
HETATM   13  C   UNL     1      18.430  50.806  50.008  1.00  0.00     0.039 A 
HETATM   14  C   UNL     1      18.446  51.839  49.069  1.00  0.00     0.075 A 
HETATM   15  C   UNL     1      19.647  52.161  48.438  1.00  0.00     0.039 A 
HETATM   16  C   UNL     1      20.809  51.433  48.726  1.00  0.00     0.032 A 
BRANCH  14  17
HETATM   17  O   UNL     1      17.236  52.439  48.863  1.00  0.00    -0.290 OA
BRANCH  17  18
HETATM   18  C   UNL     1      16.465  52.745  50.012  1.00  0.00     0.505 C 
HETATM   19  F   UNL     1      16.152  54.065  50.006  1.00  0.00    -0.184 F 
HETATM   20  F   UNL     1      15.293  52.070  49.904  1.00  0.00    -0.184 F 
ENDBRANCH  17  18
ENDBRANCH  14  17
ENDBRANCH   9  11
ENDBRANCH   7   9
ENDBRANCH   5   7
ENDBRANCH   2   5
BRANCH   1  21
HETATM   21  C   UNL     1      25.499  46.732  52.430  1.00  0.00     0.187 C 
BRANCH  21  22
HETATM   22  S   UNL     1      25.995  45.005  52.176  1.00  0.00    -0.083 SA
BRANCH  22  23
HETATM   23  C   UNL     1      27.258  44.854  53.339  1.00  0.00     0.168 A 
HETATM   24  N   UNL     1      27.552  45.679  54.315  1.00  0.00    -0.223 NA
HETATM   25  C   UNL     1      28.682  45.138  54.890  1.00  0.00     0.086 A 
HETATM   26  C   UNL     1      29.060  43.962  54.245  1.00  0.00     0.063 A 
HETATM   27  C   UNL     1      29.452  45.604  55.965  1.00  0.00     0.034 A 
HETATM   28  C   UNL     1      30.178  43.210  54.609  1.00  0.00     0.032 A 
HETATM   29  N   UNL     1      28.117  43.800  53.263  1.00  0.00    -0.333 N 
HETATM   30  C   UNL     1      30.935  43.694  55.681  1.00  0.00     0.002 A 
HETATM   31  C   UNL     1      30.582  44.869  56.350  1.00  0.00     0.002 A 
HETATM   32  H   UNL     1      28.076  43.061  52.578  1.00  0.00     0.168 HD
ENDBRANCH  22  23
ENDBRANCH  21  22
ENDBRANCH   1  21
TORSDOF 9
ENDMDL
MODEL 3
REMARK VINA RESULT:      -8.6      2.573      3.195
REMARK  9 active torsions:
REMARK  status: ('A' for Active; 'I' for Inactive)
REMARK    1  A    between atoms: C_6  and  S_7 
REMARK    2  A    between atoms: S_7  and  C_8 
REMARK    3  A    between atoms: C_8  and  C_9 
REMARK       I    between atoms: C_9  and  N_10 
REMARK    4  A    between atoms: N_10  and  N_11 
REMARK    5  A    between atoms: N_11  and  C_12 
REMARK    6  A    between atoms: C_12  and  N_13 
REMARK    7  A    between atoms: N_13  and  C_14 
REMARK    8  A    between atoms: C_17  and  O_18 
REMARK    9  A    between atoms: O_18  and  C_19 
ROOT
HETATM    1  C   UNL     1      24.850  43.506  50.565  1.00  0.00     0.245 C 
HETATM    2  N   UNL     1      25.575  42.419  50.091  1.00  0.00    -0.267 N 
HETATM    3  O   UNL     1      24.257  43.524  51.644  1.00  0.00    -0.271 OA
HETATM    4  H   UNL     1      26.360  42.627  49.474  1.00  0.00     0.190 HD
ENDROOT
BRANCH   2   5
HETATM    5  N   UNL     1      25.784  41.350  50.971  1.00  0.00    -0.274 N 
HETATM    6  H   UNL     1      24.950  40.933  51.367  1.00  0.00     0.189 HD
BRANCH   5   7
HETATM    7  C   UNL     1      27.033  40.870  51.271  1.00  0.00     0.191 C 
HETATM    8  S   UNL     1      28.129  40.268  50.153  1.00  0.00    -0.039 SA
BRANCH   7   9
HETATM    9  N   UNL     1      27.456  40.993  52.568  1.00  0.00    -0.332 N 
HETATM   10  H   UNL     1      27.432  40.112  53.072  1.00  0.00     0.168 HD
BRANCH   9  11
HETATM   11  C   UNL     1      27.900  42.115  53.292  1.00  0.00     0.034 A 
HETATM   12  C   UNL     1      27.050  43.093  53.808  1.00  0.00     0.032 A 
HETATM   13  C   UNL     1      27.576  44.204  54.475  1.00  0.00     0.039 A 
HETATM   14  C   UNL     1      28.953  44.338  54.666  1.00  0.00     0.075 A 
HETATM   15  C   UNL     1      29.801  43.332  54.205  1.00  0.00     0.039 A 
HETATM   16  C   UNL     1      29.273  42.220  53.535  1.00  0.00     0.032 A 
BRANCH  14  17
HETATM   17  O   UNL     1      29.328  45.486  55.304  1.00  0.00    -0.290 OA
BRANCH  17  18
HETATM   18  C   UNL     1      28.323  46.461  55.521  1.00  0.00     0.505 C 
HETATM   19  F   UNL     1      28.275  46.772  56.841  1.00  0.00    -0.184 F 
HETATM   20  F   UNL     1      28.708  47.589  54.873  1.00  0.00    -0.184 F 
ENDBRANCH  17  18
ENDBRANCH  14  17
ENDBRANCH   9  11
ENDBRANCH   7   9
ENDBRANCH   5   7
ENDBRANCH   2   5
BRANCH   1  21
HETATM   21  C   UNL     1      24.875  44.693  49.617  1.00  0.00     0.187 C 
BRANCH  21  22
HETATM   22  S   UNL     1      25.596  46.152  50.419  1.00  0.00    -0.083 SA
BRANCH  22  23
HETATM   23  C   UNL     1      24.600  47.402  49.777  1.00  0.00     0.168 A 
HETATM   24  N   UNL     1      24.937  48.644  49.519  1.00  0.00    -0.223 NA
HETATM   25  C   UNL     1      23.764  49.235  49.101  1.00  0.00     0.086 A 
HETATM   26  C   UNL     1      22.711  48.322  49.103  1.00  0.00     0.063 A 
HETATM   27  C   UNL     1      23.516  50.559  48.712  1.00  0.00     0.034 A 
HETATM   28  C   UNL     1      21.405  48.652  48.739  1.00  0.00     0.032 A 
HETATM   29  N   UNL     1      23.284  47.151  49.529  1.00  0.00    -0.333 N 
HETATM   30  C   UNL     1      21.179  49.979  48.358  1.00  0.00     0.002 A 
HETATM   31  C   UNL     1      22.212  50.918  48.343  1.00  0.00     0.002 A 
HETATM   32  H   UNL     1      22.821  46.267  49.673  1.00  0.00     0.168 HD
ENDBRANCH  22  23
ENDBRANCH  21  22
ENDBRANCH   1  21
TORSDOF 9
ENDMDL
MODEL 4
REMARK VINA RESULT:      -8.4      5.730     11.847
REMARK  9 active torsions:
REMARK  status: ('A' for Active; 'I' for Inactive)
REMARK    1  A    between atoms: C_6  and  S_7 
REMARK    2  A    between atoms: S_7  and  C_8 
REMARK    3  A    between atoms: C_8  and  C_9 
REMARK       I    between atoms: C_9  and  N_10 
REMARK    4  A    between atoms: N_10  and  N_11 
REMARK    5  A    between atoms: N_11  and  C_12 
REMARK    6  A    between atoms: C_12  and  N_13 
REMARK    7  A    between atoms: N_13  and  C_14 
REMARK    8  A    between atoms: C_17  and  O_18 
REMARK    9  A    between atoms: O_18  and  C_19 
ROOT
HETATM    1  C   UNL     1      25.392  46.878  50.631  1.00  0.00     0.245 C 
HETATM    2  N   UNL     1      24.121  46.976  50.077  1.00  0.00    -0.267 N 
HETATM    3  O   UNL     1      26.050  47.840  51.027  1.00  0.00    -0.271 OA
HETATM    4  H   UNL     1      23.504  46.174  50.204  1.00  0.00     0.190 HD
ENDROOT
BRANCH   2   5
HETATM    5  N   UNL     1      23.487  48.224  50.134  1.00  0.00    -0.274 N 
HETATM    6  H   UNL     1      23.179  48.522  51.052  1.00  0.00     0.189 HD
BRANCH   5   7
HETATM    7  C   UNL     1      23.308  49.015  49.029  1.00  0.00     0.191 C 
HETATM    8  S   UNL     1      24.528  49.840  48.226  1.00  0.00    -0.039 SA
BRANCH   7   9
HETATM    9  N   UNL     1      22.055  49.046  48.477  1.00  0.00    -0.332 N 
HETATM   10  H   UNL     1      21.991  48.502  47.623  1.00  0.00     0.168 HD
BRANCH   9  11
HETATM   11  C   UNL     1      20.879  49.698  48.892  1.00  0.00     0.034 A 
HETATM   12  C   UNL     1      20.601  51.039  48.631  1.00  0.00     0.032 A 
HETATM   13  C   UNL     1      19.429  51.624  49.123  1.00  0.00     0.039 A 
HETATM   14  C   UNL     1      18.505  50.873  49.852  1.00  0.00     0.075 A 
HETATM   15  C   UNL     1      18.751  49.517  50.062  1.00  0.00     0.039 A 
HETATM   16  C   UNL     1      19.926  48.932  49.571  1.00  0.00     0.032 A 
BRANCH  14  17
HETATM   17  O   UNL     1      17.423  51.579  50.297  1.00  0.00    -0.290 OA
BRANCH  17  18
HETATM   18  C   UNL     1      16.531  52.078  49.315  1.00  0.00     0.505 C 
HETATM   19  F   UNL     1      16.125  51.060  48.516  1.00  0.00    -0.184 F 
HETATM   20  F   UNL     1      15.426  52.525  49.963  1.00  0.00    -0.184 F 
ENDBRANCH  17  18
ENDBRANCH  14  17
ENDBRANCH   9  11
ENDBRANCH   7   9
ENDBRANCH   5   7
ENDBRANCH   2   5
BRANCH   1  21
HETATM   21  C   UNL     1      25.891  45.445  50.718  1.00  0.00     0.187 C 
BRANCH  21  22
HETATM   22  S   UNL     1      25.323  44.650  52.247  1.00  0.00    -0.083 SA
BRANCH  22  23
HETATM   23  C   UNL     1      26.823  44.383  53.052  1.00  0.00     0.168 A 
HETATM   24  N   UNL     1      27.639  43.366  52.911  1.00  0.00    -0.223 NA
HETATM   25  C   UNL     1      28.638  43.601  53.831  1.00  0.00     0.086 A 
HETATM   26  C   UNL     1      28.413  44.788  54.525  1.00  0.00     0.063 A 
HETATM   27  C   UNL     1      29.770  42.834  54.140  1.00  0.00     0.034 A 
HETATM   28  C   UNL     1      29.260  45.265  55.527  1.00  0.00     0.032 A 
HETATM   29  N   UNL     1      27.248  45.273  53.992  1.00  0.00    -0.333 N 
HETATM   30  C   UNL     1      30.381  44.483  55.823  1.00  0.00     0.002 A 
HETATM   31  C   UNL     1      30.636  43.289  55.144  1.00  0.00     0.002 A 
HETATM   32  H   UNL     1      26.761  46.114  54.262  1.00  0.00     0.168 HD
ENDBRANCH  22  23
ENDBRANCH  21  22
ENDBRANCH   1  21
TORSDOF 9
ENDMDL
MODEL 5
REMARK VINA RESULT:      -8.2     12.771     14.554
REMARK  9 active torsions:
REMARK  status: ('A' for Active; 'I' for Inactive)
REMARK    1  A    between atoms: C_6  and  S_7 
REMARK    2  A    between atoms: S_7  and  C_8 
REMARK    3  A    between atoms: C_8  and  C_9 
REMARK       I    between atoms: C_9  and  N_10 
REMARK    4  A    between atoms: N_10  and  N_11 
REMARK    5  A    between atoms: N_11  and  C_12 
REMARK    6  A    between atoms: C_12  and  N_13 
REMARK    7  A    between atoms: N_13  and  C_14 
REMARK    8  A    between atoms: C_17  and  O_18 
REMARK    9  A    between atoms: O_18  and  C_19 
ROOT
HETATM    1  C   UNL     1      27.623  51.276  41.258  1.00  0.00     0.245 C 
HETATM    2  N   UNL     1      26.640  51.213  40.277  1.00  0.00    -0.267 N 
HETATM    3  O   UNL     1      27.932  50.336  41.990  1.00  0.00    -0.271 OA
HETATM    4  H   UNL     1      26.762  51.822  39.468  1.00  0.00     0.190 HD
ENDROOT
BRANCH   2   5
HETATM    5  N   UNL     1      26.094  49.955  39.993  1.00  0.00    -0.274 N 
HETATM    6  H   UNL     1      25.604  49.503  40.756  1.00  0.00     0.189 HD
BRANCH   5   7
HETATM    7  C   UNL     1      26.188  49.369  38.757  1.00  0.00     0.191 C 
HETATM    8  S   UNL     1      24.886  48.955  37.784  1.00  0.00    -0.039 SA
BRANCH   7   9
HETATM    9  N   UNL     1      27.443  49.208  38.235  1.00  0.00    -0.332 N 
HETATM   10  H   UNL     1      27.504  49.501  37.265  1.00  0.00     0.168 HD
BRANCH   9  11
HETATM   11  C   UNL     1      28.627  48.710  38.811  1.00  0.00     0.034 A 
HETATM   12  C   UNL     1      29.863  49.349  38.721  1.00  0.00     0.032 A 
HETATM   13  C   UNL     1      31.003  48.762  39.281  1.00  0.00     0.039 A 
HETATM   14  C   UNL     1      30.919  47.548  39.966  1.00  0.00     0.075 A 
HETATM   15  C   UNL     1      29.674  46.937  40.111  1.00  0.00     0.039 A 
HETATM   16  C   UNL     1      28.534  47.525  39.547  1.00  0.00     0.032 A 
BRANCH  14  17
HETATM   17  O   UNL     1      32.113  47.076  40.433  1.00  0.00    -0.290 OA
BRANCH  17  18
HETATM   18  C   UNL     1      32.773  47.853  41.417  1.00  0.00     0.505 C 
HETATM   19  F   UNL     1      31.875  48.258  42.349  1.00  0.00    -0.184 F 
HETATM   20  F   UNL     1      33.650  47.037  42.055  1.00  0.00    -0.184 F 
ENDBRANCH  17  18
ENDBRANCH  14  17
ENDBRANCH   9  11
ENDBRANCH   7   9
ENDBRANCH   5   7
ENDBRANCH   2   5
BRANCH   1  21
HETATM   21  C   UNL     1      28.302  52.634  41.328  1.00  0.00     0.187 C 
BRANCH  21  22
HETATM   22  S   UNL     1      29.262  52.960  39.824  1.00  0.00    -0.083 SA
BRANCH  22  23
HETATM   23  C   UNL     1      30.835  52.469  40.328  1.00  0.00     0.168 A 
HETATM   24  N   UNL     1      31.887  52.250  39.576  1.00  0.00    -0.223 NA
HETATM   25  C   UNL     1      32.850  51.808  40.457  1.00  0.00     0.086 A 
HETATM   26  C   UNL     1      32.360  51.773  41.762  1.00  0.00     0.063 A 
HETATM   27  C   UNL     1      34.170  51.404  40.214  1.00  0.00     0.034 A 
HETATM   28  C   UNL     1      33.116  51.351  42.857  1.00  0.00     0.032 A 
HETATM   29  N   UNL     1      31.068  52.217  41.646  1.00  0.00    -0.333 N 
HETATM   30  C   UNL     1      34.429  50.948  42.592  1.00  0.00     0.002 A 
HETATM   31  C   UNL     1      34.951  50.973  41.296  1.00  0.00     0.002 A 
HETATM   32  H   UNL     1      30.391  52.309  42.388  1.00  0.00     0.168 HD
ENDBRANCH  22  23
ENDBRANCH  21  22
ENDBRANCH   1  21
TORSDOF 9
ENDMDL
MODEL 6
REMARK VINA RESULT:      -8.2      5.371     10.845
REMARK  9 active torsions:
REMARK  status: ('A' for Active; 'I' for Inactive)
REMARK    1  A    between atoms: C_6  and  S_7 
REMARK    2  A    between atoms: S_7  and  C_8 
REMARK    3  A    between atoms: C_8  and  C_9 
REMARK       I    between atoms: C_9  and  N_10 
REMARK    4  A    between atoms: N_10  and  N_11 
REMARK    5  A    between atoms: N_11  and  C_12 
REMARK    6  A    between atoms: C_12  and  N_13 
REMARK    7  A    between atoms: N_13  and  C_14 
REMARK    8  A    between atoms: C_17  and  O_18 
REMARK    9  A    between atoms: O_18  and  C_19 
ROOT
HETATM    1  C   UNL     1      24.945  45.493  49.555  1.00  0.00     0.245 C 
HETATM    2  N   UNL     1      25.796  46.458  50.081  1.00  0.00    -0.267 N 
HETATM    3  O   UNL     1      23.789  45.711  49.196  1.00  0.00    -0.271 OA
HETATM    4  H   UNL     1      26.794  46.324  49.922  1.00  0.00     0.190 HD
ENDROOT
BRANCH   2   5
HETATM    5  N   UNL     1      25.364  47.790  50.036  1.00  0.00    -0.274 N 
HETATM    6  H   UNL     1      24.612  48.033  50.669  1.00  0.00     0.189 HD
BRANCH   5   7
HETATM    7  C   UNL     1      25.930  48.724  49.207  1.00  0.00     0.191 C 
HETATM    8  S   UNL     1      27.570  49.061  49.112  1.00  0.00    -0.039 SA
BRANCH   7   9
HETATM    9  N   UNL     1      25.103  49.352  48.314  1.00  0.00    -0.332 N 
HETATM   10  H   UNL     1      25.571  49.584  47.445  1.00  0.00     0.168 HD
BRANCH   9  11
HETATM   11  C   UNL     1      23.748  49.721  48.412  1.00  0.00     0.034 A 
HETATM   12  C   UNL     1      23.310  50.940  48.927  1.00  0.00     0.032 A 
HETATM   13  C   UNL     1      21.942  51.209  49.034  1.00  0.00     0.039 A 
HETATM   14  C   UNL     1      20.993  50.281  48.600  1.00  0.00     0.075 A 
HETATM   15  C   UNL     1      21.429  49.086  48.029  1.00  0.00     0.039 A 
HETATM   16  C   UNL     1      22.800  48.817  47.924  1.00  0.00     0.032 A 
BRANCH  14  17
HETATM   17  O   UNL     1      19.696  50.661  48.795  1.00  0.00    -0.290 OA
BRANCH  17  18
HETATM   18  C   UNL     1      19.474  51.974  49.279  1.00  0.00     0.505 C 
HETATM   19  F   UNL     1      19.078  52.771  48.255  1.00  0.00    -0.184 F 
HETATM   20  F   UNL     1      18.434  51.914  50.147  1.00  0.00    -0.184 F 
ENDBRANCH  17  18
ENDBRANCH  14  17
ENDBRANCH   9  11
ENDBRANCH   7   9
ENDBRANCH   5   7
ENDBRANCH   2   5
BRANCH   1  21
HETATM   21  C   UNL     1      25.598  44.124  49.449  1.00  0.00     0.187 C 
BRANCH  21  22
HETATM   22  S   UNL     1      25.012  43.019  50.763  1.00  0.00    -0.083 SA
BRANCH  22  23
HETATM   23  C   UNL     1      26.220  43.275  51.966  1.00  0.00     0.168 A 
HETATM   24  N   UNL     1      26.534  44.401  52.561  1.00  0.00    -0.223 NA
HETATM   25  C   UNL     1      27.603  44.074  53.366  1.00  0.00     0.086 A 
HETATM   26  C   UNL     1      27.924  42.722  53.252  1.00  0.00     0.063 A 
HETATM   27  C   UNL     1      28.365  44.885  54.219  1.00  0.00     0.034 A 
HETATM   28  C   UNL     1      28.976  42.120  53.944  1.00  0.00     0.032 A 
HETATM   29  N   UNL     1      27.008  42.235  52.356  1.00  0.00    -0.333 N 
HETATM   30  C   UNL     1      29.725  42.947  54.787  1.00  0.00     0.002 A 
HETATM   31  C   UNL     1      29.428  44.305  54.925  1.00  0.00     0.002 A 
HETATM   32  H   UNL     1      26.942  41.289  52.010  1.00  0.00     0.168 HD
ENDBRANCH  22  23
ENDBRANCH  21  22
ENDBRANCH   1  21
TORSDOF 9
ENDMDL
MODEL 7
REMARK VINA RESULT:      -8.0      5.850     11.207
REMARK  9 active torsions:
REMARK  status: ('A' for Active; 'I' for Inactive)
REMARK    1  A    between atoms: C_6  and  S_7 
REMARK    2  A    between atoms: S_7  and  C_8 
REMARK    3  A    between atoms: C_8  and  C_9 
REMARK       I    between atoms: C_9  and  N_10 
REMARK    4  A    between atoms: N_10  and  N_11 
REMARK    5  A    between atoms: N_11  and  C_12 
REMARK    6  A    between atoms: C_12  and  N_13 
REMARK    7  A    between atoms: N_13  and  C_14 
REMARK    8  A    between atoms: C_17  and  O_18 
REMARK    9  A    between atoms: O_18  and  C_19 
ROOT
HETATM    1  C   UNL     1      23.253  43.297  50.110  1.00  0.00     0.245 C 
HETATM    2  N   UNL     1      22.779  44.603  50.161  1.00  0.00    -0.267 N 
HETATM    3  O   UNL     1      22.695  42.382  49.506  1.00  0.00    -0.271 OA
HETATM    4  H   UNL     1      23.476  45.339  50.266  1.00  0.00     0.190 HD
ENDROOT
BRANCH   2   5
HETATM    5  N   UNL     1      21.697  44.928  49.333  1.00  0.00    -0.274 N 
HETATM    6  H   UNL     1      20.851  44.391  49.479  1.00  0.00     0.189 HD
BRANCH   5   7
HETATM    7  C   UNL     1      21.757  45.925  48.393  1.00  0.00     0.191 C 
HETATM    8  S   UNL     1      21.211  45.794  46.813  1.00  0.00    -0.039 SA
BRANCH   7   9
HETATM    9  N   UNL     1      22.197  47.153  48.810  1.00  0.00    -0.332 N 
HETATM   10  H   UNL     1      23.200  47.180  48.955  1.00  0.00     0.168 HD
BRANCH   9  11
HETATM   11  C   UNL     1      21.496  48.346  49.068  1.00  0.00     0.034 A 
HETATM   12  C   UNL     1      22.084  49.610  49.055  1.00  0.00     0.032 A 
HETATM   13  C   UNL     1      21.327  50.743  49.370  1.00  0.00     0.039 A 
HETATM   14  C   UNL     1      19.968  50.635  49.670  1.00  0.00     0.075 A 
HETATM   15  C   UNL     1      19.363  49.380  49.625  1.00  0.00     0.039 A 
HETATM   16  C   UNL     1      20.123  48.245  49.311  1.00  0.00     0.032 A 
BRANCH  14  17
HETATM   17  O   UNL     1      19.361  51.816  49.990  1.00  0.00    -0.290 OA
BRANCH  17  18
HETATM   18  C   UNL     1      18.374  52.298  49.094  1.00  0.00     0.505 C 
HETATM   19  F   UNL     1      17.587  53.199  49.732  1.00  0.00    -0.184 F 
HETATM   20  F   UNL     1      19.017  52.974  48.110  1.00  0.00    -0.184 F 
ENDBRANCH  17  18
ENDBRANCH  14  17
ENDBRANCH   9  11
ENDBRANCH   7   9
ENDBRANCH   5   7
ENDBRANCH   2   5
BRANCH   1  21
HETATM   21  C   UNL     1      24.557  43.112  50.869  1.00  0.00     0.187 C 
BRANCH  21  22
HETATM   22  S   UNL     1      25.685  44.501  50.575  1.00  0.00    -0.083 SA
BRANCH  22  23
HETATM   23  C   UNL     1      26.857  44.236  51.810  1.00  0.00     0.168 A 
HETATM   24  N   UNL     1      26.925  44.809  52.988  1.00  0.00    -0.223 NA
HETATM   25  C   UNL     1      28.081  44.306  53.546  1.00  0.00     0.086 A 
HETATM   26  C   UNL     1      28.707  43.410  52.682  1.00  0.00     0.063 A 
HETATM   27  C   UNL     1      28.670  44.580  54.788  1.00  0.00     0.034 A 
HETATM   28  C   UNL     1      29.905  42.760  52.983  1.00  0.00     0.032 A 
HETATM   29  N   UNL     1      27.889  43.376  51.583  1.00  0.00    -0.333 N 
HETATM   30  C   UNL     1      30.478  43.050  54.226  1.00  0.00     0.002 A 
HETATM   31  C   UNL     1      29.875  43.943  55.115  1.00  0.00     0.002 A 
HETATM   32  H   UNL     1      28.032  42.845  50.737  1.00  0.00     0.168 HD
ENDBRANCH  22  23
ENDBRANCH  21  22
ENDBRANCH   1  21
TORSDOF 9
ENDMDL
MODEL 8
REMARK VINA RESULT:      -8.0      2.674      3.431
REMARK  9 active torsions:
REMARK  status: ('A' for Active; 'I' for Inactive)
REMARK    1  A    between atoms: C_6  and  S_7 
REMARK    2  A    between atoms: S_7  and  C_8 
REMARK    3  A    between atoms: C_8  and  C_9 
REMARK       I    between atoms: C_9  and  N_10 
REMARK    4  A    between atoms: N_10  and  N_11 
REMARK    5  A    between atoms: N_11  and  C_12 
REMARK    6  A    between atoms: C_12  and  N_13 
REMARK    7  A    between atoms: N_13  and  C_14 
REMARK    8  A    between atoms: C_17  and  O_18 
REMARK    9  A    between atoms: O_18  and  C_19 
ROOT
HETATM    1  C   UNL     1      22.515  47.399  48.113  1.00  0.00     0.245 C 
HETATM    2  N   UNL     1      22.877  46.906  49.361  1.00  0.00    -0.267 N 
HETATM    3  O   UNL     1      22.853  48.500  47.679  1.00  0.00    -0.271 OA
HETATM    4  H   UNL     1      22.955  45.893  49.447  1.00  0.00     0.190 HD
ENDROOT
BRANCH   2   5
HETATM    5  N   UNL     1      23.824  47.635  50.091  1.00  0.00    -0.274 N 
HETATM    6  H   UNL     1      23.460  48.397  50.651  1.00  0.00     0.189 HD
BRANCH   5   7
HETATM    7  C   UNL     1      25.162  47.335  50.078  1.00  0.00     0.191 C 
HETATM    8  S   UNL     1      26.371  48.343  49.501  1.00  0.00    -0.039 SA
BRANCH   7   9
HETATM    9  N   UNL     1      25.547  46.167  50.682  1.00  0.00    -0.332 N 
HETATM   10  H   UNL     1      25.387  45.354  50.097  1.00  0.00     0.168 HD
BRANCH   9  11
HETATM   11  C   UNL     1      26.108  45.924  51.949  1.00  0.00     0.034 A 
HETATM   12  C   UNL     1      26.007  46.805  53.025  1.00  0.00     0.032 A 
HETATM   13  C   UNL     1      26.637  46.510  54.239  1.00  0.00     0.039 A 
HETATM   14  C   UNL     1      27.347  45.320  54.407  1.00  0.00     0.075 A 
HETATM   15  C   UNL     1      27.399  44.409  53.352  1.00  0.00     0.039 A 
HETATM   16  C   UNL     1      26.770  44.706  52.136  1.00  0.00     0.032 A 
BRANCH  14  17
HETATM   17  O   UNL     1      27.938  45.177  55.630  1.00  0.00    -0.290 OA
BRANCH  17  18
HETATM   18  C   UNL     1      28.524  46.334  56.202  1.00  0.00     0.505 C 
HETATM   19  F   UNL     1      28.685  46.146  57.535  1.00  0.00    -0.184 F 
HETATM   20  F   UNL     1      29.768  46.458  55.676  1.00  0.00    -0.184 F 
ENDBRANCH  17  18
ENDBRANCH  14  17
ENDBRANCH   9  11
ENDBRANCH   7   9
ENDBRANCH   5   7
ENDBRANCH   2   5
BRANCH   1  21
HETATM   21  C   UNL     1      21.662  46.425  47.316  1.00  0.00     0.187 C 
BRANCH  21  22
HETATM   22  S   UNL     1      19.992  46.301  48.013  1.00  0.00    -0.083 SA
BRANCH  22  23
HETATM   23  C   UNL     1      19.678  47.950  48.402  1.00  0.00     0.168 A 
HETATM   24  N   UNL     1      19.428  48.462  49.583  1.00  0.00    -0.223 NA
HETATM   25  C   UNL     1      19.174  49.793  49.330  1.00  0.00     0.086 A 
HETATM   26  C   UNL     1      19.285  50.077  47.970  1.00  0.00     0.063 A 
HETATM   27  C   UNL     1      18.828  50.824  50.216  1.00  0.00     0.034 A 
HETATM   28  C   UNL     1      19.067  51.345  47.428  1.00  0.00     0.032 A 
HETATM   29  N   UNL     1      19.624  48.876  47.404  1.00  0.00    -0.333 N 
HETATM   30  C   UNL     1      18.719  52.358  48.328  1.00  0.00     0.002 A 
HETATM   31  C   UNL     1      18.601  52.107  49.697  1.00  0.00     0.002 A 
HETATM   32  H   UNL     1      19.771  48.688  46.424  1.00  0.00     0.168 HD
ENDBRANCH  22  23
ENDBRANCH  21  22
ENDBRANCH   1  21
TORSDOF 9
ENDMDL
MODEL 9
REMARK VINA RESULT:      -7.9      5.377      8.817
REMARK  9 active torsions:
REMARK  status: ('A' for Active; 'I' for Inactive)
REMARK    1  A    between atoms: C_6  and  S_7 
REMARK    2  A    between atoms: S_7  and  C_8 
REMARK    3  A    between atoms: C_8  and  C_9 
REMARK       I    between atoms: C_9  and  N_10 
REMARK    4  A    between atoms: N_10  and  N_11 
REMARK    5  A    between atoms: N_11  and  C_12 
REMARK    6  A    between atoms: C_12  and  N_13 
REMARK    7  A    between atoms: N_13  and  C_14 
REMARK    8  A    between atoms: C_17  and  O_18 
REMARK    9  A    between atoms: O_18  and  C_19 
ROOT
HETATM    1  C   UNL     1      26.132  45.271  50.084  1.00  0.00     0.245 C 
HETATM    2  N   UNL     1      24.840  44.953  49.682  1.00  0.00    -0.267 N 
HETATM    3  O   UNL     1      27.150  44.835  49.548  1.00  0.00    -0.271 OA
HETATM    4  H   UNL     1      24.122  45.659  49.847  1.00  0.00     0.190 HD
ENDROOT
BRANCH   2   5
HETATM    5  N   UNL     1      24.695  44.231  48.491  1.00  0.00    -0.274 N 
HETATM    6  H   UNL     1      24.586  44.784  47.649  1.00  0.00     0.189 HD
BRANCH   5   7
HETATM    7  C   UNL     1      24.719  42.861  48.447  1.00  0.00     0.191 C 
HETATM    8  S   UNL     1      23.403  41.863  48.737  1.00  0.00    -0.039 SA
BRANCH   7   9
HETATM    9  N   UNL     1      25.881  42.269  48.028  1.00  0.00    -0.332 N 
HETATM   10  H   UNL     1      26.284  42.728  47.219  1.00  0.00     0.168 HD
BRANCH   9  11
HETATM   11  C   UNL     1      26.580  41.154  48.526  1.00  0.00     0.034 A 
HETATM   12  C   UNL     1      26.614  39.912  47.893  1.00  0.00     0.032 A 
HETATM   13  C   UNL     1      27.294  38.839  48.481  1.00  0.00     0.039 A 
HETATM   14  C   UNL     1      27.975  38.999  49.689  1.00  0.00     0.075 A 
HETATM   15  C   UNL     1      27.993  40.255  50.294  1.00  0.00     0.039 A 
HETATM   16  C   UNL     1      27.311  41.328  49.706  1.00  0.00     0.032 A 
BRANCH  14  17
HETATM   17  O   UNL     1      28.566  37.862  50.163  1.00  0.00    -0.290 OA
BRANCH  17  18
HETATM   18  C   UNL     1      29.963  37.730  49.962  1.00  0.00     0.505 C 
HETATM   19  F   UNL     1      30.362  38.594  48.995  1.00  0.00    -0.184 F 
HETATM   20  F   UNL     1      30.574  38.123  51.107  1.00  0.00    -0.184 F 
ENDBRANCH  17  18
ENDBRANCH  14  17
ENDBRANCH   9  11
ENDBRANCH   7   9
ENDBRANCH   5   7
ENDBRANCH   2   5
BRANCH   1  21
HETATM   21  C   UNL     1      26.165  46.239  51.255  1.00  0.00     0.187 C 
BRANCH  21  22
HETATM   22  S   UNL     1      25.562  45.447  52.772  1.00  0.00    -0.083 SA
BRANCH  22  23
HETATM   23  C   UNL     1      27.048  44.970  53.502  1.00  0.00     0.168 A 
HETATM   24  N   UNL     1      27.732  43.872  53.286  1.00  0.00    -0.223 NA
HETATM   25  C   UNL     1      28.785  43.945  54.173  1.00  0.00     0.086 A 
HETATM   26  C   UNL     1      28.727  45.117  54.925  1.00  0.00     0.063 A 
HETATM   27  C   UNL     1      29.829  43.038  54.403  1.00  0.00     0.034 A 
HETATM   28  C   UNL     1      29.660  45.445  55.911  1.00  0.00     0.032 A 
HETATM   29  N   UNL     1      27.609  45.759  54.461  1.00  0.00    -0.333 N 
HETATM   30  C   UNL     1      30.691  44.525  56.127  1.00  0.00     0.002 A 
HETATM   31  C   UNL     1      30.778  43.342  55.389  1.00  0.00     0.002 A 
HETATM   32  H   UNL     1      27.235  46.638  54.786  1.00  0.00     0.168 HD
ENDBRANCH  22  23
ENDBRANCH  21  22
ENDBRANCH   1  21
TORSDOF 9
ENDMDL
MODEL 10
REMARK VINA RESULT:      -7.9      1.485      2.034
REMARK  9 active torsions:
REMARK  status: ('A' for Active; 'I' for Inactive)
REMARK    1  A    between atoms: C_6  and  S_7 
REMARK    2  A    between atoms: S_7  and  C_8 
REMARK    3  A    between atoms: C_8  and  C_9 
REMARK       I    between atoms: C_9  and  N_10 
REMARK    4  A    between atoms: N_10  and  N_11 
REMARK    5  A    between atoms: N_11  and  C_12 
REMARK    6  A    between atoms: C_12  and  N_13 
REMARK    7  A    between atoms: N_13  and  C_14 
REMARK    8  A    between atoms: C_17  and  O_18 
REMARK    9  A    between atoms: O_18  and  C_19 
ROOT
HETATM    1  C   UNL     1      23.984  45.472  49.728  1.00  0.00     0.245 C 
HETATM    2  N   UNL     1      25.072  46.010  50.404  1.00  0.00    -0.267 N 
HETATM    3  O   UNL     1      23.660  44.285  49.770  1.00  0.00    -0.271 OA
HETATM    4  H   UNL     1      25.001  46.988  50.681  1.00  0.00     0.190 HD
ENDROOT
BRANCH   2   5
HETATM    5  N   UNL     1      25.733  45.183  51.322  1.00  0.00    -0.274 N 
HETATM    6  H   UNL     1      25.985  44.261  50.986  1.00  0.00     0.189 HD
BRANCH   5   7
HETATM    7  C   UNL     1      26.047  45.590  52.593  1.00  0.00     0.191 C 
HETATM    8  S   UNL     1      25.788  47.130  53.205  1.00  0.00    -0.039 SA
BRANCH   7   9
HETATM    9  N   UNL     1      26.506  44.634  53.460  1.00  0.00    -0.332 N 
HETATM   10  H   UNL     1      25.796  43.951  53.702  1.00  0.00     0.168 HD
BRANCH   9  11
HETATM   11  C   UNL     1      27.769  44.459  54.056  1.00  0.00     0.034 A 
HETATM   12  C   UNL     1      28.656  43.439  53.711  1.00  0.00     0.032 A 
HETATM   13  C   UNL     1      29.873  43.305  54.387  1.00  0.00     0.039 A 
HETATM   14  C   UNL     1      30.237  44.204  55.392  1.00  0.00     0.075 A 
HETATM   15  C   UNL     1      29.380  45.260  55.697  1.00  0.00     0.039 A 
HETATM   16  C   UNL     1      28.160  45.393  55.021  1.00  0.00     0.032 A 
BRANCH  14  17
HETATM   17  O   UNL     1      31.436  43.935  55.988  1.00  0.00    -0.290 OA
BRANCH  17  18
HETATM   18  C   UNL     1      31.397  43.337  57.273  1.00  0.00     0.505 C 
HETATM   19  F   UNL     1      32.505  42.576  57.449  1.00  0.00    -0.184 F 
HETATM   20  F   UNL     1      31.467  44.338  58.186  1.00  0.00    -0.184 F 
ENDBRANCH  17  18
ENDBRANCH  14  17
ENDBRANCH   9  11
ENDBRANCH   7   9
ENDBRANCH   5   7
ENDBRANCH   2   5
BRANCH   1  21
HETATM   21  C   UNL     1      23.209  46.511  48.934  1.00  0.00     0.187 C 
BRANCH  21  22
HETATM   22  S   UNL     1      23.588  48.188  49.512  1.00  0.00    -0.083 SA
BRANCH  22  23
HETATM   23  C   UNL     1      22.198  49.044  48.961  1.00  0.00     0.168 A 
HETATM   24  N   UNL     1      21.510  48.836  47.863  1.00  0.00    -0.223 NA
HETATM   25  C   UNL     1      20.560  49.834  47.862  1.00  0.00     0.086 A 
HETATM   26  C   UNL     1      20.682  50.647  48.988  1.00  0.00     0.063 A 
HETATM   27  C   UNL     1      19.561  50.120  46.921  1.00  0.00     0.034 A 
HETATM   28  C   UNL     1      19.858  51.746  49.237  1.00  0.00     0.032 A 
HETATM   29  N   UNL     1      21.734  50.104  49.680  1.00  0.00    -0.333 N 
HETATM   30  C   UNL     1      18.870  52.015  48.284  1.00  0.00     0.002 A 
HETATM   31  C   UNL     1      18.720  51.219  47.146  1.00  0.00     0.002 A 
HETATM   32  H   UNL     1      22.128  50.440  50.545  1.00  0.00     0.168 HD
ENDBRANCH  22  23
ENDBRANCH  21  22
ENDBRANCH   1  21
TORSDOF 9
ENDMDL
