MODEL 1
REMARK VINA RESULT:      -8.3      0.000      0.000
REMARK  6 active torsions:
REMARK  status: ('A' for Active; 'I' for Inactive)
REMARK    1  A    between atoms: C_2  and  C_3 
REMARK    2  A    between atoms: C_2  and  C_9 
REMARK    3  A    between atoms: C_9  and  N_10 
REMARK       I    between atoms: N_10  and  C_11 
REMARK    4  A    between atoms: C_11  and  C_12 
REMARK    5  A    between atoms: C_13  and  O_14 
REMARK    6  A    between atoms: O_14  and  C_15 
ROOT
HETATM    1  N   UNL     1      26.750  46.221  52.739  1.00  0.00    -0.356 N 
HETATM    2  C   UNL     1      26.973  46.333  54.093  1.00  0.00     0.254 C 
HETATM    3  O   UNL     1      26.271  47.024  54.824  1.00  0.00    -0.268 OA
HETATM    4  H   UNL     1      27.393  45.666  52.186  1.00  0.00     0.162 HD
ENDROOT
BRANCH   2   5
HETATM    5  C   UNL     1      28.143  45.591  54.668  1.00  0.00     0.067 A 
HETATM    6  C   UNL     1      28.726  44.439  54.099  1.00  0.00     0.090 A 
HETATM    7  C   UNL     1      29.852  43.862  54.708  1.00  0.00     0.040 A 
HETATM    8  C   UNL     1      30.363  44.384  55.898  1.00  0.00     0.026 A 
HETATM    9  C   UNL     1      29.762  45.495  56.479  1.00  0.00     0.035 A 
HETATM   10 CL   UNL     1      30.392  46.134  57.947  1.00  0.00    -0.084 Cl
HETATM   11  C   UNL     1      28.665  46.098  55.872  1.00  0.00     0.043 A 
BRANCH   6  12
HETATM   12  O   UNL     1      28.212  43.943  52.928  1.00  0.00    -0.289 OA
BRANCH  12  13
HETATM   13  C   UNL     1      27.448  42.751  53.065  1.00  0.00     0.505 C 
HETATM   14  F   UNL     1      26.913  42.769  54.311  1.00  0.00    -0.184 F 
HETATM   15  F   UNL     1      26.408  42.801  52.196  1.00  0.00    -0.184 F 
ENDBRANCH  12  13
ENDBRANCH   6  12
ENDBRANCH   2   5
BRANCH   1  16
HETATM   16  C   UNL     1      25.642  46.874  52.062  1.00  0.00     0.136 C 
BRANCH  16  17
HETATM   17  C   UNL     1      25.619  46.634  50.519  1.00  0.00    -0.004 C 
HETATM   18  C   UNL     1      24.257  45.994  50.158  1.00  0.00     0.021 C 
HETATM   19  C   UNL     1      26.711  45.591  50.185  1.00  0.00     0.021 C 
BRANCH  17  20
HETATM   20  C   UNL     1      25.924  47.909  49.713  1.00  0.00    -0.046 A 
HETATM   21  C   UNL     1      24.926  48.666  49.084  1.00  0.00     0.027 A 
HETATM   22  C   UNL     1      25.279  49.796  48.357  1.00  0.00     0.116 A 
HETATM   23  N   UNL     1      26.544  50.233  48.206  1.00  0.00    -0.273 NA
HETATM   24  C   UNL     1      27.501  49.499  48.806  1.00  0.00     0.116 A 
HETATM   25  C   UNL     1      27.245  48.351  49.545  1.00  0.00     0.027 A 
ENDBRANCH  17  20
ENDBRANCH  16  17
ENDBRANCH   1  16
TORSDOF 6
ENDMDL
MODEL 2
REMARK VINA RESULT:      -8.2      2.254      3.523
REMARK  6 active torsions:
REMARK  status: ('A' for Active; 'I' for Inactive)
REMARK    1  A    between atoms: C_2  and  C_3 
REMARK    2  A    between atoms: C_2  and  C_9 
REMARK    3  A    between atoms: C_9  and  N_10 
REMARK       I    between atoms: N_10  and  C_11 
REMARK    4  A    between atoms: C_11  and  C_12 
REMARK    5  A    between atoms: C_13  and  O_14 
REMARK    6  A    between atoms: O_14  and  C_15 
ROOT
HETATM    1  N   UNL     1      28.287  43.730  52.239  1.00  0.00    -0.356 N 
HETATM    2  C   UNL     1      28.516  43.093  53.437  1.00  0.00     0.254 C 
HETATM    3  O   UNL     1      28.234  41.914  53.625  1.00  0.00    -0.268 OA
HETATM    4  H   UNL     1      28.507  44.717  52.164  1.00  0.00     0.162 HD
ENDROOT
BRANCH   2   5
HETATM    5  C   UNL     1      29.112  43.903  54.551  1.00  0.00     0.067 A 
HETATM    6  C   UNL     1      28.640  45.162  54.974  1.00  0.00     0.090 A 
HETATM    7  C   UNL     1      29.253  45.800  56.064  1.00  0.00     0.040 A 
HETATM    8  C   UNL     1      30.358  45.225  56.695  1.00  0.00     0.026 A 
HETATM    9  C   UNL     1      30.848  44.002  56.250  1.00  0.00     0.035 A 
HETATM   10 CL   UNL     1      32.211  43.298  57.027  1.00  0.00    -0.084 Cl
HETATM   11  C   UNL     1      30.232  43.341  55.192  1.00  0.00     0.043 A 
BRANCH   6  12
HETATM   12  O   UNL     1      27.550  45.709  54.345  1.00  0.00    -0.289 OA
BRANCH  12  13
HETATM   13  C   UNL     1      27.161  46.991  54.825  1.00  0.00     0.505 C 
HETATM   14  F   UNL     1      27.663  47.904  53.956  1.00  0.00    -0.184 F 
HETATM   15  F   UNL     1      25.811  47.090  54.751  1.00  0.00    -0.184 F 
ENDBRANCH  12  13
ENDBRANCH   6  12
ENDBRANCH   2   5
BRANCH   1  16
HETATM   16  C   UNL     1      27.733  43.056  51.076  1.00  0.00     0.136 C 
BRANCH  16  17
HETATM   17  C   UNL     1      26.293  43.530  50.701  1.00  0.00    -0.004 C 
HETATM   18  C   UNL     1      25.304  42.881  51.699  1.00  0.00     0.021 C 
HETATM   19  C   UNL     1      25.957  42.967  49.301  1.00  0.00     0.021 C 
BRANCH  17  20
HETATM   20  C   UNL     1      26.170  45.063  50.635  1.00  0.00    -0.046 A 
HETATM   21  C   UNL     1      26.870  45.842  49.703  1.00  0.00     0.027 A 
HETATM   22  C   UNL     1      26.724  47.224  49.717  1.00  0.00     0.116 A 
HETATM   23  N   UNL     1      25.938  47.892  50.583  1.00  0.00    -0.273 NA
HETATM   24  C   UNL     1      25.272  47.140  51.482  1.00  0.00     0.116 A 
HETATM   25  C   UNL     1      25.362  45.756  51.551  1.00  0.00     0.027 A 
ENDBRANCH  17  20
ENDBRANCH  16  17
ENDBRANCH   1  16
TORSDOF 6
ENDMDL
MODEL 3
REMARK VINA RESULT:      -8.2      3.358      4.579
REMARK  6 active torsions:
REMARK  status: ('A' for Active; 'I' for Inactive)
REMARK    1  A    between atoms: C_2  and  C_3 
REMARK    2  A    between atoms: C_2  and  C_9 
REMARK    3  A    between atoms: C_9  and  N_10 
REMARK       I    between atoms: N_10  and  C_11 
REMARK    4  A    between atoms: C_11  and  C_12 
REMARK    5  A    between atoms: C_13  and  O_14 
REMARK    6  A    between atoms: O_14  and  C_15 
ROOT
HETATM    1  N   UNL     1      27.479  43.605  53.147  1.00  0.00    -0.356 N 
HETATM    2  C   UNL     1      28.843  43.651  53.326  1.00  0.00     0.254 C 
HETATM    3  O   UNL     1      29.634  43.211  52.497  1.00  0.00    -0.268 OA
HETATM    4  H   UNL     1      26.881  43.949  53.890  1.00  0.00     0.162 HD
ENDROOT
BRANCH   2   5
HETATM    5  C   UNL     1      29.357  44.242  54.605  1.00  0.00     0.067 A 
HETATM    6  C   UNL     1      28.878  45.432  55.193  1.00  0.00     0.090 A 
HETATM    7  C   UNL     1      29.408  45.858  56.421  1.00  0.00     0.040 A 
HETATM    8  C   UNL     1      30.440  45.147  57.034  1.00  0.00     0.026 A 
HETATM    9  C   UNL     1      30.940  43.997  56.433  1.00  0.00     0.035 A 
HETATM   10 CL   UNL     1      32.215  43.124  57.190  1.00  0.00    -0.084 Cl
HETATM   11  C   UNL     1      30.404  43.543  55.232  1.00  0.00     0.043 A 
BRANCH   6  12
HETATM   12  O   UNL     1      27.859  46.114  54.577  1.00  0.00    -0.289 OA
BRANCH  12  13
HETATM   13  C   UNL     1      27.489  47.336  55.205  1.00  0.00     0.505 C 
HETATM   14  F   UNL     1      28.177  48.324  54.579  1.00  0.00    -0.184 F 
HETATM   15  F   UNL     1      26.176  47.567  54.963  1.00  0.00    -0.184 F 
ENDBRANCH  12  13
ENDBRANCH   6  12
ENDBRANCH   2   5
BRANCH   1  16
HETATM   16  C   UNL     1      26.853  43.074  51.947  1.00  0.00     0.136 C 
BRANCH  16  17
HETATM   17  C   UNL     1      26.115  44.153  51.093  1.00  0.00    -0.004 C 
HETATM   18  C   UNL     1      27.150  44.787  50.132  1.00  0.00     0.021 C 
HETATM   19  C   UNL     1      25.640  45.272  52.049  1.00  0.00     0.021 C 
BRANCH  17  20
HETATM   20  C   UNL     1      24.877  43.595  50.369  1.00  0.00    -0.046 A 
HETATM   21  C   UNL     1      23.631  44.235  50.391  1.00  0.00     0.027 A 
HETATM   22  C   UNL     1      22.552  43.660  49.730  1.00  0.00     0.116 A 
HETATM   23  N   UNL     1      22.615  42.499  49.050  1.00  0.00    -0.273 NA
HETATM   24  C   UNL     1      23.813  41.883  49.037  1.00  0.00     0.116 A 
HETATM   25  C   UNL     1      24.943  42.376  49.675  1.00  0.00     0.027 A 
ENDBRANCH  17  20
ENDBRANCH  16  17
ENDBRANCH   1  16
TORSDOF 6
ENDMDL
MODEL 4
REMARK VINA RESULT:      -7.8      2.364      3.321
REMARK  6 active torsions:
REMARK  status: ('A' for Active; 'I' for Inactive)
REMARK    1  A    between atoms: C_2  and  C_3 
REMARK    2  A    between atoms: C_2  and  C_9 
REMARK    3  A    between atoms: C_9  and  N_10 
REMARK       I    between atoms: N_10  and  C_11 
REMARK    4  A    between atoms: C_11  and  C_12 
REMARK    5  A    between atoms: C_13  and  O_14 
REMARK    6  A    between atoms: O_14  and  C_15 
ROOT
HETATM    1  N   UNL     1      26.691  44.633  53.474  1.00  0.00    -0.356 N 
HETATM    2  C   UNL     1      27.488  45.523  54.158  1.00  0.00     0.254 C 
HETATM    3  O   UNL     1      27.251  46.726  54.200  1.00  0.00    -0.268 OA
HETATM    4  H   UNL     1      26.967  43.658  53.445  1.00  0.00     0.162 HD
ENDROOT
BRANCH   2   5
HETATM    5  C   UNL     1      28.703  44.979  54.849  1.00  0.00     0.067 A 
HETATM    6  C   UNL     1      29.483  43.902  54.379  1.00  0.00     0.090 A 
HETATM    7  C   UNL     1      30.630  43.515  55.092  1.00  0.00     0.040 A 
HETATM    8  C   UNL     1      30.970  44.151  56.287  1.00  0.00     0.026 A 
HETATM    9  C   UNL     1      30.177  45.185  56.771  1.00  0.00     0.035 A 
HETATM   10 CL   UNL     1      30.598  45.964  58.246  1.00  0.00    -0.084 Cl
HETATM   11  C   UNL     1      29.056  45.602  56.060  1.00  0.00     0.043 A 
BRANCH   6  12
HETATM   12  O   UNL     1      29.134  43.293  53.200  1.00  0.00    -0.289 OA
BRANCH  12  13
HETATM   13  C   UNL     1      28.911  41.890  53.292  1.00  0.00     0.505 C 
HETATM   14  F   UNL     1      27.904  41.710  54.182  1.00  0.00    -0.184 F 
HETATM   15  F   UNL     1      28.453  41.446  52.096  1.00  0.00    -0.184 F 
ENDBRANCH  12  13
ENDBRANCH   6  12
ENDBRANCH   2   5
BRANCH   1  16
HETATM   16  C   UNL     1      25.477  45.028  52.779  1.00  0.00     0.136 C 
BRANCH  16  17
HETATM   17  C   UNL     1      25.656  45.173  51.234  1.00  0.00    -0.004 C 
HETATM   18  C   UNL     1      26.989  44.491  50.845  1.00  0.00     0.021 C 
HETATM   19  C   UNL     1      25.807  46.678  50.913  1.00  0.00     0.021 C 
BRANCH  17  20
HETATM   20  C   UNL     1      24.448  44.641  50.443  1.00  0.00    -0.046 A 
HETATM   21  C   UNL     1      23.704  45.441  49.563  1.00  0.00     0.027 A 
HETATM   22  C   UNL     1      22.613  44.896  48.898  1.00  0.00     0.116 A 
HETATM   23  N   UNL     1      22.202  43.620  49.038  1.00  0.00    -0.273 NA
HETATM   24  C   UNL     1      22.915  42.857  49.889  1.00  0.00     0.116 A 
HETATM   25  C   UNL     1      24.014  43.316  50.604  1.00  0.00     0.027 A 
ENDBRANCH  17  20
ENDBRANCH  16  17
ENDBRANCH   1  16
TORSDOF 6
ENDMDL
MODEL 5
REMARK VINA RESULT:      -7.6      5.777      7.778
REMARK  6 active torsions:
REMARK  status: ('A' for Active; 'I' for Inactive)
REMARK    1  A    between atoms: C_2  and  C_3 
REMARK    2  A    between atoms: C_2  and  C_9 
REMARK    3  A    between atoms: C_9  and  N_10 
REMARK       I    between atoms: N_10  and  C_11 
REMARK    4  A    between atoms: C_11  and  C_12 
REMARK    5  A    between atoms: C_13  and  O_14 
REMARK    6  A    between atoms: O_14  and  C_15 
ROOT
HETATM    1  N   UNL     1      22.120  48.513  49.534  1.00  0.00    -0.356 N 
HETATM    2  C   UNL     1      22.873  47.637  48.786  1.00  0.00     0.254 C 
HETATM    3  O   UNL     1      22.544  47.276  47.660  1.00  0.00    -0.268 OA
HETATM    4  H   UNL     1      22.428  48.737  50.473  1.00  0.00     0.162 HD
ENDROOT
BRANCH   2   5
HETATM    5  C   UNL     1      24.128  47.095  49.405  1.00  0.00     0.067 A 
HETATM    6  C   UNL     1      25.282  47.856  49.686  1.00  0.00     0.090 A 
HETATM    7  C   UNL     1      26.378  47.243  50.313  1.00  0.00     0.040 A 
HETATM    8  C   UNL     1      26.356  45.879  50.610  1.00  0.00     0.026 A 
HETATM    9  C   UNL     1      25.233  45.122  50.295  1.00  0.00     0.035 A 
HETATM   10 CL   UNL     1      25.211  43.441  50.659  1.00  0.00    -0.084 Cl
HETATM   11  C   UNL     1      24.126  45.719  49.702  1.00  0.00     0.043 A 
BRANCH   6  12
HETATM   12  O   UNL     1      25.282  49.196  49.391  1.00  0.00    -0.289 OA
BRANCH  12  13
HETATM   13  C   UNL     1      26.176  49.582  48.352  1.00  0.00     0.505 C 
HETATM   14  F   UNL     1      25.487  50.411  47.529  1.00  0.00    -0.184 F 
HETATM   15  F   UNL     1      27.176  50.319  48.894  1.00  0.00    -0.184 F 
ENDBRANCH  12  13
ENDBRANCH   6  12
ENDBRANCH   2   5
BRANCH   1  16
HETATM   16  C   UNL     1      20.894  49.123  49.045  1.00  0.00     0.136 C 
BRANCH  16  17
HETATM   17  C   UNL     1      20.878  50.680  49.158  1.00  0.00    -0.004 C 
HETATM   18  C   UNL     1      21.993  51.235  48.239  1.00  0.00     0.021 C 
HETATM   19  C   UNL     1      21.261  51.054  50.609  1.00  0.00     0.021 C 
BRANCH  17  20
HETATM   20  C   UNL     1      19.493  51.284  48.865  1.00  0.00    -0.046 A 
HETATM   21  C   UNL     1      18.943  51.333  47.577  1.00  0.00     0.027 A 
HETATM   22  C   UNL     1      17.695  51.912  47.386  1.00  0.00     0.116 A 
HETATM   23  N   UNL     1      16.950  52.445  48.374  1.00  0.00    -0.273 NA
HETATM   24  C   UNL     1      17.485  52.402  49.610  1.00  0.00     0.116 A 
HETATM   25  C   UNL     1      18.728  51.853  49.896  1.00  0.00     0.027 A 
ENDBRANCH  17  20
ENDBRANCH  16  17
ENDBRANCH   1  16
TORSDOF 6
ENDMDL
MODEL 6
REMARK VINA RESULT:      -7.5      4.538      7.419
REMARK  6 active torsions:
REMARK  status: ('A' for Active; 'I' for Inactive)
REMARK    1  A    between atoms: C_2  and  C_3 
REMARK    2  A    between atoms: C_2  and  C_9 
REMARK    3  A    between atoms: C_9  and  N_10 
REMARK       I    between atoms: N_10  and  C_11 
REMARK    4  A    between atoms: C_11  and  C_12 
REMARK    5  A    between atoms: C_13  and  O_14 
REMARK    6  A    between atoms: O_14  and  C_15 
ROOT
HETATM    1  N   UNL     1      27.058  43.679  51.878  1.00  0.00    -0.356 N 
HETATM    2  C   UNL     1      25.692  43.561  51.757  1.00  0.00     0.254 C 
HETATM    3  O   UNL     1      24.916  43.941  52.628  1.00  0.00    -0.268 OA
HETATM    4  H   UNL     1      27.644  43.308  51.139  1.00  0.00     0.162 HD
ENDROOT
BRANCH   2   5
HETATM    5  C   UNL     1      25.158  42.917  50.513  1.00  0.00     0.067 A 
HETATM    6  C   UNL     1      25.430  41.593  50.110  1.00  0.00     0.090 A 
HETATM    7  C   UNL     1      24.829  41.087  48.946  1.00  0.00     0.040 A 
HETATM    8  C   UNL     1      24.012  41.899  48.158  1.00  0.00     0.026 A 
HETATM    9  C   UNL     1      23.777  43.216  48.534  1.00  0.00     0.035 A 
HETATM   10 CL   UNL     1      22.772  44.215  47.559  1.00  0.00    -0.084 Cl
HETATM   11  C   UNL     1      24.339  43.724  49.701  1.00  0.00     0.043 A 
BRANCH   6  12
HETATM   12  O   UNL     1      26.232  40.809  50.900  1.00  0.00    -0.289 OA
BRANCH  12  13
HETATM   13  C   UNL     1      27.477  40.443  50.316  1.00  0.00     0.505 C 
HETATM   14  F   UNL     1      27.921  41.525  49.629  1.00  0.00    -0.184 F 
HETATM   15  F   UNL     1      28.373  40.222  51.308  1.00  0.00    -0.184 F 
ENDBRANCH  12  13
ENDBRANCH   6  12
ENDBRANCH   2   5
BRANCH   1  16
HETATM   16  C   UNL     1      27.702  44.300  53.024  1.00  0.00     0.136 C 
BRANCH  16  17
HETATM   17  C   UNL     1      28.804  43.412  53.684  1.00  0.00    -0.004 C 
HETATM   18  C   UNL     1      29.837  43.047  52.590  1.00  0.00     0.021 C 
HETATM   19  C   UNL     1      28.141  42.091  54.138  1.00  0.00     0.021 C 
BRANCH  17  20
HETATM   20  C   UNL     1      29.438  44.071  54.921  1.00  0.00    -0.046 A 
HETATM   21  C   UNL     1      28.970  45.276  55.463  1.00  0.00     0.027 A 
HETATM   22  C   UNL     1      29.606  45.822  56.572  1.00  0.00     0.116 A 
HETATM   23  N   UNL     1      30.669  45.265  57.184  1.00  0.00    -0.273 NA
HETATM   24  C   UNL     1      31.120  44.110  56.655  1.00  0.00     0.116 A 
HETATM   25  C   UNL     1      30.556  43.495  55.545  1.00  0.00     0.027 A 
ENDBRANCH  17  20
ENDBRANCH  16  17
ENDBRANCH   1  16
TORSDOF 6
ENDMDL
MODEL 7
REMARK VINA RESULT:      -7.5      2.580      4.161
REMARK  6 active torsions:
REMARK  status: ('A' for Active; 'I' for Inactive)
REMARK    1  A    between atoms: C_2  and  C_3 
REMARK    2  A    between atoms: C_2  and  C_9 
REMARK    3  A    between atoms: C_9  and  N_10 
REMARK       I    between atoms: N_10  and  C_11 
REMARK    4  A    between atoms: C_11  and  C_12 
REMARK    5  A    between atoms: C_13  and  O_14 
REMARK    6  A    between atoms: O_14  and  C_15 
ROOT
HETATM    1  N   UNL     1      28.503  42.411  51.842  1.00  0.00    -0.356 N 
HETATM    2  C   UNL     1      28.648  42.079  53.169  1.00  0.00     0.254 C 
HETATM    3  O   UNL     1      28.504  40.933  53.584  1.00  0.00    -0.268 OA
HETATM    4  H   UNL     1      28.596  43.384  51.573  1.00  0.00     0.162 HD
ENDROOT
BRANCH   2   5
HETATM    5  C   UNL     1      28.971  43.184  54.131  1.00  0.00     0.067 A 
HETATM    6  C   UNL     1      28.226  44.373  54.274  1.00  0.00     0.090 A 
HETATM    7  C   UNL     1      28.602  45.312  55.247  1.00  0.00     0.040 A 
HETATM    8  C   UNL     1      29.736  45.105  56.034  1.00  0.00     0.026 A 
HETATM    9  C   UNL     1      30.494  43.951  55.864  1.00  0.00     0.035 A 
HETATM   10 CL   UNL     1      31.893  43.701  56.833  1.00  0.00    -0.084 Cl
HETATM   11  C   UNL     1      30.117  42.995  54.926  1.00  0.00     0.043 A 
BRANCH   6  12
HETATM   12  O   UNL     1      27.112  44.556  53.494  1.00  0.00    -0.289 OA
BRANCH  12  13
HETATM   13  C   UNL     1      25.871  44.371  54.167  1.00  0.00     0.505 C 
HETATM   14  F   UNL     1      26.120  43.576  55.238  1.00  0.00    -0.184 F 
HETATM   15  F   UNL     1      25.464  45.566  54.659  1.00  0.00    -0.184 F 
ENDBRANCH  12  13
ENDBRANCH   6  12
ENDBRANCH   2   5
BRANCH   1  16
HETATM   16  C   UNL     1      28.209  41.434  50.807  1.00  0.00     0.136 C 
BRANCH  16  17
HETATM   17  C   UNL     1      26.826  41.649  50.113  1.00  0.00    -0.004 C 
HETATM   18  C   UNL     1      25.862  40.553  50.628  1.00  0.00     0.021 C 
HETATM   19  C   UNL     1      27.014  41.411  48.597  1.00  0.00     0.021 C 
BRANCH  17  20
HETATM   20  C   UNL     1      26.281  43.076  50.303  1.00  0.00    -0.046 A 
HETATM   21  C   UNL     1      25.010  43.339  50.834  1.00  0.00     0.027 A 
HETATM   22  C   UNL     1      24.578  44.654  50.957  1.00  0.00     0.116 A 
HETATM   23  N   UNL     1      25.307  45.726  50.594  1.00  0.00    -0.273 NA
HETATM   24  C   UNL     1      26.525  45.469  50.078  1.00  0.00     0.116 A 
HETATM   25  C   UNL     1      27.038  44.190  49.908  1.00  0.00     0.027 A 
ENDBRANCH  17  20
ENDBRANCH  16  17
ENDBRANCH   1  16
TORSDOF 6
ENDMDL
MODEL 8
REMARK VINA RESULT:      -7.3      3.154      4.918
REMARK  6 active torsions:
REMARK  status: ('A' for Active; 'I' for Inactive)
REMARK    1  A    between atoms: C_2  and  C_3 
REMARK    2  A    between atoms: C_2  and  C_9 
REMARK    3  A    between atoms: C_9  and  N_10 
REMARK       I    between atoms: N_10  and  C_11 
REMARK    4  A    between atoms: C_11  and  C_12 
REMARK    5  A    between atoms: C_13  and  O_14 
REMARK    6  A    between atoms: O_14  and  C_15 
ROOT
HETATM    1  N   UNL     1      27.553  44.046  51.269  1.00  0.00    -0.356 N 
HETATM    2  C   UNL     1      27.441  44.626  52.511  1.00  0.00     0.254 C 
HETATM    3  O   UNL     1      26.546  45.418  52.792  1.00  0.00    -0.268 OA
HETATM    4  H   UNL     1      28.340  43.431  51.090  1.00  0.00     0.162 HD
ENDROOT
BRANCH   2   5
HETATM    5  C   UNL     1      28.480  44.282  53.536  1.00  0.00     0.067 A 
HETATM    6  C   UNL     1      29.313  43.145  53.490  1.00  0.00     0.090 A 
HETATM    7  C   UNL     1      30.284  42.958  54.486  1.00  0.00     0.040 A 
HETATM    8  C   UNL     1      30.394  43.857  55.549  1.00  0.00     0.026 A 
HETATM    9  C   UNL     1      29.544  44.955  55.615  1.00  0.00     0.035 A 
HETATM   10 CL   UNL     1      29.680  46.059  56.928  1.00  0.00    -0.084 Cl
HETATM   11  C   UNL     1      28.598  45.173  54.620  1.00  0.00     0.043 A 
BRANCH   6  12
HETATM   12  O   UNL     1      29.193  42.276  52.435  1.00  0.00    -0.289 OA
BRANCH  12  13
HETATM   13  C   UNL     1      28.875  40.936  52.794  1.00  0.00     0.505 C 
HETATM   14  F   UNL     1      27.538  40.896  53.016  1.00  0.00    -0.184 F 
HETATM   15  F   UNL     1      29.114  40.134  51.728  1.00  0.00    -0.184 F 
ENDBRANCH  12  13
ENDBRANCH   6  12
ENDBRANCH   2   5
BRANCH   1  16
HETATM   16  C   UNL     1      26.603  44.281  50.194  1.00  0.00     0.136 C 
BRANCH  16  17
HETATM   17  C   UNL     1      25.625  43.088  49.947  1.00  0.00    -0.004 C 
HETATM   18  C   UNL     1      24.620  43.518  48.851  1.00  0.00     0.021 C 
HETATM   19  C   UNL     1      24.812  42.865  51.244  1.00  0.00     0.021 C 
BRANCH  17  20
HETATM   20  C   UNL     1      26.358  41.776  49.618  1.00  0.00    -0.046 A 
HETATM   21  C   UNL     1      27.428  41.709  48.715  1.00  0.00     0.027 A 
HETATM   22  C   UNL     1      28.028  40.483  48.453  1.00  0.00     0.116 A 
HETATM   23  N   UNL     1      27.650  39.320  49.017  1.00  0.00    -0.273 NA
HETATM   24  C   UNL     1      26.616  39.388  49.879  1.00  0.00     0.116 A 
HETATM   25  C   UNL     1      25.949  40.563  50.196  1.00  0.00     0.027 A 
ENDBRANCH  17  20
ENDBRANCH  16  17
ENDBRANCH   1  16
TORSDOF 6
ENDMDL
MODEL 9
REMARK VINA RESULT:      -7.3      4.115      5.887
REMARK  6 active torsions:
REMARK  status: ('A' for Active; 'I' for Inactive)
REMARK    1  A    between atoms: C_2  and  C_3 
REMARK    2  A    between atoms: C_2  and  C_9 
REMARK    3  A    between atoms: C_9  and  N_10 
REMARK       I    between atoms: N_10  and  C_11 
REMARK    4  A    between atoms: C_11  and  C_12 
REMARK    5  A    between atoms: C_13  and  O_14 
REMARK    6  A    between atoms: O_14  and  C_15 
ROOT
HETATM    1  N   UNL     1      28.827  41.941  51.843  1.00  0.00    -0.356 N 
HETATM    2  C   UNL     1      28.654  41.824  53.203  1.00  0.00     0.254 C 
HETATM    3  O   UNL     1      28.186  40.817  53.726  1.00  0.00    -0.268 OA
HETATM    4  H   UNL     1      29.181  42.816  51.473  1.00  0.00     0.162 HD
ENDROOT
BRANCH   2   5
HETATM    5  C   UNL     1      29.034  42.998  54.055  1.00  0.00     0.067 A 
HETATM    6  C   UNL     1      28.416  44.265  54.005  1.00  0.00     0.090 A 
HETATM    7  C   UNL     1      28.831  45.272  54.892  1.00  0.00     0.040 A 
HETATM    8  C   UNL     1      29.883  45.047  55.781  1.00  0.00     0.026 A 
HETATM    9  C   UNL     1      30.518  43.810  55.801  1.00  0.00     0.035 A 
HETATM   10 CL   UNL     1      31.817  43.537  56.896  1.00  0.00    -0.084 Cl
HETATM   11  C   UNL     1      30.099  42.791  54.952  1.00  0.00     0.043 A 
BRANCH   6  12
HETATM   12  O   UNL     1      27.381  44.465  53.127  1.00  0.00    -0.289 OA
BRANCH  12  13
HETATM   13  C   UNL     1      26.081  44.326  53.690  1.00  0.00     0.505 C 
HETATM   14  F   UNL     1      25.334  43.642  52.788  1.00  0.00    -0.184 F 
HETATM   15  F   UNL     1      26.169  43.541  54.792  1.00  0.00    -0.184 F 
ENDBRANCH  12  13
ENDBRANCH   6  12
ENDBRANCH   2   5
BRANCH   1  16
HETATM   16  C   UNL     1      28.516  40.871  50.909  1.00  0.00     0.136 C 
BRANCH  16  17
HETATM   17  C   UNL     1      27.254  41.150  50.032  1.00  0.00    -0.004 C 
HETATM   18  C   UNL     1      27.062  42.684  49.950  1.00  0.00     0.021 C 
HETATM   19  C   UNL     1      26.024  40.579  50.776  1.00  0.00     0.021 C 
BRANCH  17  20
HETATM   20  C   UNL     1      27.327  40.472  48.652  1.00  0.00    -0.046 A 
HETATM   21  C   UNL     1      27.846  41.112  47.518  1.00  0.00     0.027 A 
HETATM   22  C   UNL     1      27.861  40.443  46.300  1.00  0.00     0.116 A 
HETATM   23  N   UNL     1      27.401  39.190  46.120  1.00  0.00    -0.273 NA
HETATM   24  C   UNL     1      26.896  38.581  47.211  1.00  0.00     0.116 A 
HETATM   25  C   UNL     1      26.831  39.172  48.466  1.00  0.00     0.027 A 
ENDBRANCH  17  20
ENDBRANCH  16  17
ENDBRANCH   1  16
TORSDOF 6
ENDMDL
MODEL 10
REMARK VINA RESULT:      -7.3      4.442      6.318
REMARK  6 active torsions:
REMARK  status: ('A' for Active; 'I' for Inactive)
REMARK    1  A    between atoms: C_2  and  C_3 
REMARK    2  A    between atoms: C_2  and  C_9 
REMARK    3  A    between atoms: C_9  and  N_10 
REMARK       I    between atoms: N_10  and  C_11 
REMARK    4  A    between atoms: C_11  and  C_12 
REMARK    5  A    between atoms: C_13  and  O_14 
REMARK    6  A    between atoms: O_14  and  C_15 
ROOT
HETATM    1  N   UNL     1      29.219  43.252  52.988  1.00  0.00    -0.356 N 
HETATM    2  C   UNL     1      28.516  44.239  53.641  1.00  0.00     0.254 C 
HETATM    3  O   UNL     1      27.508  44.755  53.169  1.00  0.00    -0.268 OA
HETATM    4  H   UNL     1      30.067  42.897  53.416  1.00  0.00     0.162 HD
ENDROOT
BRANCH   2   5
HETATM    5  C   UNL     1      29.039  44.703  54.968  1.00  0.00     0.067 A 
HETATM    6  C   UNL     1      28.455  45.718  55.754  1.00  0.00     0.090 A 
HETATM    7  C   UNL     1      29.011  46.029  57.005  1.00  0.00     0.040 A 
HETATM    8  C   UNL     1      30.166  45.383  57.450  1.00  0.00     0.026 A 
HETATM    9  C   UNL     1      30.763  44.411  56.656  1.00  0.00     0.035 A 
HETATM   10 CL   UNL     1      32.188  43.618  57.206  1.00  0.00    -0.084 Cl
HETATM   11  C   UNL     1      30.207  44.067  55.428  1.00  0.00     0.043 A 
BRANCH   6  12
HETATM   12  O   UNL     1      27.319  46.339  55.301  1.00  0.00    -0.289 OA
BRANCH  12  13
HETATM   13  C   UNL     1      27.392  47.759  55.245  1.00  0.00     0.505 C 
HETATM   14  F   UNL     1      28.426  48.066  54.422  1.00  0.00    -0.184 F 
HETATM   15  F   UNL     1      26.269  48.227  54.647  1.00  0.00    -0.184 F 
ENDBRANCH  12  13
ENDBRANCH   6  12
ENDBRANCH   2   5
BRANCH   1  16
HETATM   16  C   UNL     1      28.809  42.701  51.707  1.00  0.00     0.136 C 
BRANCH  16  17
HETATM   17  C   UNL     1      28.017  41.360  51.822  1.00  0.00    -0.004 C 
HETATM   18  C   UNL     1      26.519  41.672  51.586  1.00  0.00     0.021 C 
HETATM   19  C   UNL     1      28.150  40.855  53.277  1.00  0.00     0.021 C 
BRANCH  17  20
HETATM   20  C   UNL     1      28.563  40.264  50.890  1.00  0.00    -0.046 A 
HETATM   21  C   UNL     1      28.395  40.297  49.499  1.00  0.00     0.027 A 
HETATM   22  C   UNL     1      28.899  39.260  48.723  1.00  0.00     0.116 A 
HETATM   23  N   UNL     1      29.557  38.195  49.220  1.00  0.00    -0.273 NA
HETATM   24  C   UNL     1      29.711  38.164  50.558  1.00  0.00     0.116 A 
HETATM   25  C   UNL     1      29.234  39.148  51.414  1.00  0.00     0.027 A 
ENDBRANCH  17  20
ENDBRANCH  16  17
ENDBRANCH   1  16
TORSDOF 6
ENDMDL
