MODEL 1
REMARK VINA RESULT:      -8.9      0.000      0.000
REMARK  7 active torsions:
REMARK  status: ('A' for Active; 'I' for Inactive)
REMARK    1  A    between atoms: N_3  and  C_4 
REMARK    2  A    between atoms: C_7  and  O_8 
REMARK    3  A    between atoms: C_14  and  C_15 
REMARK    4  A    between atoms: C_15  and  N_16 
REMARK       I    between atoms: N_16  and  C_17 
REMARK       I    between atoms: C_17  and  N_18 
REMARK    5  A    between atoms: N_18  and  C_19 
REMARK    6  A    between atoms: C_19  and  C_20 
REMARK    7  A    between atoms: C_20  and  C_21 
ROOT
HETATM    1  C   UNL     1      25.781  46.987  52.907  1.00  0.00     0.068 C 
HETATM    2  C   UNL     1      25.360  45.847  52.043  1.00  0.00     0.014 A 
HETATM    3  N   UNL     1      24.976  45.956  50.708  1.00  0.00    -0.319 N 
HETATM    4  C   UNL     1      24.728  44.668  50.229  1.00  0.00     0.021 A 
HETATM    5  C   UNL     1      24.164  44.377  48.874  1.00  0.00     0.069 C 
HETATM    6  C   UNL     1      25.013  43.754  51.237  1.00  0.00    -0.016 A 
HETATM    7  C   UNL     1      25.380  44.507  52.377  1.00  0.00     0.035 A 
ENDROOT
BRANCH   6   8
HETATM    8  C   UNL     1      24.927  42.267  51.165  1.00  0.00     0.165 C 
BRANCH   8   9
HETATM    9  N   UNL     1      26.129  41.759  50.548  1.00  0.00    -0.339 N 
HETATM   10  C   UNL     1      27.318  41.522  51.159  1.00  0.00     0.316 C 
HETATM   11  N   UNL     1      27.292  41.523  52.523  1.00  0.00    -0.343 N 
HETATM   12  O   UNL     1      28.332  41.345  50.494  1.00  0.00    -0.248 OA
HETATM   13  H   UNL     1      26.435  41.164  52.919  1.00  0.00     0.164 HD
HETATM   14  H   UNL     1      26.206  41.824  49.542  1.00  0.00     0.164 HD
BRANCH  11  15
HETATM   15  C   UNL     1      28.494  41.201  53.271  1.00  0.00     0.129 C 
BRANCH  15  16
HETATM   16  C   UNL     1      29.611  42.225  53.053  1.00  0.00     0.058 C 
BRANCH  16  17
HETATM   17  C   UNL     1      29.638  43.325  54.092  1.00  0.00    -0.057 A 
HETATM   18  C   UNL     1      30.617  43.342  55.095  1.00  0.00     0.007 A 
HETATM   19  C   UNL     1      30.625  44.349  56.061  1.00  0.00     0.001 A 
HETATM   20  C   UNL     1      29.660  45.354  56.031  1.00  0.00     0.000 A 
HETATM   21  C   UNL     1      28.688  45.354  55.032  1.00  0.00     0.001 A 
HETATM   22  C   UNL     1      28.676  44.345  54.068  1.00  0.00     0.007 A 
ENDBRANCH  16  17
ENDBRANCH  15  16
ENDBRANCH  11  15
ENDBRANCH   8   9
ENDBRANCH   6   8
BRANCH   3  23
HETATM   23  C   UNL     1      24.876  47.164  49.958  1.00  0.00     0.039 A 
HETATM   24  C   UNL     1      23.625  47.621  49.529  1.00  0.00     0.033 A 
HETATM   25  C   UNL     1      23.530  48.803  48.790  1.00  0.00     0.039 A 
HETATM   26  C   UNL     1      24.671  49.543  48.475  1.00  0.00     0.068 A 
HETATM   27  C   UNL     1      25.918  49.088  48.904  1.00  0.00     0.039 A 
HETATM   28  C   UNL     1      26.022  47.902  49.641  1.00  0.00     0.033 A 
BRANCH  26  29
HETATM   29  O   UNL     1      24.431  50.678  47.751  1.00  0.00    -0.356 OA
HETATM   30  C   UNL     1      23.152  51.280  47.903  1.00  0.00     0.210 C 
ENDBRANCH  26  29
ENDBRANCH   3  23
TORSDOF 7
ENDMDL
MODEL 2
REMARK VINA RESULT:      -8.4      3.368     10.158
REMARK  7 active torsions:
REMARK  status: ('A' for Active; 'I' for Inactive)
REMARK    1  A    between atoms: N_3  and  C_4 
REMARK    2  A    between atoms: C_7  and  O_8 
REMARK    3  A    between atoms: C_14  and  C_15 
REMARK    4  A    between atoms: C_15  and  N_16 
REMARK       I    between atoms: N_16  and  C_17 
REMARK       I    between atoms: C_17  and  N_18 
REMARK    5  A    between atoms: N_18  and  C_19 
REMARK    6  A    between atoms: C_19  and  C_20 
REMARK    7  A    between atoms: C_20  and  C_21 
ROOT
HETATM    1  C   UNL     1      24.223  42.811  50.716  1.00  0.00     0.068 C 
HETATM    2  C   UNL     1      24.461  44.282  50.660  1.00  0.00     0.014 A 
HETATM    3  N   UNL     1      25.514  44.945  51.284  1.00  0.00    -0.319 N 
HETATM    4  C   UNL     1      25.435  46.295  50.937  1.00  0.00     0.021 A 
HETATM    5  C   UNL     1      26.313  47.358  51.518  1.00  0.00     0.069 C 
HETATM    6  C   UNL     1      24.377  46.467  50.052  1.00  0.00    -0.016 A 
HETATM    7  C   UNL     1      23.757  45.203  49.909  1.00  0.00     0.035 A 
ENDROOT
BRANCH   6   8
HETATM    8  C   UNL     1      23.941  47.731  49.392  1.00  0.00     0.165 C 
BRANCH   8   9
HETATM    9  N   UNL     1      22.536  47.633  49.077  1.00  0.00    -0.339 N 
HETATM   10  C   UNL     1      21.579  48.560  49.336  1.00  0.00     0.316 C 
HETATM   11  N   UNL     1      22.035  49.795  49.694  1.00  0.00    -0.343 N 
HETATM   12  O   UNL     1      20.392  48.262  49.265  1.00  0.00    -0.248 OA
HETATM   13  H   UNL     1      22.894  50.065  49.239  1.00  0.00     0.164 HD
HETATM   14  H   UNL     1      22.159  46.714  48.890  1.00  0.00     0.164 HD
BRANCH  11  15
HETATM   15  C   UNL     1      21.093  50.879  49.914  1.00  0.00     0.129 C 
BRANCH  15  16
HETATM   16  C   UNL     1      20.600  51.500  48.605  1.00  0.00     0.058 C 
BRANCH  16  17
HETATM   17  C   UNL     1      19.114  51.786  48.589  1.00  0.00    -0.057 A 
HETATM   18  C   UNL     1      18.379  51.701  47.399  1.00  0.00     0.007 A 
HETATM   19  C   UNL     1      17.012  51.983  47.390  1.00  0.00     0.001 A 
HETATM   20  C   UNL     1      16.365  52.347  48.570  1.00  0.00     0.000 A 
HETATM   21  C   UNL     1      17.083  52.424  49.761  1.00  0.00     0.001 A 
HETATM   22  C   UNL     1      18.451  52.145  49.771  1.00  0.00     0.007 A 
ENDBRANCH  16  17
ENDBRANCH  15  16
ENDBRANCH  11  15
ENDBRANCH   8   9
ENDBRANCH   6   8
BRANCH   3  23
HETATM   23  C   UNL     1      26.509  44.348  52.113  1.00  0.00     0.039 A 
HETATM   24  C   UNL     1      27.700  43.876  51.549  1.00  0.00     0.033 A 
HETATM   25  C   UNL     1      28.671  43.287  52.363  1.00  0.00     0.039 A 
HETATM   26  C   UNL     1      28.473  43.166  53.740  1.00  0.00     0.068 A 
HETATM   27  C   UNL     1      27.286  43.637  54.301  1.00  0.00     0.039 A 
HETATM   28  C   UNL     1      26.306  44.225  53.492  1.00  0.00     0.033 A 
BRANCH  26  29
HETATM   29  O   UNL     1      29.505  42.573  54.413  1.00  0.00    -0.356 OA
HETATM   30  C   UNL     1      30.260  43.399  55.290  1.00  0.00     0.210 C 
ENDBRANCH  26  29
ENDBRANCH   3  23
TORSDOF 7
ENDMDL
MODEL 3
REMARK VINA RESULT:      -8.3      3.278      5.355
REMARK  7 active torsions:
REMARK  status: ('A' for Active; 'I' for Inactive)
REMARK    1  A    between atoms: N_3  and  C_4 
REMARK    2  A    between atoms: C_7  and  O_8 
REMARK    3  A    between atoms: C_14  and  C_15 
REMARK    4  A    between atoms: C_15  and  N_16 
REMARK       I    between atoms: N_16  and  C_17 
REMARK       I    between atoms: C_17  and  N_18 
REMARK    5  A    between atoms: N_18  and  C_19 
REMARK    6  A    between atoms: C_19  and  C_20 
REMARK    7  A    between atoms: C_20  and  C_21 
ROOT
HETATM    1  C   UNL     1      20.415  46.634  48.375  1.00  0.00     0.068 C 
HETATM    2  C   UNL     1      21.586  47.513  48.654  1.00  0.00     0.014 A 
HETATM    3  N   UNL     1      21.522  48.891  48.848  1.00  0.00    -0.319 N 
HETATM    4  C   UNL     1      22.809  49.339  49.155  1.00  0.00     0.021 A 
HETATM    5  C   UNL     1      23.176  50.782  49.300  1.00  0.00     0.069 C 
HETATM    6  C   UNL     1      23.661  48.243  49.214  1.00  0.00    -0.016 A 
HETATM    7  C   UNL     1      22.889  47.109  48.870  1.00  0.00     0.035 A 
ENDROOT
BRANCH   6   8
HETATM    8  C   UNL     1      25.116  48.240  49.543  1.00  0.00     0.165 C 
BRANCH   8   9
HETATM    9  N   UNL     1      25.554  46.875  49.709  1.00  0.00    -0.339 N 
HETATM   10  C   UNL     1      25.880  46.263  50.876  1.00  0.00     0.316 C 
HETATM   11  N   UNL     1      25.514  46.924  52.012  1.00  0.00    -0.343 N 
HETATM   12  O   UNL     1      26.486  45.197  50.868  1.00  0.00    -0.248 OA
HETATM   13  H   UNL     1      24.647  47.435  51.930  1.00  0.00     0.164 HD
HETATM   14  H   UNL     1      25.909  46.392  48.894  1.00  0.00     0.164 HD
BRANCH  11  15
HETATM   15  C   UNL     1      25.746  46.316  53.310  1.00  0.00     0.129 C 
BRANCH  15  16
HETATM   16  C   UNL     1      26.896  46.981  54.071  1.00  0.00     0.058 C 
BRANCH  16  17
HETATM   17  C   UNL     1      27.958  46.009  54.537  1.00  0.00    -0.057 A 
HETATM   18  C   UNL     1      28.036  44.717  53.999  1.00  0.00     0.007 A 
HETATM   19  C   UNL     1      29.007  43.821  54.447  1.00  0.00     0.001 A 
HETATM   20  C   UNL     1      29.915  44.208  55.432  1.00  0.00     0.000 A 
HETATM   21  C   UNL     1      29.854  45.494  55.966  1.00  0.00     0.001 A 
HETATM   22  C   UNL     1      28.881  46.390  55.522  1.00  0.00     0.007 A 
ENDBRANCH  16  17
ENDBRANCH  15  16
ENDBRANCH  11  15
ENDBRANCH   8   9
ENDBRANCH   6   8
BRANCH   3  23
HETATM   23  C   UNL     1      20.349  49.697  48.769  1.00  0.00     0.039 A 
HETATM   24  C   UNL     1      19.585  49.938  49.916  1.00  0.00     0.033 A 
HETATM   25  C   UNL     1      18.433  50.724  49.835  1.00  0.00     0.039 A 
HETATM   26  C   UNL     1      18.031  51.281  48.619  1.00  0.00     0.068 A 
HETATM   27  C   UNL     1      18.793  51.041  47.476  1.00  0.00     0.039 A 
HETATM   28  C   UNL     1      19.947  50.251  47.548  1.00  0.00     0.033 A 
BRANCH  26  29
HETATM   29  O   UNL     1      16.889  52.029  48.686  1.00  0.00    -0.356 OA
HETATM   30  C   UNL     1      16.687  52.792  49.869  1.00  0.00     0.210 C 
ENDBRANCH  26  29
ENDBRANCH   3  23
TORSDOF 7
ENDMDL
MODEL 4
REMARK VINA RESULT:      -8.3      3.083      9.327
REMARK  7 active torsions:
REMARK  status: ('A' for Active; 'I' for Inactive)
REMARK    1  A    between atoms: N_3  and  C_4 
REMARK    2  A    between atoms: C_7  and  O_8 
REMARK    3  A    between atoms: C_14  and  C_15 
REMARK    4  A    between atoms: C_15  and  N_16 
REMARK       I    between atoms: N_16  and  C_17 
REMARK       I    between atoms: C_17  and  N_18 
REMARK    5  A    between atoms: N_18  and  C_19 
REMARK    6  A    between atoms: C_19  and  C_20 
REMARK    7  A    between atoms: C_20  and  C_21 
ROOT
HETATM    1  C   UNL     1      26.280  47.254  51.611  1.00  0.00     0.068 C 
HETATM    2  C   UNL     1      25.505  46.118  51.036  1.00  0.00     0.014 A 
HETATM    3  N   UNL     1      25.695  44.776  51.359  1.00  0.00    -0.319 N 
HETATM    4  C   UNL     1      24.734  44.031  50.673  1.00  0.00     0.021 A 
HETATM    5  C   UNL     1      24.696  42.536  50.656  1.00  0.00     0.069 C 
HETATM    6  C   UNL     1      23.909  44.904  49.974  1.00  0.00    -0.016 A 
HETATM    7  C   UNL     1      24.420  46.205  50.186  1.00  0.00     0.035 A 
ENDROOT
BRANCH   6   8
HETATM    8  C   UNL     1      22.727  44.557  49.132  1.00  0.00     0.165 C 
BRANCH   8   9
HETATM    9  N   UNL     1      22.689  45.445  47.994  1.00  0.00    -0.339 N 
HETATM   10  C   UNL     1      21.797  46.444  47.773  1.00  0.00     0.316 C 
HETATM   11  N   UNL     1      21.030  46.799  48.844  1.00  0.00    -0.343 N 
HETATM   12  O   UNL     1      21.699  46.952  46.662  1.00  0.00    -0.248 OA
HETATM   13  H   UNL     1      21.506  46.728  49.732  1.00  0.00     0.164 HD
HETATM   14  H   UNL     1      23.182  45.161  47.158  1.00  0.00     0.164 HD
BRANCH  11  15
HETATM   15  C   UNL     1      20.102  47.910  48.734  1.00  0.00     0.129 C 
BRANCH  15  16
HETATM   16  C   UNL     1      20.695  49.222  49.257  1.00  0.00     0.058 C 
BRANCH  16  17
HETATM   17  C   UNL     1      19.727  50.384  49.218  1.00  0.00    -0.057 A 
HETATM   18  C   UNL     1      18.542  50.357  49.967  1.00  0.00     0.007 A 
HETATM   19  C   UNL     1      17.646  51.425  49.913  1.00  0.00     0.001 A 
HETATM   20  C   UNL     1      17.927  52.534  49.116  1.00  0.00     0.000 A 
HETATM   21  C   UNL     1      19.106  52.576  48.376  1.00  0.00     0.001 A 
HETATM   22  C   UNL     1      20.002  51.507  48.426  1.00  0.00     0.007 A 
ENDBRANCH  16  17
ENDBRANCH  15  16
ENDBRANCH  11  15
ENDBRANCH   8   9
ENDBRANCH   6   8
BRANCH   3  23
HETATM   23  C   UNL     1      26.682  44.258  52.250  1.00  0.00     0.039 A 
HETATM   24  C   UNL     1      27.946  43.906  51.765  1.00  0.00     0.033 A 
HETATM   25  C   UNL     1      28.910  43.395  52.638  1.00  0.00     0.039 A 
HETATM   26  C   UNL     1      28.630  43.231  53.997  1.00  0.00     0.068 A 
HETATM   27  C   UNL     1      27.369  43.583  54.478  1.00  0.00     0.039 A 
HETATM   28  C   UNL     1      26.396  44.093  53.609  1.00  0.00     0.033 A 
BRANCH  26  29
HETATM   29  O   UNL     1      29.663  42.724  54.734  1.00  0.00    -0.356 OA
HETATM   30  C   UNL     1      30.452  43.656  55.463  1.00  0.00     0.210 C 
ENDBRANCH  26  29
ENDBRANCH   3  23
TORSDOF 7
ENDMDL
MODEL 5
REMARK VINA RESULT:      -8.3      3.618      7.034
REMARK  7 active torsions:
REMARK  status: ('A' for Active; 'I' for Inactive)
REMARK    1  A    between atoms: N_3  and  C_4 
REMARK    2  A    between atoms: C_7  and  O_8 
REMARK    3  A    between atoms: C_14  and  C_15 
REMARK    4  A    between atoms: C_15  and  N_16 
REMARK       I    between atoms: N_16  and  C_17 
REMARK       I    between atoms: C_17  and  N_18 
REMARK    5  A    between atoms: N_18  and  C_19 
REMARK    6  A    between atoms: C_19  and  C_20 
REMARK    7  A    between atoms: C_20  and  C_21 
ROOT
HETATM    1  C   UNL     1      29.030  40.529  52.480  1.00  0.00     0.068 C 
HETATM    2  C   UNL     1      28.273  41.588  51.753  1.00  0.00     0.014 A 
HETATM    3  N   UNL     1      27.625  41.411  50.532  1.00  0.00    -0.319 N 
HETATM    4  C   UNL     1      26.974  42.605  50.217  1.00  0.00     0.021 A 
HETATM    5  C   UNL     1      26.277  42.857  48.917  1.00  0.00     0.069 C 
HETATM    6  C   UNL     1      27.160  43.504  51.261  1.00  0.00    -0.016 A 
HETATM    7  C   UNL     1      28.000  42.865  52.203  1.00  0.00     0.035 A 
ENDROOT
BRANCH   6   8
HETATM    8  C   UNL     1      26.617  44.888  51.375  1.00  0.00     0.165 C 
BRANCH   8   9
HETATM    9  N   UNL     1      25.676  44.932  52.468  1.00  0.00    -0.339 N 
HETATM   10  C   UNL     1      25.951  45.217  53.766  1.00  0.00     0.316 C 
HETATM   11  N   UNL     1      27.180  45.758  54.004  1.00  0.00    -0.343 N 
HETATM   12  O   UNL     1      25.131  44.968  54.643  1.00  0.00    -0.248 OA
HETATM   13  H   UNL     1      27.513  46.364  53.269  1.00  0.00     0.164 HD
HETATM   14  H   UNL     1      24.788  44.464  52.344  1.00  0.00     0.164 HD
BRANCH  11  15
HETATM   15  C   UNL     1      27.541  46.172  55.348  1.00  0.00     0.129 C 
BRANCH  15  16
HETATM   16  C   UNL     1      29.024  46.533  55.471  1.00  0.00     0.058 C 
BRANCH  16  17
HETATM   17  C   UNL     1      29.868  45.437  56.085  1.00  0.00    -0.057 A 
HETATM   18  C   UNL     1      30.191  44.285  55.355  1.00  0.00     0.007 A 
HETATM   19  C   UNL     1      30.954  43.270  55.934  1.00  0.00     0.001 A 
HETATM   20  C   UNL     1      31.408  43.399  57.246  1.00  0.00     0.000 A 
HETATM   21  C   UNL     1      31.102  44.544  57.978  1.00  0.00     0.001 A 
HETATM   22  C   UNL     1      30.336  45.558  57.401  1.00  0.00     0.007 A 
ENDBRANCH  16  17
ENDBRANCH  15  16
ENDBRANCH  11  15
ENDBRANCH   8   9
ENDBRANCH   6   8
BRANCH   3  23
HETATM   23  C   UNL     1      27.612  40.216  49.754  1.00  0.00     0.039 A 
HETATM   24  C   UNL     1      26.597  39.270  49.940  1.00  0.00     0.033 A 
HETATM   25  C   UNL     1      26.588  38.099  49.179  1.00  0.00     0.039 A 
HETATM   26  C   UNL     1      27.581  37.856  48.227  1.00  0.00     0.068 A 
HETATM   27  C   UNL     1      28.592  38.799  48.043  1.00  0.00     0.039 A 
HETATM   28  C   UNL     1      28.609  39.975  48.803  1.00  0.00     0.033 A 
BRANCH  26  29
HETATM   29  O   UNL     1      27.448  36.673  47.555  1.00  0.00    -0.356 OA
HETATM   30  C   UNL     1      26.228  35.965  47.733  1.00  0.00     0.210 C 
ENDBRANCH  26  29
ENDBRANCH   3  23
TORSDOF 7
ENDMDL
MODEL 6
REMARK VINA RESULT:      -8.3      2.394      3.791
REMARK  7 active torsions:
REMARK  status: ('A' for Active; 'I' for Inactive)
REMARK    1  A    between atoms: N_3  and  C_4 
REMARK    2  A    between atoms: C_7  and  O_8 
REMARK    3  A    between atoms: C_14  and  C_15 
REMARK    4  A    between atoms: C_15  and  N_16 
REMARK       I    between atoms: N_16  and  C_17 
REMARK       I    between atoms: C_17  and  N_18 
REMARK    5  A    between atoms: N_18  and  C_19 
REMARK    6  A    between atoms: C_19  and  C_20 
REMARK    7  A    between atoms: C_20  and  C_21 
ROOT
HETATM    1  C   UNL     1      21.116  46.143  46.054  1.00  0.00     0.068 C 
HETATM    2  C   UNL     1      22.111  45.918  47.141  1.00  0.00     0.014 A 
HETATM    3  N   UNL     1      22.420  46.835  48.144  1.00  0.00    -0.319 N 
HETATM    4  C   UNL     1      23.337  46.232  49.007  1.00  0.00     0.021 A 
HETATM    5  C   UNL     1      24.012  46.944  50.136  1.00  0.00     0.069 C 
HETATM    6  C   UNL     1      23.554  44.925  48.585  1.00  0.00    -0.016 A 
HETATM    7  C   UNL     1      22.803  44.751  47.399  1.00  0.00     0.035 A 
ENDROOT
BRANCH   6   8
HETATM    8  C   UNL     1      24.428  43.898  49.222  1.00  0.00     0.165 C 
BRANCH   8   9
HETATM    9  N   UNL     1      25.808  44.281  49.040  1.00  0.00    -0.339 N 
HETATM   10  C   UNL     1      26.669  44.696  50.002  1.00  0.00     0.316 C 
HETATM   11  N   UNL     1      26.264  44.487  51.288  1.00  0.00    -0.343 N 
HETATM   12  O   UNL     1      27.724  45.242  49.697  1.00  0.00    -0.248 OA
HETATM   13  H   UNL     1      25.724  43.644  51.418  1.00  0.00     0.164 HD
HETATM   14  H   UNL     1      26.110  44.522  48.105  1.00  0.00     0.164 HD
BRANCH  11  15
HETATM   15  C   UNL     1      27.148  44.823  52.390  1.00  0.00     0.129 C 
BRANCH  15  16
HETATM   16  C   UNL     1      27.555  43.595  53.209  1.00  0.00     0.058 C 
BRANCH  16  17
HETATM   17  C   UNL     1      28.661  43.867  54.204  1.00  0.00    -0.057 A 
HETATM   18  C   UNL     1      29.706  42.950  54.385  1.00  0.00     0.007 A 
HETATM   19  C   UNL     1      30.714  43.200  55.318  1.00  0.00     0.001 A 
HETATM   20  C   UNL     1      30.692  44.370  56.075  1.00  0.00     0.000 A 
HETATM   21  C   UNL     1      29.663  45.293  55.896  1.00  0.00     0.001 A 
HETATM   22  C   UNL     1      28.653  45.044  54.966  1.00  0.00     0.007 A 
ENDBRANCH  16  17
ENDBRANCH  15  16
ENDBRANCH  11  15
ENDBRANCH   8   9
ENDBRANCH   6   8
BRANCH   3  23
HETATM   23  C   UNL     1      21.879  48.148  48.277  1.00  0.00     0.039 A 
HETATM   24  C   UNL     1      22.571  49.247  47.755  1.00  0.00     0.033 A 
HETATM   25  C   UNL     1      22.042  50.532  47.891  1.00  0.00     0.039 A 
HETATM   26  C   UNL     1      20.823  50.740  48.541  1.00  0.00     0.068 A 
HETATM   27  C   UNL     1      20.134  49.644  49.061  1.00  0.00     0.039 A 
HETATM   28  C   UNL     1      20.660  48.352  48.932  1.00  0.00     0.033 A 
BRANCH  26  29
HETATM   29  O   UNL     1      20.424  52.046  48.600  1.00  0.00    -0.356 OA
HETATM   30  C   UNL     1      19.031  52.300  48.466  1.00  0.00     0.210 C 
ENDBRANCH  26  29
ENDBRANCH   3  23
TORSDOF 7
ENDMDL
MODEL 7
REMARK VINA RESULT:      -8.3      3.359      5.060
REMARK  7 active torsions:
REMARK  status: ('A' for Active; 'I' for Inactive)
REMARK    1  A    between atoms: N_3  and  C_4 
REMARK    2  A    between atoms: C_7  and  O_8 
REMARK    3  A    between atoms: C_14  and  C_15 
REMARK    4  A    between atoms: C_15  and  N_16 
REMARK       I    between atoms: N_16  and  C_17 
REMARK       I    between atoms: C_17  and  N_18 
REMARK    5  A    between atoms: N_18  and  C_19 
REMARK    6  A    between atoms: C_19  and  C_20 
REMARK    7  A    between atoms: C_20  and  C_21 
ROOT
HETATM    1  C   UNL     1      23.252  50.990  49.199  1.00  0.00     0.068 C 
HETATM    2  C   UNL     1      22.840  49.561  49.094  1.00  0.00     0.014 A 
HETATM    3  N   UNL     1      21.540  49.118  48.859  1.00  0.00    -0.319 N 
HETATM    4  C   UNL     1      21.575  47.726  48.756  1.00  0.00     0.021 A 
HETATM    5  C   UNL     1      20.354  46.869  48.638  1.00  0.00     0.069 C 
HETATM    6  C   UNL     1      22.895  47.303  48.864  1.00  0.00    -0.016 A 
HETATM    7  C   UNL     1      23.674  48.459  49.104  1.00  0.00     0.035 A 
ENDROOT
BRANCH   6   8
HETATM    8  C   UNL     1      23.410  45.907  48.777  1.00  0.00     0.165 C 
BRANCH   8   9
HETATM    9  N   UNL     1      23.242  45.266  50.060  1.00  0.00    -0.339 N 
HETATM   10  C   UNL     1      24.213  45.003  50.970  1.00  0.00     0.316 C 
HETATM   11  N   UNL     1      25.406  45.630  50.759  1.00  0.00    -0.343 N 
HETATM   12  O   UNL     1      24.002  44.228  51.896  1.00  0.00    -0.248 OA
HETATM   13  H   UNL     1      25.321  46.552  50.357  1.00  0.00     0.164 HD
HETATM   14  H   UNL     1      22.400  44.725  50.209  1.00  0.00     0.164 HD
BRANCH  11  15
HETATM   15  C   UNL     1      26.485  45.478  51.719  1.00  0.00     0.129 C 
BRANCH  15  16
HETATM   16  C   UNL     1      27.281  44.188  51.505  1.00  0.00     0.058 C 
BRANCH  16  17
HETATM   17  C   UNL     1      28.286  43.905  52.600  1.00  0.00    -0.057 A 
HETATM   18  C   UNL     1      29.353  43.023  52.385  1.00  0.00     0.007 A 
HETATM   19  C   UNL     1      30.266  42.753  53.406  1.00  0.00     0.001 A 
HETATM   20  C   UNL     1      30.126  43.368  54.649  1.00  0.00     0.000 A 
HETATM   21  C   UNL     1      29.075  44.255  54.871  1.00  0.00     0.001 A 
HETATM   22  C   UNL     1      28.159  44.522  53.853  1.00  0.00     0.007 A 
ENDBRANCH  16  17
ENDBRANCH  15  16
ENDBRANCH  11  15
ENDBRANCH   8   9
ENDBRANCH   6   8
BRANCH   3  23
HETATM   23  C   UNL     1      20.384  49.942  48.726  1.00  0.00     0.039 A 
HETATM   24  C   UNL     1      19.702  50.381  49.866  1.00  0.00     0.033 A 
HETATM   25  C   UNL     1      18.566  51.184  49.733  1.00  0.00     0.039 A 
HETATM   26  C   UNL     1      18.100  51.562  48.471  1.00  0.00     0.068 A 
HETATM   27  C   UNL     1      18.782  51.124  47.336  1.00  0.00     0.039 A 
HETATM   28  C   UNL     1      19.919  50.315  47.461  1.00  0.00     0.033 A 
BRANCH  26  29
HETATM   29  O   UNL     1      16.983  52.349  48.489  1.00  0.00    -0.356 OA
HETATM   30  C   UNL     1      15.863  51.894  47.740  1.00  0.00     0.210 C 
ENDBRANCH  26  29
ENDBRANCH   3  23
TORSDOF 7
ENDMDL
MODEL 8
REMARK VINA RESULT:      -8.1      4.068     10.271
REMARK  7 active torsions:
REMARK  status: ('A' for Active; 'I' for Inactive)
REMARK    1  A    between atoms: N_3  and  C_4 
REMARK    2  A    between atoms: C_7  and  O_8 
REMARK    3  A    between atoms: C_14  and  C_15 
REMARK    4  A    between atoms: C_15  and  N_16 
REMARK       I    between atoms: N_16  and  C_17 
REMARK       I    between atoms: C_17  and  N_18 
REMARK    5  A    between atoms: N_18  and  C_19 
REMARK    6  A    between atoms: C_19  and  C_20 
REMARK    7  A    between atoms: C_20  and  C_21 
ROOT
HETATM    1  C   UNL     1      27.962  49.015  49.222  1.00  0.00     0.068 C 
HETATM    2  C   UNL     1      26.489  48.887  49.024  1.00  0.00     0.014 A 
HETATM    3  N   UNL     1      25.700  47.860  49.536  1.00  0.00    -0.319 N 
HETATM    4  C   UNL     1      24.373  48.132  49.200  1.00  0.00     0.021 A 
HETATM    5  C   UNL     1      23.238  47.191  49.456  1.00  0.00     0.069 C 
HETATM    6  C   UNL     1      24.322  49.352  48.535  1.00  0.00    -0.016 A 
HETATM    7  C   UNL     1      25.657  49.801  48.407  1.00  0.00     0.035 A 
ENDROOT
BRANCH   6   8
HETATM    8  C   UNL     1      23.112  50.056  48.022  1.00  0.00     0.165 C 
BRANCH   8   9
HETATM    9  N   UNL     1      22.488  50.768  49.111  1.00  0.00    -0.339 N 
HETATM   10  C   UNL     1      21.257  50.535  49.634  1.00  0.00     0.316 C 
HETATM   11  N   UNL     1      20.670  49.361  49.262  1.00  0.00    -0.343 N 
HETATM   12  O   UNL     1      20.731  51.361  50.371  1.00  0.00    -0.248 OA
HETATM   13  H   UNL     1      21.319  48.600  49.130  1.00  0.00     0.164 HD
HETATM   14  H   UNL     1      22.856  51.679  49.350  1.00  0.00     0.164 HD
BRANCH  11  15
HETATM   15  C   UNL     1      19.388  48.981  49.829  1.00  0.00     0.129 C 
BRANCH  15  16
HETATM   16  C   UNL     1      18.273  48.941  48.780  1.00  0.00     0.058 C 
BRANCH  16  17
HETATM   17  C   UNL     1      17.373  50.157  48.802  1.00  0.00    -0.057 A 
HETATM   18  C   UNL     1      16.397  50.346  47.815  1.00  0.00     0.007 A 
HETATM   19  C   UNL     1      15.582  51.479  47.832  1.00  0.00     0.001 A 
HETATM   20  C   UNL     1      15.730  52.431  48.840  1.00  0.00     0.000 A 
HETATM   21  C   UNL     1      16.689  52.248  49.833  1.00  0.00     0.001 A 
HETATM   22  C   UNL     1      17.508  51.117  49.815  1.00  0.00     0.007 A 
ENDBRANCH  16  17
ENDBRANCH  15  16
ENDBRANCH  11  15
ENDBRANCH   8   9
ENDBRANCH   6   8
BRANCH   3  23
HETATM   23  C   UNL     1      26.163  46.741  50.289  1.00  0.00     0.039 A 
HETATM   24  C   UNL     1      26.050  46.740  51.684  1.00  0.00     0.033 A 
HETATM   25  C   UNL     1      26.509  45.644  52.420  1.00  0.00     0.039 A 
HETATM   26  C   UNL     1      27.079  44.541  51.781  1.00  0.00     0.068 A 
HETATM   27  C   UNL     1      27.191  44.543  50.390  1.00  0.00     0.039 A 
HETATM   28  C   UNL     1      26.737  45.639  49.646  1.00  0.00     0.033 A 
BRANCH  26  29
HETATM   29  O   UNL     1      27.481  43.541  52.622  1.00  0.00    -0.356 OA
HETATM   30  C   UNL     1      27.060  43.631  53.977  1.00  0.00     0.210 C 
ENDBRANCH  26  29
ENDBRANCH   3  23
TORSDOF 7
ENDMDL
MODEL 9
REMARK VINA RESULT:      -8.1      2.971      8.782
REMARK  7 active torsions:
REMARK  status: ('A' for Active; 'I' for Inactive)
REMARK    1  A    between atoms: N_3  and  C_4 
REMARK    2  A    between atoms: C_7  and  O_8 
REMARK    3  A    between atoms: C_14  and  C_15 
REMARK    4  A    between atoms: C_15  and  N_16 
REMARK       I    between atoms: N_16  and  C_17 
REMARK       I    between atoms: C_17  and  N_18 
REMARK    5  A    between atoms: N_18  and  C_19 
REMARK    6  A    between atoms: C_19  and  C_20 
REMARK    7  A    between atoms: C_20  and  C_21 
ROOT
HETATM    1  C   UNL     1      25.415  48.048  49.771  1.00  0.00     0.068 C 
HETATM    2  C   UNL     1      24.405  46.975  49.542  1.00  0.00     0.014 A 
HETATM    3  N   UNL     1      24.443  45.707  50.117  1.00  0.00    -0.319 N 
HETATM    4  C   UNL     1      23.293  45.023  49.718  1.00  0.00     0.021 A 
HETATM    5  C   UNL     1      23.034  43.581  50.021  1.00  0.00     0.069 C 
HETATM    6  C   UNL     1      22.509  45.877  48.950  1.00  0.00    -0.016 A 
HETATM    7  C   UNL     1      23.231  47.087  48.823  1.00  0.00     0.035 A 
ENDROOT
BRANCH   6   8
HETATM    8  C   UNL     1      21.179  45.587  48.341  1.00  0.00     0.165 C 
BRANCH   8   9
HETATM    9  N   UNL     1      20.147  46.116  49.201  1.00  0.00    -0.339 N 
HETATM   10  C   UNL     1      19.454  47.269  49.023  1.00  0.00     0.316 C 
HETATM   11  N   UNL     1      19.567  47.842  47.790  1.00  0.00    -0.343 N 
HETATM   12  O   UNL     1      18.798  47.746  49.942  1.00  0.00    -0.248 OA
HETATM   13  H   UNL     1      19.655  47.178  47.034  1.00  0.00     0.164 HD
HETATM   14  H   UNL     1      20.098  45.765  50.148  1.00  0.00     0.164 HD
BRANCH  11  15
HETATM   15  C   UNL     1      18.801  49.034  47.472  1.00  0.00     0.129 C 
BRANCH  15  16
HETATM   16  C   UNL     1      19.684  50.181  46.974  1.00  0.00     0.058 C 
BRANCH  16  17
HETATM   17  C   UNL     1      20.886  50.449  47.853  1.00  0.00    -0.057 A 
HETATM   18  C   UNL     1      20.727  50.771  49.208  1.00  0.00     0.007 A 
HETATM   19  C   UNL     1      21.840  51.034  50.008  1.00  0.00     0.001 A 
HETATM   20  C   UNL     1      23.122  50.971  49.465  1.00  0.00     0.000 A 
HETATM   21  C   UNL     1      23.293  50.641  48.122  1.00  0.00     0.001 A 
HETATM   22  C   UNL     1      22.181  50.381  47.320  1.00  0.00     0.007 A 
ENDBRANCH  16  17
ENDBRANCH  15  16
ENDBRANCH  11  15
ENDBRANCH   8   9
ENDBRANCH   6   8
BRANCH   3  23
HETATM   23  C   UNL     1      25.463  45.204  50.977  1.00  0.00     0.039 A 
HETATM   24  C   UNL     1      26.602  44.599  50.433  1.00  0.00     0.033 A 
HETATM   25  C   UNL     1      27.599  44.104  51.278  1.00  0.00     0.039 A 
HETATM   26  C   UNL     1      27.477  44.206  52.665  1.00  0.00     0.068 A 
HETATM   27  C   UNL     1      26.341  44.809  53.206  1.00  0.00     0.039 A 
HETATM   28  C   UNL     1      25.336  45.305  52.366  1.00  0.00     0.033 A 
BRANCH  26  29
HETATM   29  O   UNL     1      28.525  43.681  53.369  1.00  0.00    -0.356 OA
HETATM   30  C   UNL     1      29.489  42.941  52.631  1.00  0.00     0.210 C 
ENDBRANCH  26  29
ENDBRANCH   3  23
TORSDOF 7
ENDMDL
MODEL 10
REMARK VINA RESULT:      -8.1      6.195     10.814
REMARK  7 active torsions:
REMARK  status: ('A' for Active; 'I' for Inactive)
REMARK    1  A    between atoms: N_3  and  C_4 
REMARK    2  A    between atoms: C_7  and  O_8 
REMARK    3  A    between atoms: C_14  and  C_15 
REMARK    4  A    between atoms: C_15  and  N_16 
REMARK       I    between atoms: N_16  and  C_17 
REMARK       I    between atoms: C_17  and  N_18 
REMARK    5  A    between atoms: N_18  and  C_19 
REMARK    6  A    between atoms: C_19  and  C_20 
REMARK    7  A    between atoms: C_20  and  C_21 
ROOT
HETATM    1  C   UNL     1      20.388  50.236  50.530  1.00  0.00     0.068 C 
HETATM    2  C   UNL     1      20.128  49.150  49.541  1.00  0.00     0.014 A 
HETATM    3  N   UNL     1      21.085  48.593  48.696  1.00  0.00    -0.319 N 
HETATM    4  C   UNL     1      20.474  47.563  47.979  1.00  0.00     0.021 A 
HETATM    5  C   UNL     1      21.140  46.809  46.871  1.00  0.00     0.069 C 
HETATM    6  C   UNL     1      19.160  47.434  48.414  1.00  0.00    -0.016 A 
HETATM    7  C   UNL     1      18.947  48.453  49.372  1.00  0.00     0.035 A 
ENDROOT
BRANCH   6   8
HETATM    8  C   UNL     1      18.144  46.444  47.955  1.00  0.00     0.165 C 
BRANCH   8   9
HETATM    9  N   UNL     1      16.832  46.910  48.336  1.00  0.00    -0.339 N 
HETATM   10  C   UNL     1      16.132  47.924  47.767  1.00  0.00     0.316 C 
HETATM   11  N   UNL     1      16.608  48.368  46.567  1.00  0.00    -0.343 N 
HETATM   12  O   UNL     1      15.156  48.399  48.335  1.00  0.00    -0.248 OA
HETATM   13  H   UNL     1      17.016  47.645  45.993  1.00  0.00     0.164 HD
HETATM   14  H   UNL     1      16.493  46.662  49.256  1.00  0.00     0.164 HD
BRANCH  11  15
HETATM   15  C   UNL     1      15.885  49.395  45.838  1.00  0.00     0.129 C 
BRANCH  15  16
HETATM   16  C   UNL     1      16.721  50.660  45.626  1.00  0.00     0.058 C 
BRANCH  16  17
HETATM   17  C   UNL     1      17.111  51.353  46.914  1.00  0.00    -0.057 A 
HETATM   18  C   UNL     1      16.157  51.614  47.906  1.00  0.00     0.007 A 
HETATM   19  C   UNL     1      16.522  52.270  49.084  1.00  0.00     0.001 A 
HETATM   20  C   UNL     1      17.843  52.664  49.284  1.00  0.00     0.000 A 
HETATM   21  C   UNL     1      18.803  52.400  48.309  1.00  0.00     0.001 A 
HETATM   22  C   UNL     1      18.439  51.748  47.129  1.00  0.00     0.007 A 
ENDBRANCH  16  17
ENDBRANCH  15  16
ENDBRANCH  11  15
ENDBRANCH   8   9
ENDBRANCH   6   8
BRANCH   3  23
HETATM   23  C   UNL     1      22.452  48.989  48.598  1.00  0.00     0.039 A 
HETATM   24  C   UNL     1      23.435  48.293  49.310  1.00  0.00     0.033 A 
HETATM   25  C   UNL     1      24.773  48.686  49.215  1.00  0.00     0.039 A 
HETATM   26  C   UNL     1      25.147  49.767  48.414  1.00  0.00     0.068 A 
HETATM   27  C   UNL     1      24.165  50.459  47.705  1.00  0.00     0.039 A 
HETATM   28  C   UNL     1      22.822  50.074  47.797  1.00  0.00     0.033 A 
BRANCH  26  29
HETATM   29  O   UNL     1      26.486  50.039  48.413  1.00  0.00    -0.356 OA
HETATM   30  C   UNL     1      27.342  49.059  48.988  1.00  0.00     0.210 C 
ENDBRANCH  26  29
ENDBRANCH   3  23
TORSDOF 7
ENDMDL
