MODEL 1
REMARK VINA RESULT:      -9.2      0.000      0.000
REMARK  5 active torsions:
REMARK  status: ('A' for Active; 'I' for Inactive)
REMARK    1  A    between atoms: C_6  and  C_7 
REMARK    2  A    between atoms: C_7  and  C_8 
REMARK       I    between atoms: C_8  and  N_9 
REMARK    3  A    between atoms: N_9  and  N_10 
REMARK    4  A    between atoms: C_11  and  C_12 
REMARK    5  A    between atoms: C_13  and  O_14 
ROOT
HETATM    1  C   UNL     1      24.196  48.070  49.707  1.00  0.00     0.244 C 
HETATM    2  N   UNL     1      24.187  47.272  50.836  1.00  0.00    -0.247 N 
HETATM    3  O   UNL     1      25.110  48.850  49.425  1.00  0.00    -0.271 OA
HETATM    4  H   UNL     1      23.338  46.742  51.056  1.00  0.00     0.192 HD
ENDROOT
BRANCH   1   5
HETATM    5  C   UNL     1      23.048  47.861  48.735  1.00  0.00     0.183 C 
BRANCH   5   6
HETATM    6  C   UNL     1      21.943  48.860  48.846  1.00  0.00     0.114 A 
HETATM    7  N   UNL     1      21.865  50.047  48.272  1.00  0.00    -0.233 NA
HETATM    8  C   UNL     1      20.687  50.600  48.720  1.00  0.00     0.085 A 
HETATM    9  C   UNL     1      20.045  49.744  49.605  1.00  0.00     0.062 A 
HETATM   10  C   UNL     1      20.103  51.838  48.417  1.00  0.00     0.034 A 
HETATM   11  C   UNL     1      18.837  50.053  50.233  1.00  0.00     0.032 A 
HETATM   12  N   UNL     1      20.859  48.643  49.665  1.00  0.00    -0.342 N 
HETATM   13  C   UNL     1      18.270  51.296  49.925  1.00  0.00     0.002 A 
HETATM   14  C   UNL     1      18.888  52.173  49.030  1.00  0.00     0.002 A 
HETATM   15  H   UNL     1      20.694  47.819  50.225  1.00  0.00     0.167 HD
ENDBRANCH   5   6
ENDBRANCH   1   5
BRANCH   2  16
HETATM   16  N   UNL     1      25.220  47.325  51.718  1.00  0.00    -0.184 NA
HETATM   17  C   UNL     1      25.269  46.354  52.573  1.00  0.00     0.153 C 
BRANCH  17  18
HETATM   18  C   UNL     1      26.349  46.294  53.578  1.00  0.00     0.017 A 
HETATM   19  C   UNL     1      26.528  47.299  54.536  1.00  0.00     0.077 A 
HETATM   20  C   UNL     1      27.563  47.207  55.466  1.00  0.00     0.039 A 
HETATM   21  C   UNL     1      28.424  46.110  55.443  1.00  0.00     0.022 A 
HETATM   22  C   UNL     1      28.243  45.110  54.487  1.00  0.00     0.012 A 
HETATM   23 BR   UNL     1      29.414  43.625  54.457  1.00  0.00    -0.051 Br
HETATM   24  C   UNL     1      27.211  45.192  53.552  1.00  0.00     0.034 A 
BRANCH  19  25
HETATM   25  O   UNL     1      25.731  48.407  54.625  1.00  0.00    -0.360 OA
HETATM   26  H   UNL     1      26.308  49.205  54.674  1.00  0.00     0.217 HD
ENDBRANCH  19  25
ENDBRANCH  17  18
ENDBRANCH   2  16
TORSDOF 5
ENDMDL
MODEL 2
REMARK VINA RESULT:      -8.9      3.725      5.257
REMARK  5 active torsions:
REMARK  status: ('A' for Active; 'I' for Inactive)
REMARK    1  A    between atoms: C_6  and  C_7 
REMARK    2  A    between atoms: C_7  and  C_8 
REMARK       I    between atoms: C_8  and  N_9 
REMARK    3  A    between atoms: N_9  and  N_10 
REMARK    4  A    between atoms: C_11  and  C_12 
REMARK    5  A    between atoms: C_13  and  O_14 
ROOT
HETATM    1  C   UNL     1      25.135  44.313  52.307  1.00  0.00     0.244 C 
HETATM    2  N   UNL     1      26.429  44.012  51.927  1.00  0.00    -0.247 N 
HETATM    3  O   UNL     1      24.733  44.265  53.473  1.00  0.00    -0.271 OA
HETATM    4  H   UNL     1      26.648  43.962  50.927  1.00  0.00     0.192 HD
ENDROOT
BRANCH   1   5
HETATM    5  C   UNL     1      24.222  44.833  51.210  1.00  0.00     0.183 C 
BRANCH   5   6
HETATM    6  C   UNL     1      24.724  46.050  50.503  1.00  0.00     0.114 A 
HETATM    7  N   UNL     1      25.975  46.456  50.382  1.00  0.00    -0.233 NA
HETATM    8  C   UNL     1      25.915  47.645  49.690  1.00  0.00     0.085 A 
HETATM    9  C   UNL     1      24.598  47.984  49.405  1.00  0.00     0.062 A 
HETATM   10  C   UNL     1      26.947  48.497  49.275  1.00  0.00     0.034 A 
HETATM   11  C   UNL     1      24.234  49.150  48.730  1.00  0.00     0.032 A 
HETATM   12  N   UNL     1      23.861  46.953  49.927  1.00  0.00    -0.342 N 
HETATM   13  C   UNL     1      25.277  49.993  48.328  1.00  0.00     0.002 A 
HETATM   14  C   UNL     1      26.611  49.673  48.591  1.00  0.00     0.002 A 
HETATM   15  H   UNL     1      22.854  46.877  49.901  1.00  0.00     0.167 HD
ENDBRANCH   5   6
ENDBRANCH   1   5
BRANCH   2  16
HETATM   16  N   UNL     1      27.342  43.625  52.856  1.00  0.00    -0.184 NA
HETATM   17  C   UNL     1      28.118  44.564  53.296  1.00  0.00     0.153 C 
BRANCH  17  18
HETATM   18  C   UNL     1      29.146  44.272  54.314  1.00  0.00     0.017 A 
HETATM   19  C   UNL     1      30.049  43.211  54.175  1.00  0.00     0.077 A 
HETATM   20  C   UNL     1      31.002  42.965  55.162  1.00  0.00     0.039 A 
HETATM   21  C   UNL     1      31.059  43.779  56.293  1.00  0.00     0.022 A 
HETATM   22  C   UNL     1      30.158  44.835  56.430  1.00  0.00     0.012 A 
HETATM   23 BR   UNL     1      30.235  45.936  57.966  1.00  0.00    -0.051 Br
HETATM   24  C   UNL     1      29.200  45.090  55.448  1.00  0.00     0.034 A 
BRANCH  19  25
HETATM   25  O   UNL     1      30.059  42.365  53.100  1.00  0.00    -0.360 OA
HETATM   26  H   UNL     1      30.747  41.676  53.251  1.00  0.00     0.217 HD
ENDBRANCH  19  25
ENDBRANCH  17  18
ENDBRANCH   2  16
TORSDOF 5
ENDMDL
MODEL 3
REMARK VINA RESULT:      -8.7      4.480      9.475
REMARK  5 active torsions:
REMARK  status: ('A' for Active; 'I' for Inactive)
REMARK    1  A    between atoms: C_6  and  C_7 
REMARK    2  A    between atoms: C_7  and  C_8 
REMARK       I    between atoms: C_8  and  N_9 
REMARK    3  A    between atoms: N_9  and  N_10 
REMARK    4  A    between atoms: C_11  and  C_12 
REMARK    5  A    between atoms: C_13  and  O_14 
ROOT
HETATM    1  C   UNL     1      26.431  43.917  51.145  1.00  0.00     0.244 C 
HETATM    2  N   UNL     1      27.254  44.901  50.632  1.00  0.00    -0.247 N 
HETATM    3  O   UNL     1      25.230  43.818  50.879  1.00  0.00    -0.271 OA
HETATM    4  H   UNL     1      28.209  44.983  50.995  1.00  0.00     0.192 HD
ENDROOT
BRANCH   1   5
HETATM    5  C   UNL     1      27.111  42.856  51.993  1.00  0.00     0.183 C 
BRANCH   5   6
HETATM    6  C   UNL     1      27.940  43.388  53.116  1.00  0.00     0.114 A 
HETATM    7  N   UNL     1      27.855  44.573  53.693  1.00  0.00    -0.233 NA
HETATM    8  C   UNL     1      28.858  44.602  54.635  1.00  0.00     0.085 A 
HETATM    9  C   UNL     1      29.586  43.420  54.616  1.00  0.00     0.062 A 
HETATM   10  C   UNL     1      29.211  45.611  55.541  1.00  0.00     0.034 A 
HETATM   11  C   UNL     1      30.678  43.177  55.452  1.00  0.00     0.032 A 
HETATM   12  N   UNL     1      28.981  42.663  53.647  1.00  0.00    -0.342 N 
HETATM   13  C   UNL     1      31.022  44.197  56.346  1.00  0.00     0.002 A 
HETATM   14  C   UNL     1      30.301  45.393  56.395  1.00  0.00     0.002 A 
HETATM   15  H   UNL     1      29.262  41.734  53.365  1.00  0.00     0.167 HD
ENDBRANCH   5   6
ENDBRANCH   1   5
BRANCH   2  16
HETATM   16  N   UNL     1      26.751  45.842  49.789  1.00  0.00    -0.184 NA
HETATM   17  C   UNL     1      26.356  46.938  50.353  1.00  0.00     0.153 C 
BRANCH  17  18
HETATM   18  C   UNL     1      25.799  48.039  49.544  1.00  0.00     0.017 A 
HETATM   19  C   UNL     1      26.614  48.898  48.796  1.00  0.00     0.077 A 
HETATM   20  C   UNL     1      26.050  49.929  48.047  1.00  0.00     0.039 A 
HETATM   21  C   UNL     1      24.667  50.109  48.042  1.00  0.00     0.022 A 
HETATM   22  C   UNL     1      23.856  49.253  48.788  1.00  0.00     0.012 A 
HETATM   23 BR   UNL     1      21.981  49.500  48.781  1.00  0.00    -0.051 Br
HETATM   24  C   UNL     1      24.411  48.217  49.540  1.00  0.00     0.034 A 
BRANCH  19  25
HETATM   25  O   UNL     1      27.977  48.792  48.749  1.00  0.00    -0.360 OA
HETATM   26  H   UNL     1      28.211  48.003  48.207  1.00  0.00     0.217 HD
ENDBRANCH  19  25
ENDBRANCH  17  18
ENDBRANCH   2  16
TORSDOF 5
ENDMDL
MODEL 4
REMARK VINA RESULT:      -8.5      3.608      9.707
REMARK  5 active torsions:
REMARK  status: ('A' for Active; 'I' for Inactive)
REMARK    1  A    between atoms: C_6  and  C_7 
REMARK    2  A    between atoms: C_7  and  C_8 
REMARK       I    between atoms: C_8  and  N_9 
REMARK    3  A    between atoms: N_9  and  N_10 
REMARK    4  A    between atoms: C_11  and  C_12 
REMARK    5  A    between atoms: C_13  and  O_14 
ROOT
HETATM    1  C   UNL     1      25.489  46.598  53.033  1.00  0.00     0.244 C 
HETATM    2  N   UNL     1      25.185  46.528  51.686  1.00  0.00    -0.247 N 
HETATM    3  O   UNL     1      25.579  47.655  53.662  1.00  0.00    -0.271 OA
HETATM    4  H   UNL     1      25.246  45.620  51.215  1.00  0.00     0.192 HD
ENDROOT
BRANCH   1   5
HETATM    5  C   UNL     1      25.601  45.269  53.759  1.00  0.00     0.183 C 
BRANCH   5   6
HETATM    6  C   UNL     1      26.947  44.989  54.345  1.00  0.00     0.114 A 
HETATM    7  N   UNL     1      27.658  45.763  55.144  1.00  0.00    -0.233 NA
HETATM    8  C   UNL     1      28.836  45.086  55.368  1.00  0.00     0.085 A 
HETATM    9  C   UNL     1      28.854  43.885  54.671  1.00  0.00     0.062 A 
HETATM   10  C   UNL     1      29.942  45.440  56.152  1.00  0.00     0.034 A 
HETATM   11  C   UNL     1      29.933  42.999  54.693  1.00  0.00     0.032 A 
HETATM   12  N   UNL     1      27.641  43.843  54.033  1.00  0.00    -0.342 N 
HETATM   13  C   UNL     1      31.032  43.372  55.476  1.00  0.00     0.002 A 
HETATM   14  C   UNL     1      31.039  44.569  56.197  1.00  0.00     0.002 A 
HETATM   15  H   UNL     1      27.319  43.100  53.429  1.00  0.00     0.167 HD
ENDBRANCH   5   6
ENDBRANCH   1   5
BRANCH   2  16
HETATM   16  N   UNL     1      24.975  47.666  50.973  1.00  0.00    -0.184 NA
HETATM   17  C   UNL     1      24.075  47.583  50.047  1.00  0.00     0.153 C 
BRANCH  17  18
HETATM   18  C   UNL     1      23.749  48.754  49.209  1.00  0.00     0.017 A 
HETATM   19  C   UNL     1      24.739  49.490  48.546  1.00  0.00     0.077 A 
HETATM   20  C   UNL     1      24.392  50.592  47.767  1.00  0.00     0.039 A 
HETATM   21  C   UNL     1      23.053  50.966  47.647  1.00  0.00     0.022 A 
HETATM   22  C   UNL     1      22.069  50.231  48.309  1.00  0.00     0.012 A 
HETATM   23 BR   UNL     1      20.255  50.741  48.146  1.00  0.00    -0.051 Br
HETATM   24  C   UNL     1      22.406  49.126  49.091  1.00  0.00     0.034 A 
BRANCH  19  25
HETATM   25  O   UNL     1      26.072  49.193  48.613  1.00  0.00    -0.360 OA
HETATM   26  H   UNL     1      26.583  49.963  48.270  1.00  0.00     0.217 HD
ENDBRANCH  19  25
ENDBRANCH  17  18
ENDBRANCH   2  16
TORSDOF 5
ENDMDL
MODEL 5
REMARK VINA RESULT:      -8.4      2.552      3.662
REMARK  5 active torsions:
REMARK  status: ('A' for Active; 'I' for Inactive)
REMARK    1  A    between atoms: C_6  and  C_7 
REMARK    2  A    between atoms: C_7  and  C_8 
REMARK       I    between atoms: C_8  and  N_9 
REMARK    3  A    between atoms: N_9  and  N_10 
REMARK    4  A    between atoms: C_11  and  C_12 
REMARK    5  A    between atoms: C_13  and  O_14 
ROOT
HETATM    1  C   UNL     1      25.606  46.172  51.915  1.00  0.00     0.244 C 
HETATM    2  N   UNL     1      26.456  45.242  52.483  1.00  0.00    -0.247 N 
HETATM    3  O   UNL     1      25.306  47.244  52.448  1.00  0.00    -0.271 OA
HETATM    4  H   UNL     1      26.559  44.329  52.030  1.00  0.00     0.192 HD
ENDROOT
BRANCH   1   5
HETATM    5  C   UNL     1      25.126  45.862  50.508  1.00  0.00     0.183 C 
BRANCH   5   6
HETATM    6  C   UNL     1      24.432  46.993  49.821  1.00  0.00     0.114 A 
HETATM    7  N   UNL     1      23.207  47.011  49.328  1.00  0.00    -0.233 NA
HETATM    8  C   UNL     1      23.052  48.255  48.759  1.00  0.00     0.085 A 
HETATM    9  C   UNL     1      24.216  49.003  48.885  1.00  0.00     0.062 A 
HETATM   10  C   UNL     1      21.945  48.814  48.107  1.00  0.00     0.034 A 
HETATM   11  C   UNL     1      24.355  50.297  48.380  1.00  0.00     0.032 A 
HETATM   12  N   UNL     1      25.076  48.183  49.567  1.00  0.00    -0.342 N 
HETATM   13  C   UNL     1      23.241  50.838  47.727  1.00  0.00     0.002 A 
HETATM   14  C   UNL     1      22.054  50.114  47.595  1.00  0.00     0.002 A 
HETATM   15  H   UNL     1      26.024  48.411  49.828  1.00  0.00     0.167 HD
ENDBRANCH   5   6
ENDBRANCH   1   5
BRANCH   2  16
HETATM   16  N   UNL     1      27.009  45.477  53.703  1.00  0.00    -0.184 NA
HETATM   17  C   UNL     1      28.164  44.928  53.904  1.00  0.00     0.153 C 
BRANCH  17  18
HETATM   18  C   UNL     1      28.871  45.116  55.186  1.00  0.00     0.017 A 
HETATM   19  C   UNL     1      28.521  46.132  56.085  1.00  0.00     0.077 A 
HETATM   20  C   UNL     1      29.216  46.279  57.284  1.00  0.00     0.039 A 
HETATM   21  C   UNL     1      30.264  45.412  57.592  1.00  0.00     0.022 A 
HETATM   22  C   UNL     1      30.611  44.401  56.695  1.00  0.00     0.012 A 
HETATM   23 BR   UNL     1      32.034  43.228  57.115  1.00  0.00    -0.051 Br
HETATM   24  C   UNL     1      29.921  44.245  55.492  1.00  0.00     0.034 A 
BRANCH  19  25
HETATM   25  O   UNL     1      27.510  47.024  55.858  1.00  0.00    -0.360 OA
HETATM   26  H   UNL     1      27.894  47.932  55.829  1.00  0.00     0.217 HD
ENDBRANCH  19  25
ENDBRANCH  17  18
ENDBRANCH   2  16
TORSDOF 5
ENDMDL
MODEL 6
REMARK VINA RESULT:      -8.2      4.421      9.285
REMARK  5 active torsions:
REMARK  status: ('A' for Active; 'I' for Inactive)
REMARK    1  A    between atoms: C_6  and  C_7 
REMARK    2  A    between atoms: C_7  and  C_8 
REMARK       I    between atoms: C_8  and  N_9 
REMARK    3  A    between atoms: N_9  and  N_10 
REMARK    4  A    between atoms: C_11  and  C_12 
REMARK    5  A    between atoms: C_13  and  O_14 
ROOT
HETATM    1  C   UNL     1      25.563  43.654  50.034  1.00  0.00     0.244 C 
HETATM    2  N   UNL     1      26.293  44.816  50.196  1.00  0.00    -0.247 N 
HETATM    3  O   UNL     1      24.666  43.518  49.198  1.00  0.00    -0.271 OA
HETATM    4  H   UNL     1      26.938  44.885  50.990  1.00  0.00     0.192 HD
ENDROOT
BRANCH   1   5
HETATM    5  C   UNL     1      26.001  42.470  50.878  1.00  0.00     0.183 C 
BRANCH   5   6
HETATM    6  C   UNL     1      26.997  42.795  51.943  1.00  0.00     0.114 A 
HETATM    7  N   UNL     1      26.859  43.637  52.950  1.00  0.00    -0.233 NA
HETATM    8  C   UNL     1      28.062  43.621  53.618  1.00  0.00     0.085 A 
HETATM    9  C   UNL     1      28.962  42.769  52.991  1.00  0.00     0.062 A 
HETATM   10  C   UNL     1      28.462  44.315  54.768  1.00  0.00     0.034 A 
HETATM   11  C   UNL     1      30.271  42.570  53.437  1.00  0.00     0.032 A 
HETATM   12  N   UNL     1      28.262  42.253  51.933  1.00  0.00    -0.342 N 
HETATM   13  C   UNL     1      30.655  43.276  54.583  1.00  0.00     0.002 A 
HETATM   14  C   UNL     1      29.768  44.131  55.242  1.00  0.00     0.002 A 
HETATM   15  H   UNL     1      28.619  41.594  51.255  1.00  0.00     0.167 HD
ENDBRANCH   5   6
ENDBRANCH   1   5
BRANCH   2  16
HETATM   16  N   UNL     1      26.033  45.901  49.419  1.00  0.00    -0.184 NA
HETATM   17  C   UNL     1      25.608  46.948  50.051  1.00  0.00     0.153 C 
BRANCH  17  18
HETATM   18  C   UNL     1      25.299  48.192  49.320  1.00  0.00     0.017 A 
HETATM   19  C   UNL     1      26.285  48.916  48.636  1.00  0.00     0.077 A 
HETATM   20  C   UNL     1      25.953  50.089  47.960  1.00  0.00     0.039 A 
HETATM   21  C   UNL     1      24.635  50.546  47.964  1.00  0.00     0.022 A 
HETATM   22  C   UNL     1      23.656  49.824  48.646  1.00  0.00     0.012 A 
HETATM   23 BR   UNL     1      21.870  50.447  48.651  1.00  0.00    -0.051 Br
HETATM   24  C   UNL     1      23.977  48.648  49.325  1.00  0.00     0.034 A 
BRANCH  19  25
HETATM   25  O   UNL     1      27.598  48.539  48.586  1.00  0.00    -0.360 OA
HETATM   26  H   UNL     1      28.064  48.924  49.365  1.00  0.00     0.217 HD
ENDBRANCH  19  25
ENDBRANCH  17  18
ENDBRANCH   2  16
TORSDOF 5
ENDMDL
MODEL 7
REMARK VINA RESULT:      -8.1      6.772     10.098
REMARK  5 active torsions:
REMARK  status: ('A' for Active; 'I' for Inactive)
REMARK    1  A    between atoms: C_6  and  C_7 
REMARK    2  A    between atoms: C_7  and  C_8 
REMARK       I    between atoms: C_8  and  N_9 
REMARK    3  A    between atoms: N_9  and  N_10 
REMARK    4  A    between atoms: C_11  and  C_12 
REMARK    5  A    between atoms: C_13  and  O_14 
ROOT
HETATM    1  C   UNL     1      26.717  45.044  53.168  1.00  0.00     0.244 C 
HETATM    2  N   UNL     1      27.702  44.501  52.366  1.00  0.00    -0.247 N 
HETATM    3  O   UNL     1      25.546  44.655  53.176  1.00  0.00    -0.271 OA
HETATM    4  H   UNL     1      28.619  44.959  52.334  1.00  0.00     0.192 HD
ENDROOT
BRANCH   1   5
HETATM    5  C   UNL     1      27.172  46.103  54.157  1.00  0.00     0.183 C 
BRANCH   5   6
HETATM    6  C   UNL     1      28.289  45.681  55.055  1.00  0.00     0.114 A 
HETATM    7  N   UNL     1      29.148  44.695  54.870  1.00  0.00    -0.233 NA
HETATM    8  C   UNL     1      29.945  44.680  55.991  1.00  0.00     0.085 A 
HETATM    9  C   UNL     1      29.549  45.660  56.892  1.00  0.00     0.062 A 
HETATM   10  C   UNL     1      31.027  43.848  56.315  1.00  0.00     0.034 A 
HETATM   11  C   UNL     1      30.166  45.863  58.128  1.00  0.00     0.032 A 
HETATM   12  N   UNL     1      28.499  46.287  56.273  1.00  0.00    -0.342 N 
HETATM   13  C   UNL     1      31.240  45.020  58.438  1.00  0.00     0.002 A 
HETATM   14  C   UNL     1      31.668  44.031  57.547  1.00  0.00     0.002 A 
HETATM   15  H   UNL     1      27.965  47.055  56.653  1.00  0.00     0.167 HD
ENDBRANCH   5   6
ENDBRANCH   1   5
BRANCH   2  16
HETATM   16  N   UNL     1      27.406  43.484  51.514  1.00  0.00    -0.184 NA
HETATM   17  C   UNL     1      27.806  42.311  51.889  1.00  0.00     0.153 C 
BRANCH  17  18
HETATM   18  C   UNL     1      27.538  41.124  51.053  1.00  0.00     0.017 A 
HETATM   19  C   UNL     1      26.260  40.841  50.555  1.00  0.00     0.077 A 
HETATM   20  C   UNL     1      26.046  39.707  49.772  1.00  0.00     0.039 A 
HETATM   21  C   UNL     1      27.108  38.850  49.484  1.00  0.00     0.022 A 
HETATM   22  C   UNL     1      28.380  39.134  49.982  1.00  0.00     0.012 A 
HETATM   23 BR   UNL     1      29.817  37.969  49.591  1.00  0.00    -0.051 Br
HETATM   24  C   UNL     1      28.605  40.267  50.766  1.00  0.00     0.034 A 
BRANCH  19  25
HETATM   25  O   UNL     1      25.167  41.627  50.793  1.00  0.00    -0.360 OA
HETATM   26  H   UNL     1      25.409  42.565  50.609  1.00  0.00     0.217 HD
ENDBRANCH  19  25
ENDBRANCH  17  18
ENDBRANCH   2  16
TORSDOF 5
ENDMDL
MODEL 8
REMARK VINA RESULT:      -8.1      4.058      9.840
REMARK  5 active torsions:
REMARK  status: ('A' for Active; 'I' for Inactive)
REMARK    1  A    between atoms: C_6  and  C_7 
REMARK    2  A    between atoms: C_7  and  C_8 
REMARK       I    between atoms: C_8  and  N_9 
REMARK    3  A    between atoms: N_9  and  N_10 
REMARK    4  A    between atoms: C_11  and  C_12 
REMARK    5  A    between atoms: C_13  and  O_14 
ROOT
HETATM    1  C   UNL     1      26.407  46.897  54.549  1.00  0.00     0.244 C 
HETATM    2  N   UNL     1      26.077  47.707  53.480  1.00  0.00    -0.247 N 
HETATM    3  O   UNL     1      25.954  45.762  54.717  1.00  0.00    -0.271 OA
HETATM    4  H   UNL     1      26.405  48.678  53.479  1.00  0.00     0.192 HD
ENDROOT
BRANCH   1   5
HETATM    5  C   UNL     1      27.476  47.433  55.485  1.00  0.00     0.183 C 
BRANCH   5   6
HETATM    6  C   UNL     1      28.487  46.425  55.923  1.00  0.00     0.114 A 
HETATM    7  N   UNL     1      29.110  46.356  57.086  1.00  0.00    -0.233 NA
HETATM    8  C   UNL     1      29.972  45.287  56.984  1.00  0.00     0.085 A 
HETATM    9  C   UNL     1      29.891  44.706  55.725  1.00  0.00     0.062 A 
HETATM   10  C   UNL     1      30.862  44.756  57.928  1.00  0.00     0.034 A 
HETATM   11  C   UNL     1      30.667  43.614  55.331  1.00  0.00     0.032 A 
HETATM   12  N   UNL     1      28.938  45.442  55.071  1.00  0.00    -0.342 N 
HETATM   13  C   UNL     1      31.555  43.101  56.284  1.00  0.00     0.002 A 
HETATM   14  C   UNL     1      31.650  43.657  57.562  1.00  0.00     0.002 A 
HETATM   15  H   UNL     1      28.629  45.294  54.121  1.00  0.00     0.167 HD
ENDBRANCH   5   6
ENDBRANCH   1   5
BRANCH   2  16
HETATM   16  N   UNL     1      25.196  47.273  52.539  1.00  0.00    -0.184 NA
HETATM   17  C   UNL     1      25.726  46.715  51.498  1.00  0.00     0.153 C 
BRANCH  17  18
HETATM   18  C   UNL     1      24.874  46.194  50.411  1.00  0.00     0.017 A 
HETATM   19  C   UNL     1      23.915  46.991  49.773  1.00  0.00     0.077 A 
HETATM   20  C   UNL     1      23.127  46.461  48.753  1.00  0.00     0.039 A 
HETATM   21  C   UNL     1      23.293  45.131  48.365  1.00  0.00     0.022 A 
HETATM   22  C   UNL     1      24.248  44.339  49.003  1.00  0.00     0.012 A 
HETATM   23 BR   UNL     1      24.468  42.536  48.477  1.00  0.00    -0.051 Br
HETATM   24  C   UNL     1      25.042  44.860  50.025  1.00  0.00     0.034 A 
BRANCH  19  25
HETATM   25  O   UNL     1      23.688  48.301  50.094  1.00  0.00    -0.360 OA
HETATM   26  H   UNL     1      24.448  48.627  50.632  1.00  0.00     0.217 HD
ENDBRANCH  19  25
ENDBRANCH  17  18
ENDBRANCH   2  16
TORSDOF 5
ENDMDL
MODEL 9
REMARK VINA RESULT:      -8.0      6.287      8.381
REMARK  5 active torsions:
REMARK  status: ('A' for Active; 'I' for Inactive)
REMARK    1  A    between atoms: C_6  and  C_7 
REMARK    2  A    between atoms: C_7  and  C_8 
REMARK       I    between atoms: C_8  and  N_9 
REMARK    3  A    between atoms: N_9  and  N_10 
REMARK    4  A    between atoms: C_11  and  C_12 
REMARK    5  A    between atoms: C_13  and  O_14 
ROOT
HETATM    1  C   UNL     1      25.074  43.625  51.781  1.00  0.00     0.244 C 
HETATM    2  N   UNL     1      26.290  43.162  52.247  1.00  0.00    -0.247 N 
HETATM    3  O   UNL     1      24.412  44.501  52.344  1.00  0.00    -0.271 OA
HETATM    4  H   UNL     1      26.717  42.352  51.786  1.00  0.00     0.192 HD
ENDROOT
BRANCH   1   5
HETATM    5  C   UNL     1      24.621  43.073  50.441  1.00  0.00     0.183 C 
BRANCH   5   6
HETATM    6  C   UNL     1      25.507  42.016  49.867  1.00  0.00     0.114 A 
HETATM    7  N   UNL     1      25.746  40.811  50.351  1.00  0.00    -0.233 NA
HETATM    8  C   UNL     1      26.659  40.240  49.494  1.00  0.00     0.085 A 
HETATM    9  C   UNL     1      27.003  41.123  48.479  1.00  0.00     0.062 A 
HETATM   10  C   UNL     1      27.246  38.967  49.524  1.00  0.00     0.034 A 
HETATM   11  C   UNL     1      27.926  40.820  47.476  1.00  0.00     0.032 A 
HETATM   12  N   UNL     1      26.255  42.242  48.734  1.00  0.00    -0.342 N 
HETATM   13  C   UNL     1      28.508  39.547  47.525  1.00  0.00     0.002 A 
HETATM   14  C   UNL     1      28.173  38.633  48.527  1.00  0.00     0.002 A 
HETATM   15  H   UNL     1      26.261  43.092  48.188  1.00  0.00     0.167 HD
ENDBRANCH   5   6
ENDBRANCH   1   5
BRANCH   2  16
HETATM   16  N   UNL     1      26.820  43.666  53.393  1.00  0.00    -0.184 NA
HETATM   17  C   UNL     1      28.075  43.979  53.334  1.00  0.00     0.153 C 
BRANCH  17  18
HETATM   18  C   UNL     1      28.763  44.544  54.511  1.00  0.00     0.017 A 
HETATM   19  C   UNL     1      28.402  45.781  55.059  1.00  0.00     0.077 A 
HETATM   20  C   UNL     1      29.080  46.283  56.169  1.00  0.00     0.039 A 
HETATM   21  C   UNL     1      30.122  45.551  56.737  1.00  0.00     0.022 A 
HETATM   22  C   UNL     1      30.481  44.319  56.189  1.00  0.00     0.012 A 
HETATM   23 BR   UNL     1      31.897  43.330  56.960  1.00  0.00    -0.051 Br
HETATM   24  C   UNL     1      29.808  43.808  55.078  1.00  0.00     0.034 A 
BRANCH  19  25
HETATM   25  O   UNL     1      27.395  46.561  54.561  1.00  0.00    -0.360 OA
HETATM   26  H   UNL     1      27.254  47.319  55.175  1.00  0.00     0.217 HD
ENDBRANCH  19  25
ENDBRANCH  17  18
ENDBRANCH   2  16
TORSDOF 5
ENDMDL
MODEL 10
REMARK VINA RESULT:      -7.7      3.865      9.782
REMARK  5 active torsions:
REMARK  status: ('A' for Active; 'I' for Inactive)
REMARK    1  A    between atoms: C_6  and  C_7 
REMARK    2  A    between atoms: C_7  and  C_8 
REMARK       I    between atoms: C_8  and  N_9 
REMARK    3  A    between atoms: N_9  and  N_10 
REMARK    4  A    between atoms: C_11  and  C_12 
REMARK    5  A    between atoms: C_13  and  O_14 
ROOT
HETATM    1  C   UNL     1      25.601  44.228  52.115  1.00  0.00     0.244 C 
HETATM    2  N   UNL     1      25.652  44.963  50.946  1.00  0.00    -0.247 N 
HETATM    3  O   UNL     1      24.692  44.319  52.945  1.00  0.00    -0.271 OA
HETATM    4  H   UNL     1      26.499  44.914  50.371  1.00  0.00     0.192 HD
ENDROOT
BRANCH   1   5
HETATM    5  C   UNL     1      26.689  43.183  52.292  1.00  0.00     0.183 C 
BRANCH   5   6
HETATM    6  C   UNL     1      27.757  43.552  53.270  1.00  0.00     0.114 A 
HETATM    7  N   UNL     1      28.789  42.823  53.654  1.00  0.00    -0.233 NA
HETATM    8  C   UNL     1      29.450  43.579  54.596  1.00  0.00     0.085 A 
HETATM    9  C   UNL     1      28.794  44.784  54.809  1.00  0.00     0.062 A 
HETATM   10  C   UNL     1      30.616  43.296  55.319  1.00  0.00     0.034 A 
HETATM   11  C   UNL     1      29.227  45.743  55.727  1.00  0.00     0.032 A 
HETATM   12  N   UNL     1      27.725  44.747  53.952  1.00  0.00    -0.342 N 
HETATM   13  C   UNL     1      30.390  45.441  56.446  1.00  0.00     0.002 A 
HETATM   14  C   UNL     1      31.078  44.242  56.244  1.00  0.00     0.002 A 
HETATM   15  H   UNL     1      27.027  45.470  53.849  1.00  0.00     0.167 HD
ENDBRANCH   5   6
ENDBRANCH   1   5
BRANCH   2  16
HETATM   16  N   UNL     1      24.670  45.858  50.659  1.00  0.00    -0.184 NA
HETATM   17  C   UNL     1      24.277  45.874  49.425  1.00  0.00     0.153 C 
BRANCH  17  18
HETATM   18  C   UNL     1      23.210  46.796  48.989  1.00  0.00     0.017 A 
HETATM   19  C   UNL     1      21.981  46.332  48.504  1.00  0.00     0.077 A 
HETATM   20  C   UNL     1      20.999  47.235  48.099  1.00  0.00     0.039 A 
HETATM   21  C   UNL     1      21.242  48.607  48.175  1.00  0.00     0.022 A 
HETATM   22  C   UNL     1      22.467  49.066  48.658  1.00  0.00     0.012 A 
HETATM   23 BR   UNL     1      22.793  50.926  48.758  1.00  0.00    -0.051 Br
HETATM   24  C   UNL     1      23.456  48.171  49.067  1.00  0.00     0.034 A 
BRANCH  19  25
HETATM   25  O   UNL     1      21.665  45.006  48.395  1.00  0.00    -0.360 OA
HETATM   26  H   UNL     1      20.691  44.925  48.265  1.00  0.00     0.217 HD
ENDBRANCH  19  25
ENDBRANCH  17  18
ENDBRANCH   2  16
TORSDOF 5
ENDMDL
