MODEL 1
REMARK VINA RESULT:      -8.1      0.000      0.000
REMARK  13 active torsions:
REMARK  status: ('A' for Active; 'I' for Inactive)
REMARK    1  A    between atoms: C_2  and  N_3 
REMARK    2  A    between atoms: N_3  and  C_5 
REMARK    3  A    between atoms: N_3  and  C_34 
REMARK    4  A    between atoms: C_5  and  C_6 
REMARK    5  A    between atoms: N_7  and  C_8 
REMARK    6  A    between atoms: C_12  and  N_13 
REMARK    7  A    between atoms: C_16  and  C_17 
REMARK       I    between atoms: C_17  and  N_18 
REMARK    8  A    between atoms: N_18  and  N_19 
REMARK    9  A    between atoms: C_20  and  C_21 
REMARK   10  A    between atoms: C_22  and  O_23 
REMARK   11  A    between atoms: C_25  and  N_26 
REMARK   12  A    between atoms: N_26  and  C_27 
REMARK   13  A    between atoms: N_26  and  C_29 
ROOT
HETATM    1  C   UNL     1      22.469  47.663  48.837  1.00  0.00     0.096 A 
HETATM    2  N   UNL     1      21.431  48.579  48.665  1.00  0.00    -0.215 N 
HETATM    3  N   UNL     1      21.844  49.789  49.136  1.00  0.00     0.012 NA
HETATM    4  N   UNL     1      23.038  49.663  49.691  1.00  0.00    -0.152 NA
HETATM    5  C   UNL     1      23.433  48.370  49.543  1.00  0.00     0.170 A 
ENDROOT
BRANCH   5   6
HETATM    6  C   UNL     1      24.685  47.838  50.060  1.00  0.00     0.293 C 
HETATM    7  N   UNL     1      24.552  47.089  51.213  1.00  0.00    -0.242 N 
HETATM    8  H   UNL     1      23.632  46.938  51.622  1.00  0.00     0.192 HD
HETATM    9  O   UNL     1      25.736  48.065  49.461  1.00  0.00    -0.264 OA
BRANCH   7  10
HETATM   10  N   UNL     1      25.662  46.582  51.815  1.00  0.00    -0.183 NA
HETATM   11  C   UNL     1      25.708  46.693  53.107  1.00  0.00     0.153 C 
BRANCH  11  12
HETATM   12  C   UNL     1      26.865  46.189  53.872  1.00  0.00     0.016 A 
HETATM   13  C   UNL     1      27.228  44.843  53.882  1.00  0.00     0.079 A 
HETATM   14  C   UNL     1      28.328  44.411  54.630  1.00  0.00     0.066 A 
HETATM   15  C   UNL     1      29.108  45.297  55.395  1.00  0.00     0.032 A 
HETATM   16  C   UNL     1      28.718  46.649  55.358  1.00  0.00     0.030 A 
HETATM   17  C   UNL     1      27.617  47.097  54.613  1.00  0.00     0.018 A 
BRANCH  13  18
HETATM   18  O   UNL     1      26.551  43.880  53.179  1.00  0.00    -0.360 OA
HETATM   19  H   UNL     1      27.209  43.376  52.656  1.00  0.00     0.217 HD
ENDBRANCH  13  18
BRANCH  15  20
HETATM   20  N   UNL     1      30.191  44.863  56.151  1.00  0.00    -0.382 N 
BRANCH  20  21
HETATM   21  C   UNL     1      30.751  45.679  57.238  1.00  0.00     0.118 C 
HETATM   22  C   UNL     1      29.803  45.743  58.426  1.00  0.00     0.026 C 
ENDBRANCH  20  21
BRANCH  20  23
HETATM   23  C   UNL     1      30.870  43.586  55.877  1.00  0.00     0.118 C 
HETATM   24  C   UNL     1      31.704  43.127  57.066  1.00  0.00     0.026 C 
ENDBRANCH  20  23
ENDBRANCH  15  20
ENDBRANCH  11  12
ENDBRANCH   7  10
ENDBRANCH   5   6
BRANCH   1  25
HETATM   25  C   UNL     1      22.530  46.281  48.295  1.00  0.00     0.296 C 
BRANCH  25  26
HETATM   26  N   UNL     1      21.761  45.250  49.103  1.00  0.00    -0.066 N 
HETATM   27  H   UNL     1      21.447  45.749  49.961  1.00  0.00     0.280 HD
BRANCH  26  28
HETATM   28  C   UNL     1      22.667  44.125  49.578  1.00  0.00     0.231 C 
HETATM   29  C   UNL     1      23.972  44.117  48.802  1.00  0.00     0.034 C 
ENDBRANCH  26  28
BRANCH  26  30
HETATM   30  C   UNL     1      20.543  44.734  48.368  1.00  0.00     0.231 C 
HETATM   31  C   UNL     1      20.712  44.887  46.866  1.00  0.00     0.034 C 
ENDBRANCH  26  30
ENDBRANCH  25  26
ENDBRANCH   1  25
BRANCH   2  32
HETATM   32  C   UNL     1      20.122  48.378  48.164  1.00  0.00     0.225 A 
HETATM   33  N   UNL     1      19.864  48.555  46.866  1.00  0.00    -0.081 NA
HETATM   34  O   UNL     1      18.506  48.241  46.751  1.00  0.00    -0.103 OA
HETATM   35  N   UNL     1      17.976  47.856  47.974  1.00  0.00    -0.083 NA
HETATM   36  C   UNL     1      18.975  47.937  48.849  1.00  0.00     0.201 A 
BRANCH  36  37
HETATM   37  N   UNL     1      18.870  47.641  50.153  1.00  0.00    -0.379 N 
HETATM   38  H   UNL     1      19.627  47.875  50.791  1.00  0.00     0.158 HD
HETATM   39  H   UNL     1      17.996  47.385  50.607  1.00  0.00     0.158 HD
ENDBRANCH  36  37
ENDBRANCH   2  32
TORSDOF 13
ENDMDL
MODEL 2
REMARK VINA RESULT:      -7.7      3.028     10.681
REMARK  13 active torsions:
REMARK  status: ('A' for Active; 'I' for Inactive)
REMARK    1  A    between atoms: C_2  and  N_3 
REMARK    2  A    between atoms: N_3  and  C_5 
REMARK    3  A    between atoms: N_3  and  C_34 
REMARK    4  A    between atoms: C_5  and  C_6 
REMARK    5  A    between atoms: N_7  and  C_8 
REMARK    6  A    between atoms: C_12  and  N_13 
REMARK    7  A    between atoms: C_16  and  C_17 
REMARK       I    between atoms: C_17  and  N_18 
REMARK    8  A    between atoms: N_18  and  N_19 
REMARK    9  A    between atoms: C_20  and  C_21 
REMARK   10  A    between atoms: C_22  and  O_23 
REMARK   11  A    between atoms: C_25  and  N_26 
REMARK   12  A    between atoms: N_26  and  C_27 
REMARK   13  A    between atoms: N_26  and  C_29 
ROOT
HETATM    1  C   UNL     1      26.634  45.207  51.940  1.00  0.00     0.096 A 
HETATM    2  N   UNL     1      27.450  44.236  51.357  1.00  0.00    -0.215 N 
HETATM    3  N   UNL     1      27.495  44.466  50.014  1.00  0.00     0.012 NA
HETATM    4  N   UNL     1      26.674  45.455  49.707  1.00  0.00    -0.152 NA
HETATM    5  C   UNL     1      26.118  45.911  50.860  1.00  0.00     0.170 A 
ENDROOT
BRANCH   5   6
HETATM    6  C   UNL     1      25.130  46.978  50.921  1.00  0.00     0.293 C 
HETATM    7  N   UNL     1      24.399  47.142  49.760  1.00  0.00    -0.242 N 
HETATM    8  H   UNL     1      24.564  46.535  48.960  1.00  0.00     0.192 HD
HETATM    9  O   UNL     1      25.001  47.629  51.957  1.00  0.00    -0.264 OA
BRANCH   7  10
HETATM   10  N   UNL     1      23.479  48.143  49.684  1.00  0.00    -0.183 NA
HETATM   11  C   UNL     1      22.361  47.842  49.098  1.00  0.00     0.153 C 
BRANCH  11  12
HETATM   12  C   UNL     1      21.289  48.846  48.945  1.00  0.00     0.016 A 
HETATM   13  C   UNL     1      19.971  48.598  49.326  1.00  0.00     0.079 A 
HETATM   14  C   UNL     1      18.988  49.577  49.154  1.00  0.00     0.066 A 
HETATM   15  C   UNL     1      19.274  50.837  48.597  1.00  0.00     0.032 A 
HETATM   16  C   UNL     1      20.615  51.056  48.228  1.00  0.00     0.030 A 
HETATM   17  C   UNL     1      21.612  50.083  48.396  1.00  0.00     0.018 A 
BRANCH  13  18
HETATM   18  O   UNL     1      19.563  47.412  49.881  1.00  0.00    -0.360 OA
HETATM   19  H   UNL     1      18.635  47.260  49.605  1.00  0.00     0.217 HD
ENDBRANCH  13  18
BRANCH  15  20
HETATM   20  N   UNL     1      18.292  51.803  48.411  1.00  0.00    -0.382 N 
BRANCH  20  21
HETATM   21  C   UNL     1      17.793  52.150  47.073  1.00  0.00     0.118 C 
HETATM   22  C   UNL     1      17.747  50.930  46.166  1.00  0.00     0.026 C 
ENDBRANCH  20  21
BRANCH  20  23
HETATM   23  C   UNL     1      17.729  52.567  49.536  1.00  0.00     0.118 C 
HETATM   24  C   UNL     1      16.244  52.284  49.720  1.00  0.00     0.026 C 
ENDBRANCH  20  23
ENDBRANCH  15  20
ENDBRANCH  11  12
ENDBRANCH   7  10
ENDBRANCH   5   6
BRANCH   1  25
HETATM   25  C   UNL     1      26.456  45.457  53.394  1.00  0.00     0.296 C 
BRANCH  25  26
HETATM   26  N   UNL     1      27.697  45.970  54.103  1.00  0.00    -0.066 N 
HETATM   27  H   UNL     1      28.489  45.767  53.460  1.00  0.00     0.280 HD
BRANCH  26  28
HETATM   28  C   UNL     1      27.976  45.186  55.376  1.00  0.00     0.231 C 
HETATM   29  C   UNL     1      29.427  45.339  55.798  1.00  0.00     0.034 C 
ENDBRANCH  26  28
BRANCH  26  30
HETATM   30  C   UNL     1      27.642  47.462  54.350  1.00  0.00     0.231 C 
HETATM   31  C   UNL     1      26.428  47.829  55.187  1.00  0.00     0.034 C 
ENDBRANCH  26  30
ENDBRANCH  25  26
ENDBRANCH   1  25
BRANCH   2  32
HETATM   32  C   UNL     1      28.105  43.130  51.950  1.00  0.00     0.225 A 
HETATM   33  N   UNL     1      29.279  43.293  52.562  1.00  0.00    -0.081 NA
HETATM   34  O   UNL     1      29.587  42.015  53.037  1.00  0.00    -0.103 OA
HETATM   35  N   UNL     1      28.583  41.110  52.728  1.00  0.00    -0.083 NA
HETATM   36  C   UNL     1      27.663  41.799  52.057  1.00  0.00     0.201 A 
BRANCH  36  37
HETATM   37  N   UNL     1      26.521  41.281  51.581  1.00  0.00    -0.379 N 
HETATM   38  H   UNL     1      25.758  41.060  52.216  1.00  0.00     0.158 HD
HETATM   39  H   UNL     1      26.266  41.282  50.595  1.00  0.00     0.158 HD
ENDBRANCH  36  37
ENDBRANCH   2  32
TORSDOF 13
ENDMDL
MODEL 3
REMARK VINA RESULT:      -7.6      3.115     10.627
REMARK  13 active torsions:
REMARK  status: ('A' for Active; 'I' for Inactive)
REMARK    1  A    between atoms: C_2  and  N_3 
REMARK    2  A    between atoms: N_3  and  C_5 
REMARK    3  A    between atoms: N_3  and  C_34 
REMARK    4  A    between atoms: C_5  and  C_6 
REMARK    5  A    between atoms: N_7  and  C_8 
REMARK    6  A    between atoms: C_12  and  N_13 
REMARK    7  A    between atoms: C_16  and  C_17 
REMARK       I    between atoms: C_17  and  N_18 
REMARK    8  A    between atoms: N_18  and  N_19 
REMARK    9  A    between atoms: C_20  and  C_21 
REMARK   10  A    between atoms: C_22  and  O_23 
REMARK   11  A    between atoms: C_25  and  N_26 
REMARK   12  A    between atoms: N_26  and  C_27 
REMARK   13  A    between atoms: N_26  and  C_29 
ROOT
HETATM    1  C   UNL     1      26.389  44.493  51.608  1.00  0.00     0.096 A 
HETATM    2  N   UNL     1      27.455  43.658  51.268  1.00  0.00    -0.215 N 
HETATM    3  N   UNL     1      27.607  43.688  49.915  1.00  0.00     0.012 NA
HETATM    4  N   UNL     1      26.637  44.406  49.376  1.00  0.00    -0.152 NA
HETATM    5  C   UNL     1      25.865  44.891  50.385  1.00  0.00     0.170 A 
ENDROOT
BRANCH   5   6
HETATM    6  C   UNL     1      24.674  45.701  50.181  1.00  0.00     0.293 C 
HETATM    7  N   UNL     1      24.916  47.058  50.098  1.00  0.00    -0.242 N 
HETATM    8  H   UNL     1      25.868  47.414  50.166  1.00  0.00     0.192 HD
HETATM    9  O   UNL     1      23.576  45.154  50.085  1.00  0.00    -0.264 OA
BRANCH   7  10
HETATM   10  N   UNL     1      23.871  47.918  49.957  1.00  0.00    -0.183 NA
HETATM   11  C   UNL     1      23.392  48.037  48.757  1.00  0.00     0.153 C 
BRANCH  11  12
HETATM   12  C   UNL     1      22.264  48.947  48.475  1.00  0.00     0.016 A 
HETATM   13  C   UNL     1      22.275  50.291  48.848  1.00  0.00     0.079 A 
HETATM   14  C   UNL     1      21.179  51.113  48.567  1.00  0.00     0.066 A 
HETATM   15  C   UNL     1      20.032  50.634  47.908  1.00  0.00     0.032 A 
HETATM   16  C   UNL     1      20.056  49.275  47.541  1.00  0.00     0.030 A 
HETATM   17  C   UNL     1      21.149  48.439  47.816  1.00  0.00     0.018 A 
BRANCH  13  18
HETATM   18  O   UNL     1      23.331  50.880  49.494  1.00  0.00    -0.360 OA
HETATM   19  H   UNL     1      23.188  50.767  50.458  1.00  0.00     0.217 HD
ENDBRANCH  13  18
BRANCH  15  20
HETATM   20  N   UNL     1      18.937  51.448  47.644  1.00  0.00    -0.382 N 
BRANCH  20  21
HETATM   21  C   UNL     1      18.017  51.170  46.532  1.00  0.00     0.118 C 
HETATM   22  C   UNL     1      17.367  52.445  46.020  1.00  0.00     0.026 C 
ENDBRANCH  20  21
BRANCH  20  23
HETATM   23  C   UNL     1      18.661  52.660  48.432  1.00  0.00     0.118 C 
HETATM   24  C   UNL     1      17.956  52.331  49.741  1.00  0.00     0.026 C 
ENDBRANCH  20  23
ENDBRANCH  15  20
ENDBRANCH  11  12
ENDBRANCH   7  10
ENDBRANCH   5   6
BRANCH   1  25
HETATM   25  C   UNL     1      25.994  44.911  52.978  1.00  0.00     0.296 C 
BRANCH  25  26
HETATM   26  N   UNL     1      26.888  45.969  53.600  1.00  0.00    -0.066 N 
HETATM   27  H   UNL     1      27.743  45.992  53.006  1.00  0.00     0.280 HD
BRANCH  26  28
HETATM   28  C   UNL     1      27.352  45.561  54.989  1.00  0.00     0.231 C 
HETATM   29  C   UNL     1      28.866  45.612  55.092  1.00  0.00     0.034 C 
ENDBRANCH  26  28
BRANCH  26  30
HETATM   30  C   UNL     1      26.250  47.341  53.588  1.00  0.00     0.231 C 
HETATM   31  C   UNL     1      26.204  47.930  54.987  1.00  0.00     0.034 C 
ENDBRANCH  26  30
ENDBRANCH  25  26
ENDBRANCH   1  25
BRANCH   2  32
HETATM   32  C   UNL     1      28.254  42.832  52.094  1.00  0.00     0.225 A 
HETATM   33  N   UNL     1      29.407  43.289  52.588  1.00  0.00    -0.081 NA
HETATM   34  O   UNL     1      29.884  42.226  53.360  1.00  0.00    -0.103 OA
HETATM   35  N   UNL     1      28.999  41.158  53.341  1.00  0.00    -0.083 NA
HETATM   36  C   UNL     1      27.989  41.532  52.561  1.00  0.00     0.201 A 
BRANCH  36  37
HETATM   37  N   UNL     1      26.916  40.774  52.288  1.00  0.00    -0.379 N 
HETATM   38  H   UNL     1      27.029  39.890  51.797  1.00  0.00     0.158 HD
HETATM   39  H   UNL     1      26.004  40.906  52.722  1.00  0.00     0.158 HD
ENDBRANCH  36  37
ENDBRANCH   2  32
TORSDOF 13
ENDMDL
MODEL 4
REMARK VINA RESULT:      -7.5      2.201     10.682
REMARK  13 active torsions:
REMARK  status: ('A' for Active; 'I' for Inactive)
REMARK    1  A    between atoms: C_2  and  N_3 
REMARK    2  A    between atoms: N_3  and  C_5 
REMARK    3  A    between atoms: N_3  and  C_34 
REMARK    4  A    between atoms: C_5  and  C_6 
REMARK    5  A    between atoms: N_7  and  C_8 
REMARK    6  A    between atoms: C_12  and  N_13 
REMARK    7  A    between atoms: C_16  and  C_17 
REMARK       I    between atoms: C_17  and  N_18 
REMARK    8  A    between atoms: N_18  and  N_19 
REMARK    9  A    between atoms: C_20  and  C_21 
REMARK   10  A    between atoms: C_22  and  O_23 
REMARK   11  A    between atoms: C_25  and  N_26 
REMARK   12  A    between atoms: N_26  and  C_27 
REMARK   13  A    between atoms: N_26  and  C_29 
ROOT
HETATM    1  C   UNL     1      27.970  44.917  55.074  1.00  0.00     0.096 A 
HETATM    2  N   UNL     1      29.068  45.325  55.833  1.00  0.00    -0.215 N 
HETATM    3  N   UNL     1      28.957  46.663  56.064  1.00  0.00     0.012 NA
HETATM    4  N   UNL     1      27.913  47.139  55.407  1.00  0.00    -0.152 NA
HETATM    5  C   UNL     1      27.305  46.100  54.775  1.00  0.00     0.170 A 
ENDROOT
BRANCH   5   6
HETATM    6  C   UNL     1      26.137  46.239  53.919  1.00  0.00     0.293 C 
HETATM    7  N   UNL     1      26.342  47.019  52.799  1.00  0.00    -0.242 N 
HETATM    8  H   UNL     1      27.256  47.431  52.621  1.00  0.00     0.192 HD
HETATM    9  O   UNL     1      25.090  45.668  54.223  1.00  0.00    -0.264 OA
BRANCH   7  10
HETATM   10  N   UNL     1      25.306  47.260  51.950  1.00  0.00    -0.183 NA
HETATM   11  C   UNL     1      25.276  46.540  50.871  1.00  0.00     0.153 C 
BRANCH  11  12
HETATM   12  C   UNL     1      24.206  46.716  49.869  1.00  0.00     0.016 A 
HETATM   13  C   UNL     1      23.856  47.965  49.359  1.00  0.00     0.079 A 
HETATM   14  C   UNL     1      22.829  48.082  48.417  1.00  0.00     0.066 A 
HETATM   15  C   UNL     1      22.112  46.968  47.947  1.00  0.00     0.032 A 
HETATM   16  C   UNL     1      22.495  45.722  48.477  1.00  0.00     0.030 A 
HETATM   17  C   UNL     1      23.524  45.588  49.423  1.00  0.00     0.018 A 
BRANCH  13  18
HETATM   18  O   UNL     1      24.477  49.128  49.735  1.00  0.00    -0.360 OA
HETATM   19  H   UNL     1      25.444  48.987  49.657  1.00  0.00     0.217 HD
ENDBRANCH  13  18
BRANCH  15  20
HETATM   20  N   UNL     1      21.081  47.088  47.022  1.00  0.00    -0.382 N 
BRANCH  20  21
HETATM   21  C   UNL     1      21.084  46.337  45.759  1.00  0.00     0.118 C 
HETATM   22  C   UNL     1      19.809  45.525  45.595  1.00  0.00     0.026 C 
ENDBRANCH  20  21
BRANCH  20  23
HETATM   23  C   UNL     1      19.951  48.008  47.232  1.00  0.00     0.118 C 
HETATM   24  C   UNL     1      19.221  47.713  48.535  1.00  0.00     0.026 C 
ENDBRANCH  20  23
ENDBRANCH  15  20
ENDBRANCH  11  12
ENDBRANCH   7  10
ENDBRANCH   5   6
BRANCH   1  25
HETATM   25  C   UNL     1      27.583  43.519  54.756  1.00  0.00     0.296 C 
BRANCH  25  26
HETATM   26  N   UNL     1      28.440  42.852  53.694  1.00  0.00    -0.066 N 
HETATM   27  H   UNL     1      29.405  42.840  54.083  1.00  0.00     0.280 HD
BRANCH  26  28
HETATM   28  C   UNL     1      28.508  43.689  52.426  1.00  0.00     0.231 C 
HETATM   29  C   UNL     1      27.210  43.595  51.644  1.00  0.00     0.034 C 
ENDBRANCH  26  28
BRANCH  26  30
HETATM   30  C   UNL     1      28.009  41.428  53.418  1.00  0.00     0.231 C 
HETATM   31  C   UNL     1      29.004  40.726  52.509  1.00  0.00     0.034 C 
ENDBRANCH  26  30
ENDBRANCH  25  26
ENDBRANCH   1  25
BRANCH   2  32
HETATM   32  C   UNL     1      30.185  44.578  56.278  1.00  0.00     0.225 A 
HETATM   33  N   UNL     1      30.772  43.697  55.466  1.00  0.00    -0.081 NA
HETATM   34  O   UNL     1      31.830  43.193  56.229  1.00  0.00    -0.103 OA
HETATM   35  N   UNL     1      31.879  43.798  57.477  1.00  0.00    -0.083 NA
HETATM   36  C   UNL     1      30.864  44.658  57.508  1.00  0.00     0.201 A 
BRANCH  36  37
HETATM   37  N   UNL     1      30.569  45.449  58.550  1.00  0.00    -0.379 N 
HETATM   38  H   UNL     1      29.833  46.147  58.468  1.00  0.00     0.158 HD
HETATM   39  H   UNL     1      30.879  45.269  59.503  1.00  0.00     0.158 HD
ENDBRANCH  36  37
ENDBRANCH   2  32
TORSDOF 13
ENDMDL
MODEL 5
REMARK VINA RESULT:      -7.5      2.874      4.189
REMARK  13 active torsions:
REMARK  status: ('A' for Active; 'I' for Inactive)
REMARK    1  A    between atoms: C_2  and  N_3 
REMARK    2  A    between atoms: N_3  and  C_5 
REMARK    3  A    between atoms: N_3  and  C_34 
REMARK    4  A    between atoms: C_5  and  C_6 
REMARK    5  A    between atoms: N_7  and  C_8 
REMARK    6  A    between atoms: C_12  and  N_13 
REMARK    7  A    between atoms: C_16  and  C_17 
REMARK       I    between atoms: C_17  and  N_18 
REMARK    8  A    between atoms: N_18  and  N_19 
REMARK    9  A    between atoms: C_20  and  C_21 
REMARK   10  A    between atoms: C_22  and  O_23 
REMARK   11  A    between atoms: C_25  and  N_26 
REMARK   12  A    between atoms: N_26  and  C_27 
REMARK   13  A    between atoms: N_26  and  C_29 
ROOT
HETATM    1  C   UNL     1      20.296  49.174  49.122  1.00  0.00     0.096 A 
HETATM    2  N   UNL     1      19.973  50.530  49.059  1.00  0.00    -0.215 N 
HETATM    3  N   UNL     1      21.101  51.224  48.740  1.00  0.00     0.012 NA
HETATM    4  N   UNL     1      22.133  50.399  48.704  1.00  0.00    -0.152 NA
HETATM    5  C   UNL     1      21.674  49.144  48.956  1.00  0.00     0.170 A 
ENDROOT
BRANCH   5   6
HETATM    6  C   UNL     1      22.526  47.967  49.036  1.00  0.00     0.293 C 
HETATM    7  N   UNL     1      23.505  48.039  50.007  1.00  0.00    -0.242 N 
HETATM    8  H   UNL     1      23.578  48.862  50.603  1.00  0.00     0.192 HD
HETATM    9  O   UNL     1      22.324  47.018  48.279  1.00  0.00    -0.264 OA
BRANCH   7  10
HETATM   10  N   UNL     1      24.393  47.016  50.141  1.00  0.00    -0.183 NA
HETATM   11  C   UNL     1      24.867  46.828  51.334  1.00  0.00     0.153 C 
BRANCH  11  12
HETATM   12  C   UNL     1      25.845  45.756  51.604  1.00  0.00     0.016 A 
HETATM   13  C   UNL     1      26.744  45.302  50.639  1.00  0.00     0.079 A 
HETATM   14  C   UNL     1      27.646  44.277  50.938  1.00  0.00     0.066 A 
HETATM   15  C   UNL     1      27.692  43.664  52.203  1.00  0.00     0.032 A 
HETATM   16  C   UNL     1      26.776  44.149  53.155  1.00  0.00     0.030 A 
HETATM   17  C   UNL     1      25.865  45.178  52.869  1.00  0.00     0.018 A 
BRANCH  13  18
HETATM   18  O   UNL     1      26.801  45.816  49.369  1.00  0.00    -0.360 OA
HETATM   19  H   UNL     1      27.687  46.221  49.252  1.00  0.00     0.217 HD
ENDBRANCH  13  18
BRANCH  15  20
HETATM   20  N   UNL     1      28.579  42.634  52.494  1.00  0.00    -0.382 N 
BRANCH  20  21
HETATM   21  C   UNL     1      28.155  41.226  52.496  1.00  0.00     0.118 C 
HETATM   22  C   UNL     1      28.169  40.642  51.092  1.00  0.00     0.026 C 
ENDBRANCH  20  21
BRANCH  20  23
HETATM   23  C   UNL     1      29.980  42.894  52.861  1.00  0.00     0.118 C 
HETATM   24  C   UNL     1      30.136  43.118  54.360  1.00  0.00     0.026 C 
ENDBRANCH  20  23
ENDBRANCH  15  20
ENDBRANCH  11  12
ENDBRANCH   7  10
ENDBRANCH   5   6
BRANCH   1  25
HETATM   25  C   UNL     1      19.342  48.041  49.247  1.00  0.00     0.296 C 
BRANCH  25  26
HETATM   26  N   UNL     1      19.154  47.230  47.977  1.00  0.00    -0.066 N 
HETATM   27  H   UNL     1      19.991  46.615  47.915  1.00  0.00     0.280 HD
BRANCH  26  28
HETATM   28  C   UNL     1      19.187  48.114  46.741  1.00  0.00     0.231 C 
HETATM   29  C   UNL     1      18.910  47.303  45.487  1.00  0.00     0.034 C 
ENDBRANCH  26  28
BRANCH  26  30
HETATM   30  C   UNL     1      17.916  46.361  48.028  1.00  0.00     0.231 C 
HETATM   31  C   UNL     1      16.771  47.088  48.714  1.00  0.00     0.034 C 
ENDBRANCH  26  30
ENDBRANCH  25  26
ENDBRANCH   1  25
BRANCH   2  32
HETATM   32  C   UNL     1      18.744  51.180  49.325  1.00  0.00     0.225 A 
HETATM   33  N   UNL     1      17.977  50.778  50.341  1.00  0.00    -0.081 NA
HETATM   34  O   UNL     1      16.890  51.657  50.306  1.00  0.00    -0.103 OA
HETATM   35  N   UNL     1      17.033  52.590  49.290  1.00  0.00    -0.083 NA
HETATM   36  C   UNL     1      18.181  52.297  48.683  1.00  0.00     0.201 A 
BRANCH  36  37
HETATM   37  N   UNL     1      18.685  52.976  47.641  1.00  0.00    -0.379 N 
HETATM   38  H   UNL     1      18.099  53.178  46.834  1.00  0.00     0.158 HD
HETATM   39  H   UNL     1      19.558  53.498  47.674  1.00  0.00     0.158 HD
ENDBRANCH  36  37
ENDBRANCH   2  32
TORSDOF 13
ENDMDL
MODEL 6
REMARK VINA RESULT:      -7.3     13.298     14.286
REMARK  13 active torsions:
REMARK  status: ('A' for Active; 'I' for Inactive)
REMARK    1  A    between atoms: C_2  and  N_3 
REMARK    2  A    between atoms: N_3  and  C_5 
REMARK    3  A    between atoms: N_3  and  C_34 
REMARK    4  A    between atoms: C_5  and  C_6 
REMARK    5  A    between atoms: N_7  and  C_8 
REMARK    6  A    between atoms: C_12  and  N_13 
REMARK    7  A    between atoms: C_16  and  C_17 
REMARK       I    between atoms: C_17  and  N_18 
REMARK    8  A    between atoms: N_18  and  N_19 
REMARK    9  A    between atoms: C_20  and  C_21 
REMARK   10  A    between atoms: C_22  and  O_23 
REMARK   11  A    between atoms: C_25  and  N_26 
REMARK   12  A    between atoms: N_26  and  C_27 
REMARK   13  A    between atoms: N_26  and  C_29 
ROOT
HETATM    1  C   UNL     1      30.754  50.970  42.147  1.00  0.00     0.096 A 
HETATM    2  N   UNL     1      30.170  49.819  41.614  1.00  0.00    -0.215 N 
HETATM    3  N   UNL     1      30.624  48.744  42.316  1.00  0.00     0.012 NA
HETATM    4  N   UNL     1      31.538  49.138  43.186  1.00  0.00    -0.152 NA
HETATM    5  C   UNL     1      31.654  50.489  43.088  1.00  0.00     0.170 A 
ENDROOT
BRANCH   5   6
HETATM    6  C   UNL     1      32.593  51.283  43.867  1.00  0.00     0.293 C 
HETATM    7  N   UNL     1      33.745  51.628  43.188  1.00  0.00    -0.242 N 
HETATM    8  H   UNL     1      33.877  51.338  42.221  1.00  0.00     0.192 HD
HETATM    9  O   UNL     1      32.311  51.598  45.023  1.00  0.00    -0.264 OA
BRANCH   7  10
HETATM   10  N   UNL     1      34.718  52.329  43.832  1.00  0.00    -0.183 NA
HETATM   11  C   UNL     1      35.931  51.897  43.671  1.00  0.00     0.153 C 
BRANCH  11  12
HETATM   12  C   UNL     1      37.071  52.569  44.326  1.00  0.00     0.016 A 
HETATM   13  C   UNL     1      38.232  51.888  44.690  1.00  0.00     0.079 A 
HETATM   14  C   UNL     1      39.282  52.566  45.317  1.00  0.00     0.066 A 
HETATM   15  C   UNL     1      39.221  53.941  45.607  1.00  0.00     0.032 A 
HETATM   16  C   UNL     1      38.037  54.598  45.221  1.00  0.00     0.030 A 
HETATM   17  C   UNL     1      36.975  53.932  44.591  1.00  0.00     0.018 A 
BRANCH  13  18
HETATM   18  O   UNL     1      38.417  50.549  44.463  1.00  0.00    -0.360 OA
HETATM   19  H   UNL     1      37.534  50.149  44.315  1.00  0.00     0.217 HD
ENDBRANCH  13  18
BRANCH  15  20
HETATM   20  N   UNL     1      40.259  54.609  46.245  1.00  0.00    -0.382 N 
BRANCH  20  21
HETATM   21  C   UNL     1      40.686  54.254  47.606  1.00  0.00     0.118 C 
HETATM   22  C   UNL     1      39.496  53.899  48.484  1.00  0.00     0.026 C 
ENDBRANCH  20  21
BRANCH  20  23
HETATM   23  C   UNL     1      40.961  55.739  45.615  1.00  0.00     0.118 C 
HETATM   24  C   UNL     1      42.411  55.826  46.073  1.00  0.00     0.026 C 
ENDBRANCH  20  23
ENDBRANCH  15  20
ENDBRANCH  11  12
ENDBRANCH   7  10
ENDBRANCH   5   6
BRANCH   1  25
HETATM   25  C   UNL     1      30.400  52.375  41.819  1.00  0.00     0.296 C 
BRANCH  25  26
HETATM   26  N   UNL     1      30.553  52.740  40.353  1.00  0.00    -0.066 N 
HETATM   27  H   UNL     1      30.522  51.837  39.838  1.00  0.00     0.280 HD
BRANCH  26  28
HETATM   28  C   UNL     1      31.921  53.340  40.068  1.00  0.00     0.231 C 
HETATM   29  C   UNL     1      32.822  52.331  39.378  1.00  0.00     0.034 C 
ENDBRANCH  26  28
BRANCH  26  30
HETATM   30  C   UNL     1      29.426  53.621  39.859  1.00  0.00     0.231 C 
HETATM   31  C   UNL     1      28.831  53.071  38.575  1.00  0.00     0.034 C 
ENDBRANCH  26  30
ENDBRANCH  25  26
ENDBRANCH   1  25
BRANCH   2  32
HETATM   32  C   UNL     1      29.302  49.677  40.505  1.00  0.00     0.225 A 
HETATM   33  N   UNL     1      29.793  49.669  39.264  1.00  0.00    -0.081 NA
HETATM   34  O   UNL     1      28.664  49.484  38.460  1.00  0.00    -0.103 OA
HETATM   35  N   UNL     1      27.517  49.356  39.230  1.00  0.00    -0.083 NA
HETATM   36  C   UNL     1      27.910  49.473  40.496  1.00  0.00     0.201 A 
BRANCH  36  37
HETATM   37  N   UNL     1      27.092  49.402  41.557  1.00  0.00    -0.379 N 
HETATM   38  H   UNL     1      27.458  49.550  42.494  1.00  0.00     0.158 HD
HETATM   39  H   UNL     1      26.076  49.419  41.490  1.00  0.00     0.158 HD
ENDBRANCH  36  37
ENDBRANCH   2  32
TORSDOF 13
ENDMDL
MODEL 7
REMARK VINA RESULT:      -7.2     13.454     14.597
REMARK  13 active torsions:
REMARK  status: ('A' for Active; 'I' for Inactive)
REMARK    1  A    between atoms: C_2  and  N_3 
REMARK    2  A    between atoms: N_3  and  C_5 
REMARK    3  A    between atoms: N_3  and  C_34 
REMARK    4  A    between atoms: C_5  and  C_6 
REMARK    5  A    between atoms: N_7  and  C_8 
REMARK    6  A    between atoms: C_12  and  N_13 
REMARK    7  A    between atoms: C_16  and  C_17 
REMARK       I    between atoms: C_17  and  N_18 
REMARK    8  A    between atoms: N_18  and  N_19 
REMARK    9  A    between atoms: C_20  and  C_21 
REMARK   10  A    between atoms: C_22  and  O_23 
REMARK   11  A    between atoms: C_25  and  N_26 
REMARK   12  A    between atoms: N_26  and  C_27 
REMARK   13  A    between atoms: N_26  and  C_29 
ROOT
HETATM    1  C   UNL     1      30.601  50.703  42.054  1.00  0.00     0.096 A 
HETATM    2  N   UNL     1      30.162  49.518  41.461  1.00  0.00    -0.215 N 
HETATM    3  N   UNL     1      30.848  48.481  42.016  1.00  0.00     0.012 NA
HETATM    4  N   UNL     1      31.765  48.950  42.845  1.00  0.00    -0.152 NA
HETATM    5  C   UNL     1      31.652  50.305  42.870  1.00  0.00     0.170 A 
ENDROOT
BRANCH   5   6
HETATM    6  C   UNL     1      32.519  51.179  43.645  1.00  0.00     0.293 C 
HETATM    7  N   UNL     1      33.717  51.483  43.029  1.00  0.00    -0.242 N 
HETATM    8  H   UNL     1      33.926  51.114  42.103  1.00  0.00     0.192 HD
HETATM    9  O   UNL     1      32.146  51.588  44.744  1.00  0.00    -0.264 OA
BRANCH   7  10
HETATM   10  N   UNL     1      34.630  52.254  43.681  1.00  0.00    -0.183 NA
HETATM   11  C   UNL     1      35.855  52.157  43.265  1.00  0.00     0.153 C 
BRANCH  11  12
HETATM   12  C   UNL     1      36.937  52.936  43.899  1.00  0.00     0.016 A 
HETATM   13  C   UNL     1      37.477  54.081  43.315  1.00  0.00     0.079 A 
HETATM   14  C   UNL     1      38.508  54.781  43.950  1.00  0.00     0.066 A 
HETATM   15  C   UNL     1      39.041  54.373  45.186  1.00  0.00     0.032 A 
HETATM   16  C   UNL     1      38.469  53.218  45.751  1.00  0.00     0.030 A 
HETATM   17  C   UNL     1      37.434  52.505  45.126  1.00  0.00     0.018 A 
BRANCH  13  18
HETATM   18  O   UNL     1      37.047  54.582  42.113  1.00  0.00    -0.360 OA
HETATM   19  H   UNL     1      37.045  55.560  42.183  1.00  0.00     0.217 HD
ENDBRANCH  13  18
BRANCH  15  20
HETATM   20  N   UNL     1      40.076  55.062  45.807  1.00  0.00    -0.382 N 
BRANCH  20  21
HETATM   21  C   UNL     1      40.707  54.562  47.037  1.00  0.00     0.118 C 
HETATM   22  C   UNL     1      42.036  53.886  46.742  1.00  0.00     0.026 C 
ENDBRANCH  20  21
BRANCH  20  23
HETATM   23  C   UNL     1      40.569  56.352  45.298  1.00  0.00     0.118 C 
HETATM   24  C   UNL     1      39.886  57.526  45.988  1.00  0.00     0.026 C 
ENDBRANCH  20  23
ENDBRANCH  15  20
ENDBRANCH  11  12
ENDBRANCH   7  10
ENDBRANCH   5   6
BRANCH   1  25
HETATM   25  C   UNL     1      29.996  52.050  41.894  1.00  0.00     0.296 C 
BRANCH  25  26
HETATM   26  N   UNL     1      30.612  52.892  40.791  1.00  0.00    -0.066 N 
HETATM   27  H   UNL     1      31.187  53.610  41.278  1.00  0.00     0.280 HD
BRANCH  26  28
HETATM   28  C   UNL     1      29.551  53.657  40.015  1.00  0.00     0.231 C 
HETATM   29  C   UNL     1      28.818  52.741  39.052  1.00  0.00     0.034 C 
ENDBRANCH  26  28
BRANCH  26  30
HETATM   30  C   UNL     1      31.512  52.082  39.884  1.00  0.00     0.231 C 
HETATM   31  C   UNL     1      32.878  52.734  39.753  1.00  0.00     0.034 C 
ENDBRANCH  26  30
ENDBRANCH  25  26
ENDBRANCH   1  25
BRANCH   2  32
HETATM   32  C   UNL     1      29.228  49.324  40.415  1.00  0.00     0.225 A 
HETATM   33  N   UNL     1      29.649  49.091  39.170  1.00  0.00    -0.081 NA
HETATM   34  O   UNL     1      28.467  48.925  38.443  1.00  0.00    -0.103 OA
HETATM   35  N   UNL     1      27.355  49.033  39.265  1.00  0.00    -0.083 NA
HETATM   36  C   UNL     1      27.824  49.277  40.486  1.00  0.00     0.201 A 
BRANCH  36  37
HETATM   37  N   UNL     1      27.058  49.444  41.576  1.00  0.00    -0.379 N 
HETATM   38  H   UNL     1      26.318  50.141  41.576  1.00  0.00     0.158 HD
HETATM   39  H   UNL     1      27.015  48.777  42.345  1.00  0.00     0.158 HD
ENDBRANCH  36  37
ENDBRANCH   2  32
TORSDOF 13
ENDMDL
MODEL 8
REMARK VINA RESULT:      -7.2     13.752     14.736
REMARK  13 active torsions:
REMARK  status: ('A' for Active; 'I' for Inactive)
REMARK    1  A    between atoms: C_2  and  N_3 
REMARK    2  A    between atoms: N_3  and  C_5 
REMARK    3  A    between atoms: N_3  and  C_34 
REMARK    4  A    between atoms: C_5  and  C_6 
REMARK    5  A    between atoms: N_7  and  C_8 
REMARK    6  A    between atoms: C_12  and  N_13 
REMARK    7  A    between atoms: C_16  and  C_17 
REMARK       I    between atoms: C_17  and  N_18 
REMARK    8  A    between atoms: N_18  and  N_19 
REMARK    9  A    between atoms: C_20  and  C_21 
REMARK   10  A    between atoms: C_22  and  O_23 
REMARK   11  A    between atoms: C_25  and  N_26 
REMARK   12  A    between atoms: N_26  and  C_27 
REMARK   13  A    between atoms: N_26  and  C_29 
ROOT
HETATM    1  C   UNL     1      31.350  51.164  39.736  1.00  0.00     0.096 A 
HETATM    2  N   UNL     1      30.676  50.652  38.627  1.00  0.00    -0.215 N 
HETATM    3  N   UNL     1      31.480  50.788  37.536  1.00  0.00     0.012 NA
HETATM    4  N   UNL     1      32.573  51.451  37.872  1.00  0.00    -0.152 NA
HETATM    5  C   UNL     1      32.510  51.713  39.205  1.00  0.00     0.170 A 
ENDROOT
BRANCH   5   6
HETATM    6  C   UNL     1      33.522  52.462  39.935  1.00  0.00     0.293 C 
HETATM    7  N   UNL     1      34.391  51.678  40.668  1.00  0.00    -0.242 N 
HETATM    8  H   UNL     1      34.301  50.664  40.656  1.00  0.00     0.192 HD
HETATM    9  O   UNL     1      33.549  53.690  39.849  1.00  0.00    -0.264 OA
BRANCH   7  10
HETATM   10  N   UNL     1      35.349  52.272  41.431  1.00  0.00    -0.183 NA
HETATM   11  C   UNL     1      35.781  51.581  42.440  1.00  0.00     0.153 C 
BRANCH  11  12
HETATM   12  C   UNL     1      36.813  52.122  43.346  1.00  0.00     0.016 A 
HETATM   13  C   UNL     1      37.823  51.328  43.890  1.00  0.00     0.079 A 
HETATM   14  C   UNL     1      38.773  51.885  44.752  1.00  0.00     0.066 A 
HETATM   15  C   UNL     1      38.758  53.246  45.106  1.00  0.00     0.032 A 
HETATM   16  C   UNL     1      37.730  54.019  44.535  1.00  0.00     0.030 A 
HETATM   17  C   UNL     1      36.769  53.475  43.669  1.00  0.00     0.018 A 
BRANCH  13  18
HETATM   18  O   UNL     1      37.947  49.989  43.624  1.00  0.00    -0.360 OA
HETATM   19  H   UNL     1      38.150  49.894  42.669  1.00  0.00     0.217 HD
ENDBRANCH  13  18
BRANCH  15  20
HETATM   20  N   UNL     1      39.695  53.793  45.976  1.00  0.00    -0.382 N 
BRANCH  20  21
HETATM   21  C   UNL     1      39.734  53.428  47.399  1.00  0.00     0.118 C 
HETATM   22  C   UNL     1      38.420  53.756  48.090  1.00  0.00     0.026 C 
ENDBRANCH  20  21
BRANCH  20  23
HETATM   23  C   UNL     1      40.670  54.803  45.534  1.00  0.00     0.118 C 
HETATM   24  C   UNL     1      40.341  56.183  46.089  1.00  0.00     0.026 C 
ENDBRANCH  20  23
ENDBRANCH  15  20
ENDBRANCH  11  12
ENDBRANCH   7  10
ENDBRANCH   5   6
BRANCH   1  25
HETATM   25  C   UNL     1      30.934  51.049  41.158  1.00  0.00     0.296 C 
BRANCH  25  26
HETATM   26  N   UNL     1      31.554  49.882  41.905  1.00  0.00    -0.066 N 
HETATM   27  H   UNL     1      32.338  49.553  41.305  1.00  0.00     0.280 HD
BRANCH  26  28
HETATM   28  C   UNL     1      30.588  48.713  42.015  1.00  0.00     0.231 C 
HETATM   29  C   UNL     1      29.150  49.200  42.051  1.00  0.00     0.034 C 
ENDBRANCH  26  28
BRANCH  26  30
HETATM   30  C   UNL     1      32.112  50.293  43.251  1.00  0.00     0.231 C 
HETATM   31  C   UNL     1      32.051  51.801  43.426  1.00  0.00     0.034 C 
ENDBRANCH  26  30
ENDBRANCH  25  26
ENDBRANCH   1  25
BRANCH   2  32
HETATM   32  C   UNL     1      29.366  50.124  38.531  1.00  0.00     0.225 A 
HETATM   33  N   UNL     1      29.176  48.807  38.431  1.00  0.00    -0.081 NA
HETATM   34  O   UNL     1      27.785  48.672  38.390  1.00  0.00    -0.103 OA
HETATM   35  N   UNL     1      27.160  49.906  38.493  1.00  0.00    -0.083 NA
HETATM   36  C   UNL     1      28.136  50.806  38.583  1.00  0.00     0.201 A 
BRANCH  36  37
HETATM   37  N   UNL     1      27.944  52.128  38.703  1.00  0.00    -0.379 N 
HETATM   38  H   UNL     1      28.723  52.737  38.942  1.00  0.00     0.158 HD
HETATM   39  H   UNL     1      27.114  52.612  38.365  1.00  0.00     0.158 HD
ENDBRANCH  36  37
ENDBRANCH   2  32
TORSDOF 13
ENDMDL
MODEL 9
REMARK VINA RESULT:      -7.1      3.486     10.680
REMARK  13 active torsions:
REMARK  status: ('A' for Active; 'I' for Inactive)
REMARK    1  A    between atoms: C_2  and  N_3 
REMARK    2  A    between atoms: N_3  and  C_5 
REMARK    3  A    between atoms: N_3  and  C_34 
REMARK    4  A    between atoms: C_5  and  C_6 
REMARK    5  A    between atoms: N_7  and  C_8 
REMARK    6  A    between atoms: C_12  and  N_13 
REMARK    7  A    between atoms: C_16  and  C_17 
REMARK       I    between atoms: C_17  and  N_18 
REMARK    8  A    between atoms: N_18  and  N_19 
REMARK    9  A    between atoms: C_20  and  C_21 
REMARK   10  A    between atoms: C_22  and  O_23 
REMARK   11  A    between atoms: C_25  and  N_26 
REMARK   12  A    between atoms: N_26  and  C_27 
REMARK   13  A    between atoms: N_26  and  C_29 
ROOT
HETATM    1  C   UNL     1      24.380  46.311  49.651  1.00  0.00     0.096 A 
HETATM    2  N   UNL     1      25.672  46.217  50.172  1.00  0.00    -0.215 N 
HETATM    3  N   UNL     1      26.159  47.477  50.341  1.00  0.00     0.012 NA
HETATM    4  N   UNL     1      25.295  48.354  49.859  1.00  0.00    -0.152 NA
HETATM    5  C   UNL     1      24.210  47.668  49.410  1.00  0.00     0.170 A 
ENDROOT
BRANCH   5   6
HETATM    6  C   UNL     1      23.059  48.292  48.775  1.00  0.00     0.293 C 
HETATM    7  N   UNL     1      21.988  48.504  49.621  1.00  0.00    -0.242 N 
HETATM    8  H   UNL     1      22.050  48.241  50.603  1.00  0.00     0.192 HD
HETATM    9  O   UNL     1      23.111  48.592  47.582  1.00  0.00    -0.264 OA
BRANCH   7  10
HETATM   10  N   UNL     1      20.837  49.036  49.126  1.00  0.00    -0.183 NA
HETATM   11  C   UNL     1      20.311  49.997  49.821  1.00  0.00     0.153 C 
BRANCH  11  12
HETATM   12  C   UNL     1      19.058  50.649  49.392  1.00  0.00     0.016 A 
HETATM   13  C   UNL     1      17.906  49.926  49.084  1.00  0.00     0.079 A 
HETATM   14  C   UNL     1      16.744  50.587  48.673  1.00  0.00     0.066 A 
HETATM   15  C   UNL     1      16.681  51.987  48.552  1.00  0.00     0.032 A 
HETATM   16  C   UNL     1      17.859  52.686  48.876  1.00  0.00     0.030 A 
HETATM   17  C   UNL     1      19.032  52.036  49.290  1.00  0.00     0.018 A 
BRANCH  13  18
HETATM   18  O   UNL     1      17.837  48.559  49.162  1.00  0.00    -0.360 OA
HETATM   19  H   UNL     1      17.004  48.330  49.626  1.00  0.00     0.217 HD
ENDBRANCH  13  18
BRANCH  15  20
HETATM   20  N   UNL     1      15.530  52.641  48.128  1.00  0.00    -0.382 N 
BRANCH  20  21
HETATM   21  C   UNL     1      14.827  53.603  48.988  1.00  0.00     0.118 C 
HETATM   22  C   UNL     1      14.447  52.978  50.321  1.00  0.00     0.026 C 
ENDBRANCH  20  21
BRANCH  20  23
HETATM   23  C   UNL     1      14.923  52.375  46.814  1.00  0.00     0.118 C 
HETATM   24  C   UNL     1      15.681  53.075  45.693  1.00  0.00     0.026 C 
ENDBRANCH  20  23
ENDBRANCH  15  20
ENDBRANCH  11  12
ENDBRANCH   7  10
ENDBRANCH   5   6
BRANCH   1  25
HETATM   25  C   UNL     1      23.407  45.201  49.490  1.00  0.00     0.296 C 
BRANCH  25  26
HETATM   26  N   UNL     1      23.709  44.256  48.341  1.00  0.00    -0.066 N 
HETATM   27  H   UNL     1      24.735  44.332  48.182  1.00  0.00     0.280 HD
BRANCH  26  28
HETATM   28  C   UNL     1      23.048  44.717  47.051  1.00  0.00     0.231 C 
HETATM   29  C   UNL     1      21.627  45.187  47.308  1.00  0.00     0.034 C 
ENDBRANCH  26  28
BRANCH  26  30
HETATM   30  C   UNL     1      23.374  42.819  48.674  1.00  0.00     0.231 C 
HETATM   31  C   UNL     1      23.988  42.413  50.003  1.00  0.00     0.034 C 
ENDBRANCH  26  30
ENDBRANCH  25  26
ENDBRANCH   1  25
BRANCH   2  32
HETATM   32  C   UNL     1      26.452  45.069  50.449  1.00  0.00     0.225 A 
HETATM   33  N   UNL     1      26.859  44.276  49.455  1.00  0.00    -0.081 NA
HETATM   34  O   UNL     1      27.611  43.291  50.101  1.00  0.00    -0.103 OA
HETATM   35  N   UNL     1      27.669  43.520  51.468  1.00  0.00    -0.083 NA
HETATM   36  C   UNL     1      26.954  44.622  51.684  1.00  0.00     0.201 A 
BRANCH  36  37
HETATM   37  N   UNL     1      26.767  45.183  52.889  1.00  0.00    -0.379 N 
HETATM   38  H   UNL     1      26.154  45.989  52.986  1.00  0.00     0.158 HD
HETATM   39  H   UNL     1      27.025  44.737  53.767  1.00  0.00     0.158 HD
ENDBRANCH  36  37
ENDBRANCH   2  32
TORSDOF 13
ENDMDL
MODEL 10
REMARK VINA RESULT:      -7.1     14.276     18.140
REMARK  13 active torsions:
REMARK  status: ('A' for Active; 'I' for Inactive)
REMARK    1  A    between atoms: C_2  and  N_3 
REMARK    2  A    between atoms: N_3  and  C_5 
REMARK    3  A    between atoms: N_3  and  C_34 
REMARK    4  A    between atoms: C_5  and  C_6 
REMARK    5  A    between atoms: N_7  and  C_8 
REMARK    6  A    between atoms: C_12  and  N_13 
REMARK    7  A    between atoms: C_16  and  C_17 
REMARK       I    between atoms: C_17  and  N_18 
REMARK    8  A    between atoms: N_18  and  N_19 
REMARK    9  A    between atoms: C_20  and  C_21 
REMARK   10  A    between atoms: C_22  and  O_23 
REMARK   11  A    between atoms: C_25  and  N_26 
REMARK   12  A    between atoms: N_26  and  C_27 
REMARK   13  A    between atoms: N_26  and  C_29 
ROOT
HETATM    1  C   UNL     1      38.068  53.457  45.198  1.00  0.00     0.096 A 
HETATM    2  N   UNL     1      39.135  52.826  45.839  1.00  0.00    -0.215 N 
HETATM    3  N   UNL     1      39.252  51.565  45.336  1.00  0.00     0.012 NA
HETATM    4  N   UNL     1      38.259  51.330  44.496  1.00  0.00    -0.152 NA
HETATM    5  C   UNL     1      37.508  52.460  44.410  1.00  0.00     0.170 A 
ENDROOT
BRANCH   5   6
HETATM    6  C   UNL     1      36.301  52.576  43.605  1.00  0.00     0.293 C 
HETATM    7  N   UNL     1      35.173  52.037  44.192  1.00  0.00    -0.242 N 
HETATM    8  H   UNL     1      35.227  51.617  45.117  1.00  0.00     0.192 HD
HETATM    9  O   UNL     1      36.352  53.133  42.509  1.00  0.00    -0.264 OA
BRANCH   7  10
HETATM   10  N   UNL     1      33.994  52.043  43.510  1.00  0.00    -0.183 NA
HETATM   11  C   UNL     1      33.666  50.929  42.933  1.00  0.00     0.153 C 
BRANCH  11  12
HETATM   12  C   UNL     1      32.416  50.814  42.156  1.00  0.00     0.016 A 
HETATM   13  C   UNL     1      32.160  51.595  41.030  1.00  0.00     0.079 A 
HETATM   14  C   UNL     1      30.957  51.457  40.331  1.00  0.00     0.066 A 
HETATM   15  C   UNL     1      29.964  50.541  40.721  1.00  0.00     0.032 A 
HETATM   16  C   UNL     1      30.257  49.764  41.858  1.00  0.00     0.030 A 
HETATM   17  C   UNL     1      31.460  49.891  42.570  1.00  0.00     0.018 A 
BRANCH  13  18
HETATM   18  O   UNL     1      33.046  52.524  40.546  1.00  0.00    -0.360 OA
HETATM   19  H   UNL     1      32.821  52.687  39.606  1.00  0.00     0.217 HD
ENDBRANCH  13  18
BRANCH  15  20
HETATM   20  N   UNL     1      28.762  50.416  40.034  1.00  0.00    -0.382 N 
BRANCH  20  21
HETATM   21  C   UNL     1      28.703  49.856  38.677  1.00  0.00     0.118 C 
HETATM   22  C   UNL     1      28.712  48.336  38.704  1.00  0.00     0.026 C 
ENDBRANCH  20  21
BRANCH  20  23
HETATM   23  C   UNL     1      27.487  50.879  40.606  1.00  0.00     0.118 C 
HETATM   24  C   UNL     1      27.623  52.257  41.240  1.00  0.00     0.026 C 
ENDBRANCH  20  23
ENDBRANCH  15  20
ENDBRANCH  11  12
ENDBRANCH   7  10
ENDBRANCH   5   6
BRANCH   1  25
HETATM   25  C   UNL     1      37.703  54.894  45.293  1.00  0.00     0.296 C 
BRANCH  25  26
HETATM   26  N   UNL     1      38.725  55.846  44.696  1.00  0.00    -0.066 N 
HETATM   27  H   UNL     1      39.530  55.838  45.356  1.00  0.00     0.280 HD
BRANCH  26  28
HETATM   28  C   UNL     1      38.210  57.277  44.678  1.00  0.00     0.231 C 
HETATM   29  C   UNL     1      39.330  58.260  44.970  1.00  0.00     0.034 C 
ENDBRANCH  26  28
BRANCH  26  30
HETATM   30  C   UNL     1      39.207  55.393  43.335  1.00  0.00     0.231 C 
HETATM   31  C   UNL     1      40.715  55.205  43.329  1.00  0.00     0.034 C 
ENDBRANCH  26  30
ENDBRANCH  25  26
ENDBRANCH   1  25
BRANCH   2  32
HETATM   32  C   UNL     1      39.967  53.295  46.884  1.00  0.00     0.225 A 
HETATM   33  N   UNL     1      41.263  53.524  46.661  1.00  0.00    -0.081 NA
HETATM   34  O   UNL     1      41.734  53.995  47.890  1.00  0.00    -0.103 OA
HETATM   35  N   UNL     1      40.711  54.069  48.824  1.00  0.00    -0.083 NA
HETATM   36  C   UNL     1      39.616  53.638  48.202  1.00  0.00     0.201 A 
BRANCH  36  37
HETATM   37  N   UNL     1      38.402  53.560  48.767  1.00  0.00    -0.379 N 
HETATM   38  H   UNL     1      37.977  54.388  49.178  1.00  0.00     0.158 HD
HETATM   39  H   UNL     1      37.765  52.777  48.635  1.00  0.00     0.158 HD
ENDBRANCH  36  37
ENDBRANCH   2  32
TORSDOF 13
ENDMDL
