MODEL 1
REMARK VINA RESULT:     -10.1      0.000      0.000
REMARK  6 active torsions:
REMARK  status: ('A' for Active; 'I' for Inactive)
REMARK    1  A    between atoms: C_4  and  C_5 
REMARK    2  A    between atoms: C_6  and  O_7 
REMARK    3  A    between atoms: O_7  and  C_8 
REMARK    4  A    between atoms: C_8  and  C_9 
REMARK       I    between atoms: C_9  and  N_10 
REMARK    5  A    between atoms: N_10  and  N_11 
REMARK       I    between atoms: N_11  and  C_12 
REMARK    6  A    between atoms: C_12  and  C_13 
ROOT
HETATM    1  C   UNL     1      28.637  41.047  52.497  1.00  0.00     0.260 C 
HETATM    2  N   UNL     1      27.263  41.075  52.443  1.00  0.00    -0.265 N 
HETATM    3  O   UNL     1      29.239  39.987  52.320  1.00  0.00    -0.269 OA
HETATM    4  H   UNL     1      26.831  40.215  52.102  1.00  0.00     0.190 HD
ENDROOT
BRANCH   1   5
HETATM    5  C   UNL     1      29.372  42.349  52.810  1.00  0.00     0.280 C 
BRANCH   5   6
HETATM    6  O   UNL     1      28.657  43.179  53.724  1.00  0.00    -0.341 OA
BRANCH   6   7
HETATM    7  C   UNL     1      29.433  43.673  54.746  1.00  0.00     0.080 A 
HETATM    8  C   UNL     1      29.090  44.919  55.314  1.00  0.00     0.007 A 
HETATM    9  C   UNL     1      29.878  45.395  56.382  1.00  0.00     0.015 A 
HETATM   10  C   UNL     1      30.950  44.656  56.885  1.00  0.00     0.001 A 
HETATM   11  C   UNL     1      31.251  43.416  56.337  1.00  0.00     0.003 A 
HETATM   12  C   UNL     1      30.492  42.921  55.278  1.00  0.00     0.037 A 
BRANCH   8  13
HETATM   13  C   UNL     1      27.961  45.739  54.834  1.00  0.00    -0.023 A 
HETATM   14  C   UNL     1      28.054  47.142  54.811  1.00  0.00     0.012 A 
HETATM   15  C   UNL     1      27.008  47.928  54.323  1.00  0.00     0.001 A 
HETATM   16  C   UNL     1      25.846  47.325  53.850  1.00  0.00     0.000 A 
HETATM   17  C   UNL     1      25.732  45.936  53.865  1.00  0.00     0.001 A 
HETATM   18  C   UNL     1      26.782  45.151  54.350  1.00  0.00     0.012 A 
ENDBRANCH   8  13
ENDBRANCH   6   7
ENDBRANCH   5   6
ENDBRANCH   1   5
BRANCH   2  19
HETATM   19  N   UNL     1      26.560  42.252  52.164  1.00  0.00    -0.262 N 
HETATM   20  C   UNL     1      26.075  42.438  50.877  1.00  0.00     0.291 C 
HETATM   21  O   UNL     1      26.354  41.678  49.950  1.00  0.00    -0.264 OA
HETATM   22  H   UNL     1      26.144  42.792  52.923  1.00  0.00     0.190 HD
BRANCH  20  23
HETATM   23  C   UNL     1      25.194  43.603  50.742  1.00  0.00     0.158 A 
HETATM   24  N   UNL     1      23.862  43.508  50.942  1.00  0.00    -0.168 NA
HETATM   25  N   UNL     1      23.416  44.761  50.731  1.00  0.00    -0.277 N 
HETATM   26  H   UNL     1      22.423  44.941  50.830  1.00  0.00     0.189 HD
HETATM   27  C   UNL     1      24.390  45.661  50.398  1.00  0.00     0.063 A 
HETATM   28  C   UNL     1      25.574  44.933  50.394  1.00  0.00     0.028 A 
HETATM   29  C   UNL     1      24.330  47.027  50.104  1.00  0.00     0.032 A 
HETATM   30  C   UNL     1      26.777  45.597  50.078  1.00  0.00     0.016 A 
HETATM   31  C   UNL     1      26.741  46.964  49.778  1.00  0.00     0.001 A 
HETATM   32  C   UNL     1      25.536  47.666  49.792  1.00  0.00     0.002 A 
ENDBRANCH  20  23
ENDBRANCH   2  19
TORSDOF 6
ENDMDL
MODEL 2
REMARK VINA RESULT:      -9.7      1.038      3.280
REMARK  6 active torsions:
REMARK  status: ('A' for Active; 'I' for Inactive)
REMARK    1  A    between atoms: C_4  and  C_5 
REMARK    2  A    between atoms: C_6  and  O_7 
REMARK    3  A    between atoms: O_7  and  C_8 
REMARK    4  A    between atoms: C_8  and  C_9 
REMARK       I    between atoms: C_9  and  N_10 
REMARK    5  A    between atoms: N_10  and  N_11 
REMARK       I    between atoms: N_11  and  C_12 
REMARK    6  A    between atoms: C_12  and  C_13 
ROOT
HETATM    1  C   UNL     1      27.804  41.578  52.818  1.00  0.00     0.260 C 
HETATM    2  N   UNL     1      26.837  41.555  51.841  1.00  0.00    -0.265 N 
HETATM    3  O   UNL     1      28.755  40.797  52.761  1.00  0.00    -0.269 OA
HETATM    4  H   UNL     1      27.060  40.974  51.032  1.00  0.00     0.190 HD
ENDROOT
BRANCH   1   5
HETATM    5  C   UNL     1      27.642  42.568  53.970  1.00  0.00     0.280 C 
BRANCH   5   6
HETATM    6  O   UNL     1      28.612  43.614  53.938  1.00  0.00    -0.341 OA
BRANCH   6   7
HETATM    7  C   UNL     1      28.086  44.864  54.169  1.00  0.00     0.080 A 
HETATM    8  C   UNL     1      28.599  45.624  55.242  1.00  0.00     0.007 A 
HETATM    9  C   UNL     1      28.070  46.915  55.446  1.00  0.00     0.015 A 
HETATM   10  C   UNL     1      27.089  47.444  54.606  1.00  0.00     0.001 A 
HETATM   11  C   UNL     1      26.623  46.694  53.533  1.00  0.00     0.003 A 
HETATM   12  C   UNL     1      27.124  45.413  53.309  1.00  0.00     0.037 A 
BRANCH   8  13
HETATM   13  C   UNL     1      29.644  45.124  56.157  1.00  0.00    -0.023 A 
HETATM   14  C   UNL     1      30.513  44.094  55.755  1.00  0.00     0.012 A 
HETATM   15  C   UNL     1      31.531  43.639  56.597  1.00  0.00     0.001 A 
HETATM   16  C   UNL     1      31.699  44.206  57.857  1.00  0.00     0.000 A 
HETATM   17  C   UNL     1      30.848  45.227  58.275  1.00  0.00     0.001 A 
HETATM   18  C   UNL     1      29.832  45.683  57.430  1.00  0.00     0.012 A 
ENDBRANCH   8  13
ENDBRANCH   6   7
ENDBRANCH   5   6
ENDBRANCH   1   5
BRANCH   2  19
HETATM   19  N   UNL     1      26.029  42.667  51.577  1.00  0.00    -0.262 N 
HETATM   20  C   UNL     1      26.201  43.333  50.372  1.00  0.00     0.291 C 
HETATM   21  O   UNL     1      27.118  43.067  49.596  1.00  0.00    -0.264 OA
HETATM   22  H   UNL     1      25.150  42.793  52.081  1.00  0.00     0.190 HD
BRANCH  20  23
HETATM   23  C   UNL     1      25.182  44.356  50.114  1.00  0.00     0.158 A 
HETATM   24  N   UNL     1      23.869  44.045  50.049  1.00  0.00    -0.168 NA
HETATM   25  N   UNL     1      23.271  45.226  49.804  1.00  0.00    -0.277 N 
HETATM   26  H   UNL     1      22.261  45.245  49.716  1.00  0.00     0.189 HD
HETATM   27  C   UNL     1      24.130  46.285  49.699  1.00  0.00     0.063 A 
HETATM   28  C   UNL     1      25.397  45.749  49.896  1.00  0.00     0.028 A 
HETATM   29  C   UNL     1      23.904  47.643  49.450  1.00  0.00     0.032 A 
HETATM   30  C   UNL     1      26.513  46.609  49.843  1.00  0.00     0.016 A 
HETATM   31  C   UNL     1      26.310  47.971  49.593  1.00  0.00     0.001 A 
HETATM   32  C   UNL     1      25.026  48.478  49.401  1.00  0.00     0.002 A 
ENDBRANCH  20  23
ENDBRANCH   2  19
TORSDOF 6
ENDMDL
MODEL 3
REMARK VINA RESULT:      -9.6      3.029      7.562
REMARK  6 active torsions:
REMARK  status: ('A' for Active; 'I' for Inactive)
REMARK    1  A    between atoms: C_4  and  C_5 
REMARK    2  A    between atoms: C_6  and  O_7 
REMARK    3  A    between atoms: O_7  and  C_8 
REMARK    4  A    between atoms: C_8  and  C_9 
REMARK       I    between atoms: C_9  and  N_10 
REMARK    5  A    between atoms: N_10  and  N_11 
REMARK       I    between atoms: N_11  and  C_12 
REMARK    6  A    between atoms: C_12  and  C_13 
ROOT
HETATM    1  C   UNL     1      24.623  45.067  51.161  1.00  0.00     0.260 C 
HETATM    2  N   UNL     1      25.362  44.178  51.904  1.00  0.00    -0.265 N 
HETATM    3  O   UNL     1      23.719  44.657  50.431  1.00  0.00    -0.269 OA
HETATM    4  H   UNL     1      25.001  43.223  51.912  1.00  0.00     0.190 HD
ENDROOT
BRANCH   1   5
HETATM    5  C   UNL     1      24.979  46.550  51.248  1.00  0.00     0.280 C 
BRANCH   5   6
HETATM    6  O   UNL     1      24.434  47.311  50.171  1.00  0.00    -0.341 OA
BRANCH   6   7
HETATM    7  C   UNL     1      25.340  48.162  49.581  1.00  0.00     0.080 A 
HETATM    8  C   UNL     1      24.852  49.252  48.830  1.00  0.00     0.007 A 
HETATM    9  C   UNL     1      25.795  50.132  48.258  1.00  0.00     0.015 A 
HETATM   10  C   UNL     1      27.166  49.954  48.444  1.00  0.00     0.001 A 
HETATM   11  C   UNL     1      27.627  48.895  49.217  1.00  0.00     0.003 A 
HETATM   12  C   UNL     1      26.718  48.007  49.791  1.00  0.00     0.037 A 
BRANCH   8  13
HETATM   13  C   UNL     1      23.414  49.500  48.610  1.00  0.00    -0.023 A 
HETATM   14  C   UNL     1      22.851  50.755  48.903  1.00  0.00     0.012 A 
HETATM   15  C   UNL     1      21.500  51.014  48.662  1.00  0.00     0.001 A 
HETATM   16  C   UNL     1      20.685  50.021  48.125  1.00  0.00     0.000 A 
HETATM   17  C   UNL     1      21.222  48.770  47.829  1.00  0.00     0.001 A 
HETATM   18  C   UNL     1      22.575  48.514  48.067  1.00  0.00     0.012 A 
ENDBRANCH   8  13
ENDBRANCH   6   7
ENDBRANCH   5   6
ENDBRANCH   1   5
BRANCH   2  19
HETATM   19  N   UNL     1      26.044  44.571  53.062  1.00  0.00    -0.262 N 
HETATM   20  C   UNL     1      27.426  44.453  53.083  1.00  0.00     0.291 C 
HETATM   21  O   UNL     1      28.055  43.896  52.184  1.00  0.00    -0.264 OA
HETATM   22  H   UNL     1      25.599  45.205  53.727  1.00  0.00     0.190 HD
BRANCH  20  23
HETATM   23  C   UNL     1      28.052  45.067  54.259  1.00  0.00     0.158 A 
HETATM   24  N   UNL     1      27.620  46.248  54.753  1.00  0.00    -0.168 NA
HETATM   25  N   UNL     1      28.427  46.469  55.807  1.00  0.00    -0.277 N 
HETATM   26  H   UNL     1      28.288  47.313  56.351  1.00  0.00     0.189 HD
HETATM   27  C   UNL     1      29.365  45.495  56.017  1.00  0.00     0.063 A 
HETATM   28  C   UNL     1      29.148  44.557  55.015  1.00  0.00     0.028 A 
HETATM   29  C   UNL     1      30.367  45.364  56.985  1.00  0.00     0.032 A 
HETATM   30  C   UNL     1      29.975  43.416  54.964  1.00  0.00     0.016 A 
HETATM   31  C   UNL     1      30.986  43.266  55.920  1.00  0.00     0.001 A 
HETATM   32  C   UNL     1      31.177  44.225  56.914  1.00  0.00     0.002 A 
ENDBRANCH  20  23
ENDBRANCH   2  19
TORSDOF 6
ENDMDL
MODEL 4
REMARK VINA RESULT:      -9.4      4.175      6.751
REMARK  6 active torsions:
REMARK  status: ('A' for Active; 'I' for Inactive)
REMARK    1  A    between atoms: C_4  and  C_5 
REMARK    2  A    between atoms: C_6  and  O_7 
REMARK    3  A    between atoms: O_7  and  C_8 
REMARK    4  A    between atoms: C_8  and  C_9 
REMARK       I    between atoms: C_9  and  N_10 
REMARK    5  A    between atoms: N_10  and  N_11 
REMARK       I    between atoms: N_11  and  C_12 
REMARK    6  A    between atoms: C_12  and  C_13 
ROOT
HETATM    1  C   UNL     1      27.164  49.047  48.991  1.00  0.00     0.260 C 
HETATM    2  N   UNL     1      26.043  49.717  48.559  1.00  0.00    -0.265 N 
HETATM    3  O   UNL     1      28.264  49.602  48.957  1.00  0.00    -0.269 OA
HETATM    4  H   UNL     1      26.184  50.711  48.374  1.00  0.00     0.190 HD
ENDROOT
BRANCH   1   5
HETATM    5  C   UNL     1      27.001  47.608  49.475  1.00  0.00     0.280 C 
BRANCH   5   6
HETATM    6  O   UNL     1      26.207  47.510  50.656  1.00  0.00    -0.341 OA
BRANCH   6   7
HETATM    7  C   UNL     1      25.571  46.299  50.797  1.00  0.00     0.080 A 
HETATM    8  C   UNL     1      25.593  45.667  52.058  1.00  0.00     0.007 A 
HETATM    9  C   UNL     1      24.910  44.440  52.193  1.00  0.00     0.015 A 
HETATM   10  C   UNL     1      24.211  43.874  51.126  1.00  0.00     0.001 A 
HETATM   11  C   UNL     1      24.170  44.528  49.901  1.00  0.00     0.003 A 
HETATM   12  C   UNL     1      24.840  45.740  49.738  1.00  0.00     0.037 A 
BRANCH   8  13
HETATM   13  C   UNL     1      26.304  46.224  53.226  1.00  0.00    -0.023 A 
HETATM   14  C   UNL     1      25.839  47.393  53.856  1.00  0.00     0.012 A 
HETATM   15  C   UNL     1      26.480  47.908  54.985  1.00  0.00     0.001 A 
HETATM   16  C   UNL     1      27.599  47.264  55.505  1.00  0.00     0.000 A 
HETATM   17  C   UNL     1      28.077  46.106  54.896  1.00  0.00     0.001 A 
HETATM   18  C   UNL     1      27.432  45.590  53.768  1.00  0.00     0.012 A 
ENDBRANCH   8  13
ENDBRANCH   6   7
ENDBRANCH   5   6
ENDBRANCH   1   5
BRANCH   2  19
HETATM   19  N   UNL     1      24.760  49.363  48.992  1.00  0.00    -0.262 N 
HETATM   20  C   UNL     1      23.685  49.657  48.167  1.00  0.00     0.291 C 
HETATM   21  O   UNL     1      23.802  50.330  47.143  1.00  0.00    -0.264 OA
HETATM   22  H   UNL     1      24.641  48.648  49.710  1.00  0.00     0.190 HD
BRANCH  20  23
HETATM   23  C   UNL     1      22.416  49.077  48.622  1.00  0.00     0.158 A 
HETATM   24  N   UNL     1      22.218  47.740  48.640  1.00  0.00    -0.168 NA
HETATM   25  N   UNL     1      20.964  47.609  49.112  1.00  0.00    -0.277 N 
HETATM   26  H   UNL     1      20.586  46.674  49.220  1.00  0.00     0.189 HD
HETATM   27  C   UNL     1      20.337  48.792  49.393  1.00  0.00     0.063 A 
HETATM   28  C   UNL     1      21.263  49.780  49.081  1.00  0.00     0.028 A 
HETATM   29  C   UNL     1      19.057  49.071  49.884  1.00  0.00     0.032 A 
HETATM   30  C   UNL     1      20.903  51.130  49.265  1.00  0.00     0.016 A 
HETATM   31  C   UNL     1      19.626  51.433  49.753  1.00  0.00     0.001 A 
HETATM   32  C   UNL     1      18.720  50.418  50.058  1.00  0.00     0.002 A 
ENDBRANCH  20  23
ENDBRANCH   2  19
TORSDOF 6
ENDMDL
MODEL 5
REMARK VINA RESULT:      -8.9      1.752      2.871
REMARK  6 active torsions:
REMARK  status: ('A' for Active; 'I' for Inactive)
REMARK    1  A    between atoms: C_4  and  C_5 
REMARK    2  A    between atoms: C_6  and  O_7 
REMARK    3  A    between atoms: O_7  and  C_8 
REMARK    4  A    between atoms: C_8  and  C_9 
REMARK       I    between atoms: C_9  and  N_10 
REMARK    5  A    between atoms: N_10  and  N_11 
REMARK       I    between atoms: N_11  and  C_12 
REMARK    6  A    between atoms: C_12  and  C_13 
ROOT
HETATM    1  C   UNL     1      26.455  42.511  50.351  1.00  0.00     0.260 C 
HETATM    2  N   UNL     1      25.173  42.959  50.137  1.00  0.00    -0.265 N 
HETATM    3  O   UNL     1      26.682  41.302  50.409  1.00  0.00    -0.269 OA
HETATM    4  H   UNL     1      24.502  42.232  49.884  1.00  0.00     0.190 HD
ENDROOT
BRANCH   1   5
HETATM    5  C   UNL     1      27.559  43.549  50.544  1.00  0.00     0.280 C 
BRANCH   5   6
HETATM    6  O   UNL     1      27.447  44.248  51.783  1.00  0.00    -0.341 OA
BRANCH   6   7
HETATM    7  C   UNL     1      28.403  43.893  52.706  1.00  0.00     0.080 A 
HETATM    8  C   UNL     1      28.510  44.649  53.892  1.00  0.00     0.007 A 
HETATM    9  C   UNL     1      29.474  44.252  54.842  1.00  0.00     0.015 A 
HETATM   10  C   UNL     1      30.283  43.134  54.637  1.00  0.00     0.001 A 
HETATM   11  C   UNL     1      30.139  42.380  53.479  1.00  0.00     0.003 A 
HETATM   12  C   UNL     1      29.197  42.752  52.520  1.00  0.00     0.037 A 
BRANCH   8  13
HETATM   13  C   UNL     1      27.673  45.833  54.172  1.00  0.00    -0.023 A 
HETATM   14  C   UNL     1      26.582  46.150  53.342  1.00  0.00     0.012 A 
HETATM   15  C   UNL     1      25.760  47.245  53.619  1.00  0.00     0.001 A 
HETATM   16  C   UNL     1      26.014  48.044  54.729  1.00  0.00     0.000 A 
HETATM   17  C   UNL     1      27.090  47.749  55.563  1.00  0.00     0.001 A 
HETATM   18  C   UNL     1      27.910  46.651  55.287  1.00  0.00     0.012 A 
ENDBRANCH   8  13
ENDBRANCH   6   7
ENDBRANCH   5   6
ENDBRANCH   1   5
BRANCH   2  19
HETATM   19  N   UNL     1      24.914  44.226  49.602  1.00  0.00    -0.262 N 
HETATM   20  C   UNL     1      24.352  45.187  50.430  1.00  0.00     0.291 C 
HETATM   21  O   UNL     1      23.954  44.929  51.565  1.00  0.00    -0.264 OA
HETATM   22  H   UNL     1      25.399  44.535  48.758  1.00  0.00     0.190 HD
BRANCH  20  23
HETATM   23  C   UNL     1      24.301  46.526  49.830  1.00  0.00     0.158 A 
HETATM   24  N   UNL     1      23.132  47.082  49.446  1.00  0.00    -0.168 NA
HETATM   25  N   UNL     1      23.495  48.284  48.958  1.00  0.00    -0.277 N 
HETATM   26  H   UNL     1      22.769  48.898  48.605  1.00  0.00     0.189 HD
HETATM   27  C   UNL     1      24.839  48.531  49.000  1.00  0.00     0.063 A 
HETATM   28  C   UNL     1      25.402  47.394  49.568  1.00  0.00     0.028 A 
HETATM   29  C   UNL     1      25.593  49.636  48.593  1.00  0.00     0.032 A 
HETATM   30  C   UNL     1      26.800  47.344  49.744  1.00  0.00     0.016 A 
HETATM   31  C   UNL     1      27.575  48.438  49.341  1.00  0.00     0.001 A 
HETATM   32  C   UNL     1      26.979  49.565  48.777  1.00  0.00     0.002 A 
ENDBRANCH  20  23
ENDBRANCH   2  19
TORSDOF 6
ENDMDL
MODEL 6
REMARK VINA RESULT:      -8.8      2.477      4.614
REMARK  6 active torsions:
REMARK  status: ('A' for Active; 'I' for Inactive)
REMARK    1  A    between atoms: C_4  and  C_5 
REMARK    2  A    between atoms: C_6  and  O_7 
REMARK    3  A    between atoms: O_7  and  C_8 
REMARK    4  A    between atoms: C_8  and  C_9 
REMARK       I    between atoms: C_9  and  N_10 
REMARK    5  A    between atoms: N_10  and  N_11 
REMARK       I    between atoms: N_11  and  C_12 
REMARK    6  A    between atoms: C_12  and  C_13 
ROOT
HETATM    1  C   UNL     1      26.513  47.521  54.759  1.00  0.00     0.260 C 
HETATM    2  N   UNL     1      25.828  47.397  53.574  1.00  0.00    -0.265 N 
HETATM    3  O   UNL     1      25.950  47.989  55.750  1.00  0.00    -0.269 OA
HETATM    4  H   UNL     1      24.824  47.569  53.640  1.00  0.00     0.190 HD
ENDROOT
BRANCH   1   5
HETATM    5  C   UNL     1      27.980  47.095  54.792  1.00  0.00     0.280 C 
BRANCH   5   6
HETATM    6  O   UNL     1      28.141  45.677  54.809  1.00  0.00    -0.341 OA
BRANCH   6   7
HETATM    7  C   UNL     1      29.133  45.243  55.656  1.00  0.00     0.080 A 
HETATM    8  C   UNL     1      29.698  43.968  55.438  1.00  0.00     0.007 A 
HETATM    9  C   UNL     1      30.736  43.552  56.298  1.00  0.00     0.015 A 
HETATM   10  C   UNL     1      31.214  44.376  57.318  1.00  0.00     0.001 A 
HETATM   11  C   UNL     1      30.670  45.642  57.494  1.00  0.00     0.003 A 
HETATM   12  C   UNL     1      29.640  46.079  56.663  1.00  0.00     0.037 A 
BRANCH   8  13
HETATM   13  C   UNL     1      29.244  43.058  54.368  1.00  0.00    -0.023 A 
HETATM   14  C   UNL     1      27.912  42.608  54.329  1.00  0.00     0.012 A 
HETATM   15  C   UNL     1      27.461  41.778  53.300  1.00  0.00     0.001 A 
HETATM   16  C   UNL     1      28.334  41.381  52.292  1.00  0.00     0.000 A 
HETATM   17  C   UNL     1      29.658  41.814  52.313  1.00  0.00     0.001 A 
HETATM   18  C   UNL     1      30.107  42.647  53.341  1.00  0.00     0.012 A 
ENDBRANCH   8  13
ENDBRANCH   6   7
ENDBRANCH   5   6
ENDBRANCH   1   5
BRANCH   2  19
HETATM   19  N   UNL     1      26.215  46.480  52.590  1.00  0.00    -0.262 N 
HETATM   20  C   UNL     1      25.561  45.258  52.537  1.00  0.00     0.291 C 
HETATM   21  O   UNL     1      24.755  44.902  53.396  1.00  0.00    -0.264 OA
HETATM   22  H   UNL     1      26.717  46.800  51.761  1.00  0.00     0.190 HD
BRANCH  20  23
HETATM   23  C   UNL     1      25.908  44.454  51.359  1.00  0.00     0.158 A 
HETATM   24  N   UNL     1      27.171  44.410  50.882  1.00  0.00    -0.168 NA
HETATM   25  N   UNL     1      27.084  43.584  49.822  1.00  0.00    -0.277 N 
HETATM   26  H   UNL     1      27.927  43.389  49.293  1.00  0.00     0.189 HD
HETATM   27  C   UNL     1      25.828  43.097  49.584  1.00  0.00     0.063 A 
HETATM   28  C   UNL     1      25.027  43.650  50.576  1.00  0.00     0.028 A 
HETATM   29  C   UNL     1      25.338  42.234  48.598  1.00  0.00     0.032 A 
HETATM   30  C   UNL     1      23.654  43.333  50.595  1.00  0.00     0.016 A 
HETATM   31  C   UNL     1      23.141  42.473  49.616  1.00  0.00     0.001 A 
HETATM   32  C   UNL     1      23.972  41.933  48.635  1.00  0.00     0.002 A 
ENDBRANCH  20  23
ENDBRANCH   2  19
TORSDOF 6
ENDMDL
MODEL 7
REMARK VINA RESULT:      -8.7      4.033      6.584
REMARK  6 active torsions:
REMARK  status: ('A' for Active; 'I' for Inactive)
REMARK    1  A    between atoms: C_4  and  C_5 
REMARK    2  A    between atoms: C_6  and  O_7 
REMARK    3  A    between atoms: O_7  and  C_8 
REMARK    4  A    between atoms: C_8  and  C_9 
REMARK       I    between atoms: C_9  and  N_10 
REMARK    5  A    between atoms: N_10  and  N_11 
REMARK       I    between atoms: N_11  and  C_12 
REMARK    6  A    between atoms: C_12  and  C_13 
ROOT
HETATM    1  C   UNL     1      27.033  49.024  48.976  1.00  0.00     0.260 C 
HETATM    2  N   UNL     1      25.897  49.651  48.523  1.00  0.00    -0.265 N 
HETATM    3  O   UNL     1      28.116  49.609  48.938  1.00  0.00    -0.269 OA
HETATM    4  H   UNL     1      26.009  50.645  48.318  1.00  0.00     0.190 HD
ENDROOT
BRANCH   1   5
HETATM    5  C   UNL     1      26.909  47.590  49.489  1.00  0.00     0.280 C 
BRANCH   5   6
HETATM    6  O   UNL     1      26.055  47.485  50.627  1.00  0.00    -0.341 OA
BRANCH   6   7
HETATM    7  C   UNL     1      25.429  46.265  50.738  1.00  0.00     0.080 A 
HETATM    8  C   UNL     1      25.478  45.590  51.976  1.00  0.00     0.007 A 
HETATM    9  C   UNL     1      24.804  44.355  52.080  1.00  0.00     0.015 A 
HETATM   10  C   UNL     1      24.087  43.823  51.008  1.00  0.00     0.001 A 
HETATM   11  C   UNL     1      24.020  44.519  49.808  1.00  0.00     0.003 A 
HETATM   12  C   UNL     1      24.680  45.740  49.674  1.00  0.00     0.037 A 
BRANCH   8  13
HETATM   13  C   UNL     1      26.208  46.110  53.149  1.00  0.00    -0.023 A 
HETATM   14  C   UNL     1      27.342  45.439  53.641  1.00  0.00     0.012 A 
HETATM   15  C   UNL     1      28.064  45.942  54.726  1.00  0.00     0.001 A 
HETATM   16  C   UNL     1      27.664  47.125  55.341  1.00  0.00     0.000 A 
HETATM   17  C   UNL     1      26.542  47.804  54.871  1.00  0.00     0.001 A 
HETATM   18  C   UNL     1      25.823  47.301  53.782  1.00  0.00     0.012 A 
ENDBRANCH   8  13
ENDBRANCH   6   7
ENDBRANCH   5   6
ENDBRANCH   1   5
BRANCH   2  19
HETATM   19  N   UNL     1      24.621  49.269  48.954  1.00  0.00    -0.262 N 
HETATM   20  C   UNL     1      23.535  49.584  48.151  1.00  0.00     0.291 C 
HETATM   21  O   UNL     1      23.635  50.297  47.154  1.00  0.00    -0.264 OA
HETATM   22  H   UNL     1      24.516  48.525  49.646  1.00  0.00     0.190 HD
BRANCH  20  23
HETATM   23  C   UNL     1      22.276  48.974  48.596  1.00  0.00     0.158 A 
HETATM   24  N   UNL     1      21.481  49.580  49.504  1.00  0.00    -0.168 NA
HETATM   25  N   UNL     1      20.447  48.728  49.644  1.00  0.00    -0.277 N 
HETATM   26  H   UNL     1      19.703  48.976  50.286  1.00  0.00     0.189 HD
HETATM   27  C   UNL     1      20.537  47.598  48.879  1.00  0.00     0.063 A 
HETATM   28  C   UNL     1      21.729  47.726  48.176  1.00  0.00     0.028 A 
HETATM   29  C   UNL     1      19.686  46.495  48.748  1.00  0.00     0.032 A 
HETATM   30  C   UNL     1      22.108  46.698  47.289  1.00  0.00     0.016 A 
HETATM   31  C   UNL     1      21.273  45.583  47.145  1.00  0.00     0.001 A 
HETATM   32  C   UNL     1      20.082  45.486  47.863  1.00  0.00     0.002 A 
ENDBRANCH  20  23
ENDBRANCH   2  19
TORSDOF 6
ENDMDL
MODEL 8
REMARK VINA RESULT:      -8.7     12.681     15.173
REMARK  6 active torsions:
REMARK  status: ('A' for Active; 'I' for Inactive)
REMARK    1  A    between atoms: C_4  and  C_5 
REMARK    2  A    between atoms: C_6  and  O_7 
REMARK    3  A    between atoms: O_7  and  C_8 
REMARK    4  A    between atoms: C_8  and  C_9 
REMARK       I    between atoms: C_9  and  N_10 
REMARK    5  A    between atoms: N_10  and  N_11 
REMARK       I    between atoms: N_11  and  C_12 
REMARK    6  A    between atoms: C_12  and  C_13 
ROOT
HETATM    1  C   UNL     1      25.976  49.910  38.678  1.00  0.00     0.260 C 
HETATM    2  N   UNL     1      26.228  50.719  39.761  1.00  0.00    -0.265 N 
HETATM    3  O   UNL     1      24.814  49.669  38.346  1.00  0.00    -0.269 OA
HETATM    4  H   UNL     1      25.409  51.199  40.136  1.00  0.00     0.190 HD
ENDROOT
BRANCH   1   5
HETATM    5  C   UNL     1      27.168  49.307  37.936  1.00  0.00     0.280 C 
BRANCH   5   6
HETATM    6  O   UNL     1      28.143  48.754  38.818  1.00  0.00    -0.341 OA
BRANCH   6   7
HETATM    7  C   UNL     1      28.373  47.413  38.618  1.00  0.00     0.080 A 
HETATM    8  C   UNL     1      29.384  46.781  39.373  1.00  0.00     0.007 A 
HETATM    9  C   UNL     1      29.585  45.398  39.177  1.00  0.00     0.015 A 
HETATM   10  C   UNL     1      28.798  44.665  38.289  1.00  0.00     0.001 A 
HETATM   11  C   UNL     1      27.783  45.297  37.581  1.00  0.00     0.003 A 
HETATM   12  C   UNL     1      27.564  46.664  37.750  1.00  0.00     0.037 A 
BRANCH   8  13
HETATM   13  C   UNL     1      30.239  47.501  40.337  1.00  0.00    -0.023 A 
HETATM   14  C   UNL     1      29.689  48.050  41.510  1.00  0.00     0.012 A 
HETATM   15  C   UNL     1      30.494  48.700  42.448  1.00  0.00     0.001 A 
HETATM   16  C   UNL     1      31.864  48.813  42.232  1.00  0.00     0.000 A 
HETATM   17  C   UNL     1      32.429  48.278  41.076  1.00  0.00     0.001 A 
HETATM   18  C   UNL     1      31.622  47.625  40.139  1.00  0.00     0.012 A 
ENDBRANCH   8  13
ENDBRANCH   6   7
ENDBRANCH   5   6
ENDBRANCH   1   5
BRANCH   2  19
HETATM   19  N   UNL     1      27.441  51.402  39.905  1.00  0.00    -0.262 N 
HETATM   20  C   UNL     1      28.130  51.271  41.102  1.00  0.00     0.291 C 
HETATM   21  O   UNL     1      27.654  50.693  42.078  1.00  0.00    -0.264 OA
HETATM   22  H   UNL     1      27.955  51.714  39.080  1.00  0.00     0.190 HD
BRANCH  20  23
HETATM   23  C   UNL     1      29.471  51.866  41.079  1.00  0.00     0.158 A 
HETATM   24  N   UNL     1      29.872  52.740  42.027  1.00  0.00    -0.168 NA
HETATM   25  N   UNL     1      31.132  53.049  41.666  1.00  0.00    -0.277 N 
HETATM   26  H   UNL     1      31.652  53.701  42.244  1.00  0.00     0.189 HD
HETATM   27  C   UNL     1      31.565  52.425  40.529  1.00  0.00     0.063 A 
HETATM   28  C   UNL     1      30.497  51.639  40.114  1.00  0.00     0.028 A 
HETATM   29  C   UNL     1      32.782  52.486  39.842  1.00  0.00     0.032 A 
HETATM   30  C   UNL     1      30.638  50.864  38.945  1.00  0.00     0.016 A 
HETATM   31  C   UNL     1      31.847  50.911  38.240  1.00  0.00     0.001 A 
HETATM   32  C   UNL     1      32.901  51.709  38.684  1.00  0.00     0.002 A 
ENDBRANCH  20  23
ENDBRANCH   2  19
TORSDOF 6
ENDMDL
MODEL 9
REMARK VINA RESULT:      -8.7      2.194      6.347
REMARK  6 active torsions:
REMARK  status: ('A' for Active; 'I' for Inactive)
REMARK    1  A    between atoms: C_4  and  C_5 
REMARK    2  A    between atoms: C_6  and  O_7 
REMARK    3  A    between atoms: O_7  and  C_8 
REMARK    4  A    between atoms: C_8  and  C_9 
REMARK       I    between atoms: C_9  and  N_10 
REMARK    5  A    between atoms: N_10  and  N_11 
REMARK       I    between atoms: N_11  and  C_12 
REMARK    6  A    between atoms: C_12  and  C_13 
ROOT
HETATM    1  C   UNL     1      28.132  40.857  51.095  1.00  0.00     0.260 C 
HETATM    2  N   UNL     1      28.943  40.874  52.205  1.00  0.00    -0.265 N 
HETATM    3  O   UNL     1      27.970  39.809  50.468  1.00  0.00    -0.269 OA
HETATM    4  H   UNL     1      29.247  39.955  52.528  1.00  0.00     0.190 HD
ENDROOT
BRANCH   1   5
HETATM    5  C   UNL     1      27.476  42.166  50.660  1.00  0.00     0.280 C 
BRANCH   5   6
HETATM    6  O   UNL     1      26.375  42.533  51.490  1.00  0.00    -0.341 OA
BRANCH   6   7
HETATM    7  C   UNL     1      25.210  42.760  50.795  1.00  0.00     0.080 A 
HETATM    8  C   UNL     1      24.574  44.012  50.934  1.00  0.00     0.007 A 
HETATM    9  C   UNL     1      23.397  44.238  50.190  1.00  0.00     0.015 A 
HETATM   10  C   UNL     1      22.884  43.272  49.324  1.00  0.00     0.001 A 
HETATM   11  C   UNL     1      23.544  42.059  49.173  1.00  0.00     0.003 A 
HETATM   12  C   UNL     1      24.707  41.805  49.899  1.00  0.00     0.037 A 
BRANCH   8  13
HETATM   13  C   UNL     1      25.076  45.077  51.824  1.00  0.00    -0.023 A 
HETATM   14  C   UNL     1      25.574  46.279  51.291  1.00  0.00     0.012 A 
HETATM   15  C   UNL     1      26.016  47.310  52.124  1.00  0.00     0.001 A 
HETATM   16  C   UNL     1      25.970  47.156  53.506  1.00  0.00     0.000 A 
HETATM   17  C   UNL     1      25.482  45.972  54.055  1.00  0.00     0.001 A 
HETATM   18  C   UNL     1      25.037  44.943  53.220  1.00  0.00     0.012 A 
ENDBRANCH   8  13
ENDBRANCH   6   7
ENDBRANCH   5   6
ENDBRANCH   1   5
BRANCH   2  19
HETATM   19  N   UNL     1      28.806  41.846  53.203  1.00  0.00    -0.262 N 
HETATM   20  C   UNL     1      29.899  42.650  53.491  1.00  0.00     0.291 C 
HETATM   21  O   UNL     1      31.011  42.454  53.001  1.00  0.00    -0.264 OA
HETATM   22  H   UNL     1      27.878  42.168  53.481  1.00  0.00     0.190 HD
BRANCH  20  23
HETATM   23  C   UNL     1      29.594  43.753  54.409  1.00  0.00     0.158 A 
HETATM   24  N   UNL     1      28.655  44.679  54.113  1.00  0.00    -0.168 NA
HETATM   25  N   UNL     1      28.668  45.501  55.180  1.00  0.00    -0.277 N 
HETATM   26  H   UNL     1      28.030  46.288  55.188  1.00  0.00     0.189 HD
HETATM   27  C   UNL     1      29.573  45.159  56.148  1.00  0.00     0.063 A 
HETATM   28  C   UNL     1      30.200  44.014  55.674  1.00  0.00     0.028 A 
HETATM   29  C   UNL     1      29.885  45.751  57.376  1.00  0.00     0.032 A 
HETATM   30  C   UNL     1      31.204  43.414  56.462  1.00  0.00     0.016 A 
HETATM   31  C   UNL     1      31.535  43.991  57.694  1.00  0.00     0.001 A 
HETATM   32  C   UNL     1      30.885  45.139  58.142  1.00  0.00     0.002 A 
ENDBRANCH  20  23
ENDBRANCH   2  19
TORSDOF 6
ENDMDL
MODEL 10
REMARK VINA RESULT:      -8.7      2.572      7.000
REMARK  6 active torsions:
REMARK  status: ('A' for Active; 'I' for Inactive)
REMARK    1  A    between atoms: C_4  and  C_5 
REMARK    2  A    between atoms: C_6  and  O_7 
REMARK    3  A    between atoms: O_7  and  C_8 
REMARK    4  A    between atoms: C_8  and  C_9 
REMARK       I    between atoms: C_9  and  N_10 
REMARK    5  A    between atoms: N_10  and  N_11 
REMARK       I    between atoms: N_11  and  C_12 
REMARK    6  A    between atoms: C_12  and  C_13 
ROOT
HETATM    1  C   UNL     1      24.358  44.446  51.121  1.00  0.00     0.260 C 
HETATM    2  N   UNL     1      24.966  43.297  51.567  1.00  0.00    -0.265 N 
HETATM    3  O   UNL     1      23.244  44.389  50.598  1.00  0.00    -0.269 OA
HETATM    4  H   UNL     1      24.369  42.468  51.566  1.00  0.00     0.190 HD
ENDROOT
BRANCH   1   5
HETATM    5  C   UNL     1      25.113  45.765  51.269  1.00  0.00     0.280 C 
BRANCH   5   6
HETATM    6  O   UNL     1      24.400  46.872  50.718  1.00  0.00    -0.341 OA
BRANCH   6   7
HETATM    7  C   UNL     1      25.187  47.724  49.979  1.00  0.00     0.080 A 
HETATM    8  C   UNL     1      24.560  48.733  49.217  1.00  0.00     0.007 A 
HETATM    9  C   UNL     1      25.384  49.617  48.489  1.00  0.00     0.015 A 
HETATM   10  C   UNL     1      26.775  49.523  48.535  1.00  0.00     0.001 A 
HETATM   11  C   UNL     1      27.376  48.546  49.320  1.00  0.00     0.003 A 
HETATM   12  C   UNL     1      26.587  47.655  50.046  1.00  0.00     0.037 A 
BRANCH   8  13
HETATM   13  C   UNL     1      23.094  48.891  49.140  1.00  0.00    -0.023 A 
HETATM   14  C   UNL     1      22.281  47.825  48.715  1.00  0.00     0.012 A 
HETATM   15  C   UNL     1      20.891  47.949  48.675  1.00  0.00     0.001 A 
HETATM   16  C   UNL     1      20.287  49.144  49.058  1.00  0.00     0.000 A 
HETATM   17  C   UNL     1      21.074  50.213  49.480  1.00  0.00     0.001 A 
HETATM   18  C   UNL     1      22.465  50.085  49.523  1.00  0.00     0.012 A 
ENDBRANCH   8  13
ENDBRANCH   6   7
ENDBRANCH   5   6
ENDBRANCH   1   5
BRANCH   2  19
HETATM   19  N   UNL     1      25.956  43.322  52.555  1.00  0.00    -0.262 N 
HETATM   20  C   UNL     1      27.245  42.948  52.204  1.00  0.00     0.291 C 
HETATM   21  O   UNL     1      27.518  42.472  51.103  1.00  0.00    -0.264 OA
HETATM   22  H   UNL     1      25.825  43.884  53.397  1.00  0.00     0.190 HD
BRANCH  20  23
HETATM   23  C   UNL     1      28.238  43.192  53.257  1.00  0.00     0.158 A 
HETATM   24  N   UNL     1      29.183  42.277  53.562  1.00  0.00    -0.168 NA
HETATM   25  N   UNL     1      29.885  42.860  54.552  1.00  0.00    -0.277 N 
HETATM   26  H   UNL     1      30.668  42.352  54.950  1.00  0.00     0.189 HD
HETATM   27  C   UNL     1      29.439  44.102  54.909  1.00  0.00     0.063 A 
HETATM   28  C   UNL     1      28.354  44.353  54.077  1.00  0.00     0.028 A 
HETATM   29  C   UNL     1      29.888  45.009  55.875  1.00  0.00     0.032 A 
HETATM   30  C   UNL     1      27.668  45.578  54.209  1.00  0.00     0.016 A 
HETATM   31  C   UNL     1      28.098  46.499  55.171  1.00  0.00     0.001 A 
HETATM   32  C   UNL     1      29.192  46.217  55.989  1.00  0.00     0.002 A 
ENDBRANCH  20  23
ENDBRANCH   2  19
TORSDOF 6
ENDMDL
