MODEL 1
REMARK VINA RESULT:      -7.2      0.000      0.000
REMARK  5 active torsions:
REMARK  status: ('A' for Active; 'I' for Inactive)
REMARK    1  A    between atoms: C_2  and  C_3 
REMARK    2  A    between atoms: C_3  and  C_4 
REMARK    3  A    between atoms: C_10  and  C_11 
REMARK    4  A    between atoms: C_12  and  O_13 
REMARK    5  A    between atoms: C_22  and  N_23 
ROOT
HETATM    1  C   UNL     1      19.979  49.805  49.855  1.00  0.00     0.066 A 
HETATM    2  N   UNL     1      19.070  49.620  50.827  1.00  0.00    -0.177 NA
HETATM    3  N   UNL     1      18.744  48.314  50.737  1.00  0.00    -0.256 N 
HETATM    4  H   UNL     1      18.048  47.938  51.370  1.00  0.00     0.191 HD
HETATM    5  C   UNL     1      19.406  47.678  49.739  1.00  0.00     0.175 A 
HETATM    6  C   UNL     1      20.239  48.600  49.161  1.00  0.00     0.035 A 
HETATM    7  C   UNL     1      21.096  48.211  48.004  1.00  0.00     0.107 A 
HETATM    8  C   UNL     1      20.741  46.795  47.550  1.00  0.00     0.067 A 
HETATM    9  C   UNL     1      21.333  46.336  46.228  1.00  0.00     0.020 C 
HETATM   10  N   UNL     1      21.824  45.955  45.131  1.00  0.00    -0.096 N 
HETATM   11  C   UNL     1      19.873  45.987  48.218  1.00  0.00     0.139 A 
HETATM   12  O   UNL     1      19.224  46.408  49.394  1.00  0.00    -0.279 OA
ENDROOT
BRANCH   7  13
HETATM   13  C   UNL     1      22.536  48.323  48.489  1.00  0.00    -0.010 A 
HETATM   14  C   UNL     1      23.373  49.345  48.016  1.00  0.00     0.073 A 
HETATM   15  C   UNL     1      24.702  49.450  48.431  1.00  0.00     0.038 A 
HETATM   16  C   UNL     1      25.225  48.521  49.331  1.00  0.00     0.022 A 
HETATM   17  C   UNL     1      24.416  47.494  49.805  1.00  0.00     0.011 A 
HETATM   18 BR   UNL     1      25.122  46.227  51.019  1.00  0.00    -0.051 Br
HETATM   19  C   UNL     1      23.088  47.387  49.390  1.00  0.00     0.030 A 
BRANCH  14  20
HETATM   20  O   UNL     1      22.868  50.252  47.130  1.00  0.00    -0.360 OA
HETATM   21  H   UNL     1      23.344  51.094  47.229  1.00  0.00     0.217 HD
ENDBRANCH  14  20
ENDBRANCH   7  13
BRANCH  11  22
HETATM   22  N   UNL     1      19.519  44.712  47.841  1.00  0.00    -0.282 NA
HETATM   23  H   UNL     1      20.291  44.078  47.647  1.00  0.00     0.126 HD
HETATM   24  H   UNL     1      18.819  44.310  48.459  1.00  0.00     0.126 HD
ENDBRANCH  11  22
BRANCH   1  25
HETATM   25  C   UNL     1      20.550  51.163  49.612  1.00  0.00     0.061 C 
BRANCH  25  26
HETATM   26  C   UNL     1      19.996  51.815  48.345  1.00  0.00     0.002 C 
HETATM   27  C   UNL     1      18.664  52.499  48.611  1.00  0.00     0.005 C 
ENDBRANCH  25  26
ENDBRANCH   1  25
TORSDOF 5
ENDMDL
MODEL 2
REMARK VINA RESULT:      -7.1     10.440     12.496
REMARK  5 active torsions:
REMARK  status: ('A' for Active; 'I' for Inactive)
REMARK    1  A    between atoms: C_2  and  C_3 
REMARK    2  A    between atoms: C_3  and  C_4 
REMARK    3  A    between atoms: C_10  and  C_11 
REMARK    4  A    between atoms: C_12  and  O_13 
REMARK    5  A    between atoms: C_22  and  N_23 
ROOT
HETATM    1  C   UNL     1      31.960  49.178  42.107  1.00  0.00     0.066 A 
HETATM    2  N   UNL     1      33.207  48.817  41.759  1.00  0.00    -0.177 NA
HETATM    3  N   UNL     1      33.031  47.832  40.854  1.00  0.00    -0.256 N 
HETATM    4  H   UNL     1      33.847  47.383  40.454  1.00  0.00     0.191 HD
HETATM    5  C   UNL     1      31.722  47.555  40.631  1.00  0.00     0.175 A 
HETATM    6  C   UNL     1      30.993  48.424  41.401  1.00  0.00     0.035 A 
HETATM    7  C   UNL     1      29.503  48.357  41.394  1.00  0.00     0.107 A 
HETATM    8  C   UNL     1      29.043  47.140  40.592  1.00  0.00     0.067 A 
HETATM    9  C   UNL     1      27.572  46.773  40.696  1.00  0.00     0.020 C 
HETATM   10  N   UNL     1      26.351  46.469  40.783  1.00  0.00    -0.096 N 
HETATM   11  C   UNL     1      29.888  46.345  39.881  1.00  0.00     0.139 A 
HETATM   12  O   UNL     1      31.274  46.589  39.838  1.00  0.00    -0.279 OA
ENDROOT
BRANCH   7  13
HETATM   13  C   UNL     1      29.025  49.670  40.787  1.00  0.00    -0.010 A 
HETATM   14  C   UNL     1      27.918  50.345  41.323  1.00  0.00     0.073 A 
HETATM   15  C   UNL     1      27.449  51.537  40.766  1.00  0.00     0.038 A 
HETATM   16  C   UNL     1      28.083  52.077  39.647  1.00  0.00     0.022 A 
HETATM   17  C   UNL     1      29.177  51.420  39.093  1.00  0.00     0.011 A 
HETATM   18 BR   UNL     1      30.035  52.143  37.572  1.00  0.00    -0.051 Br
HETATM   19  C   UNL     1      29.645  50.228  39.649  1.00  0.00     0.030 A 
BRANCH  14  20
HETATM   20  O   UNL     1      27.289  49.816  42.414  1.00  0.00    -0.360 OA
HETATM   21  H   UNL     1      26.349  49.680  42.205  1.00  0.00     0.217 HD
ENDBRANCH  14  20
ENDBRANCH   7  13
BRANCH  11  22
HETATM   22  N   UNL     1      29.519  45.238  39.152  1.00  0.00    -0.282 NA
HETATM   23  H   UNL     1      28.606  45.286  38.707  1.00  0.00     0.126 HD
HETATM   24  H   UNL     1      30.255  44.930  38.522  1.00  0.00     0.126 HD
ENDBRANCH  11  22
BRANCH   1  25
HETATM   25  C   UNL     1      31.747  50.231  43.143  1.00  0.00     0.061 C 
BRANCH  25  26
HETATM   26  C   UNL     1      32.086  51.632  42.635  1.00  0.00     0.002 C 
HETATM   27  C   UNL     1      30.831  52.467  42.434  1.00  0.00     0.005 C 
ENDBRANCH  25  26
ENDBRANCH   1  25
TORSDOF 5
ENDMDL
MODEL 3
REMARK VINA RESULT:      -6.9      6.012      8.594
REMARK  5 active torsions:
REMARK  status: ('A' for Active; 'I' for Inactive)
REMARK    1  A    between atoms: C_2  and  C_3 
REMARK    2  A    between atoms: C_3  and  C_4 
REMARK    3  A    between atoms: C_10  and  C_11 
REMARK    4  A    between atoms: C_12  and  O_13 
REMARK    5  A    between atoms: C_22  and  N_23 
ROOT
HETATM    1  C   UNL     1      27.675  42.014  52.280  1.00  0.00     0.066 A 
HETATM    2  N   UNL     1      28.731  41.377  51.746  1.00  0.00    -0.177 NA
HETATM    3  N   UNL     1      28.455  41.317  50.427  1.00  0.00    -0.256 N 
HETATM    4  H   UNL     1      29.113  40.856  49.809  1.00  0.00     0.191 HD
HETATM    5  C   UNL     1      27.262  41.881  50.116  1.00  0.00     0.175 A 
HETATM    6  C   UNL     1      26.736  42.372  51.284  1.00  0.00     0.035 A 
HETATM    7  C   UNL     1      25.403  43.040  51.280  1.00  0.00     0.107 A 
HETATM    8  C   UNL     1      24.759  42.902  49.901  1.00  0.00     0.067 A 
HETATM    9  C   UNL     1      23.295  43.296  49.791  1.00  0.00     0.020 C 
HETATM   10  N   UNL     1      22.081  43.624  49.699  1.00  0.00    -0.096 N 
HETATM   11  C   UNL     1      25.397  42.372  48.822  1.00  0.00     0.139 A 
HETATM   12  O   UNL     1      26.721  41.900  48.903  1.00  0.00    -0.279 OA
ENDROOT
BRANCH   7  13
HETATM   13  C   UNL     1      25.658  44.493  51.660  1.00  0.00    -0.010 A 
HETATM   14  C   UNL     1      25.401  44.947  52.963  1.00  0.00     0.073 A 
HETATM   15  C   UNL     1      25.606  46.281  53.324  1.00  0.00     0.038 A 
HETATM   16  C   UNL     1      26.070  47.194  52.377  1.00  0.00     0.022 A 
HETATM   17  C   UNL     1      26.322  46.767  51.077  1.00  0.00     0.011 A 
HETATM   18 BR   UNL     1      26.944  48.002  49.788  1.00  0.00    -0.051 Br
HETATM   19  C   UNL     1      26.117  45.435  50.715  1.00  0.00     0.030 A 
BRANCH  14  20
HETATM   20  O   UNL     1      24.939  44.059  53.891  1.00  0.00    -0.360 OA
HETATM   21  H   UNL     1      24.071  43.724  53.607  1.00  0.00     0.217 HD
ENDBRANCH  14  20
ENDBRANCH   7  13
BRANCH  11  22
HETATM   22  N   UNL     1      24.854  42.221  47.567  1.00  0.00    -0.282 NA
HETATM   23  H   UNL     1      25.076  41.350  47.091  1.00  0.00     0.126 HD
HETATM   24  H   UNL     1      23.863  42.445  47.549  1.00  0.00     0.126 HD
ENDBRANCH  11  22
BRANCH   1  25
HETATM   25  C   UNL     1      27.598  42.230  53.755  1.00  0.00     0.061 C 
BRANCH  25  26
HETATM   26  C   UNL     1      28.857  42.889  54.318  1.00  0.00     0.002 C 
HETATM   27  C   UNL     1      28.708  44.401  54.386  1.00  0.00     0.005 C 
ENDBRANCH  25  26
ENDBRANCH   1  25
TORSDOF 5
ENDMDL
MODEL 4
REMARK VINA RESULT:      -6.8      5.108      7.042
REMARK  5 active torsions:
REMARK  status: ('A' for Active; 'I' for Inactive)
REMARK    1  A    between atoms: C_2  and  C_3 
REMARK    2  A    between atoms: C_3  and  C_4 
REMARK    3  A    between atoms: C_10  and  C_11 
REMARK    4  A    between atoms: C_12  and  O_13 
REMARK    5  A    between atoms: C_22  and  N_23 
ROOT
HETATM    1  C   UNL     1      26.557  44.888  52.795  1.00  0.00     0.066 A 
HETATM    2  N   UNL     1      27.759  44.542  53.289  1.00  0.00    -0.177 NA
HETATM    3  N   UNL     1      28.329  43.817  52.305  1.00  0.00    -0.256 N 
HETATM    4  H   UNL     1      29.252  43.426  52.457  1.00  0.00     0.191 HD
HETATM    5  C   UNL     1      27.528  43.687  51.219  1.00  0.00     0.175 A 
HETATM    6  C   UNL     1      26.381  44.390  51.482  1.00  0.00     0.035 A 
HETATM    7  C   UNL     1      25.278  44.424  50.478  1.00  0.00     0.107 A 
HETATM    8  C   UNL     1      25.596  43.469  49.328  1.00  0.00     0.067 A 
HETATM    9  C   UNL     1      24.468  43.183  48.350  1.00  0.00     0.020 C 
HETATM   10  N   UNL     1      23.533  42.947  47.538  1.00  0.00    -0.096 N 
HETATM   11  C   UNL     1      26.782  42.815  49.200  1.00  0.00     0.139 A 
HETATM   12  O   UNL     1      27.820  42.972  50.138  1.00  0.00    -0.279 OA
ENDROOT
BRANCH   7  13
HETATM   13  C   UNL     1      25.169  45.873  50.019  1.00  0.00    -0.010 A 
HETATM   14  C   UNL     1      23.922  46.429  49.698  1.00  0.00     0.073 A 
HETATM   15  C   UNL     1      23.805  47.748  49.252  1.00  0.00     0.038 A 
HETATM   16  C   UNL     1      24.946  48.538  49.113  1.00  0.00     0.022 A 
HETATM   17  C   UNL     1      26.193  48.004  49.417  1.00  0.00     0.011 A 
HETATM   18 BR   UNL     1      27.744  49.068  49.222  1.00  0.00    -0.051 Br
HETATM   19  C   UNL     1      26.312  46.686  49.861  1.00  0.00     0.030 A 
BRANCH  14  20
HETATM   20  O   UNL     1      22.804  45.657  49.825  1.00  0.00    -0.360 OA
HETATM   21  H   UNL     1      22.039  46.143  49.473  1.00  0.00     0.217 HD
ENDBRANCH  14  20
ENDBRANCH   7  13
BRANCH  11  22
HETATM   22  N   UNL     1      27.107  41.942  48.187  1.00  0.00    -0.282 NA
HETATM   23  H   UNL     1      28.097  41.730  48.087  1.00  0.00     0.126 HD
HETATM   24  H   UNL     1      26.519  41.113  48.192  1.00  0.00     0.126 HD
ENDBRANCH  11  22
BRANCH   1  25
HETATM   25  C   UNL     1      25.601  45.672  53.631  1.00  0.00     0.061 C 
BRANCH  25  26
HETATM   26  C   UNL     1      25.827  47.180  53.525  1.00  0.00     0.002 C 
HETATM   27  C   UNL     1      26.550  47.720  54.749  1.00  0.00     0.005 C 
ENDBRANCH  25  26
ENDBRANCH   1  25
TORSDOF 5
ENDMDL
MODEL 5
REMARK VINA RESULT:      -6.7     12.664     14.544
REMARK  5 active torsions:
REMARK  status: ('A' for Active; 'I' for Inactive)
REMARK    1  A    between atoms: C_2  and  C_3 
REMARK    2  A    between atoms: C_3  and  C_4 
REMARK    3  A    between atoms: C_10  and  C_11 
REMARK    4  A    between atoms: C_12  and  O_13 
REMARK    5  A    between atoms: C_22  and  N_23 
ROOT
HETATM    1  C   UNL     1      31.507  48.155  40.189  1.00  0.00     0.066 A 
HETATM    2  N   UNL     1      31.492  47.369  41.279  1.00  0.00    -0.177 NA
HETATM    3  N   UNL     1      32.115  48.098  42.226  1.00  0.00    -0.256 N 
HETATM    4  H   UNL     1      32.242  47.698  43.149  1.00  0.00     0.191 HD
HETATM    5  C   UNL     1      32.530  49.306  41.769  1.00  0.00     0.175 A 
HETATM    6  C   UNL     1      32.130  49.396  40.461  1.00  0.00     0.035 A 
HETATM    7  C   UNL     1      32.459  50.611  39.661  1.00  0.00     0.107 A 
HETATM    8  C   UNL     1      33.383  51.525  40.465  1.00  0.00     0.067 A 
HETATM    9  C   UNL     1      34.024  52.678  39.710  1.00  0.00     0.020 C 
HETATM   10  N   UNL     1      34.555  53.635  39.085  1.00  0.00    -0.096 N 
HETATM   11  C   UNL     1      33.715  51.303  41.766  1.00  0.00     0.139 A 
HETATM   12  O   UNL     1      33.225  50.190  42.476  1.00  0.00    -0.279 OA
ENDROOT
BRANCH   7  13
HETATM   13  C   UNL     1      31.127  51.273  39.332  1.00  0.00    -0.010 A 
HETATM   14  C   UNL     1      30.820  51.648  38.016  1.00  0.00     0.073 A 
HETATM   15  C   UNL     1      29.614  52.278  37.699  1.00  0.00     0.038 A 
HETATM   16  C   UNL     1      28.688  52.553  38.705  1.00  0.00     0.022 A 
HETATM   17  C   UNL     1      28.976  52.198  40.019  1.00  0.00     0.011 A 
HETATM   18 BR   UNL     1      27.728  52.575  41.388  1.00  0.00    -0.051 Br
HETATM   19  C   UNL     1      30.181  51.570  40.337  1.00  0.00     0.030 A 
BRANCH  14  20
HETATM   20  O   UNL     1      31.727  51.388  37.029  1.00  0.00    -0.360 OA
HETATM   21  H   UNL     1      31.803  52.168  36.453  1.00  0.00     0.217 HD
ENDBRANCH  14  20
ENDBRANCH   7  13
BRANCH  11  22
HETATM   22  N   UNL     1      34.548  52.093  42.524  1.00  0.00    -0.282 NA
HETATM   23  H   UNL     1      34.785  51.730  43.444  1.00  0.00     0.126 HD
HETATM   24  H   UNL     1      35.359  52.410  41.998  1.00  0.00     0.126 HD
ENDBRANCH  11  22
BRANCH   1  25
HETATM   25  C   UNL     1      30.936  47.661  38.901  1.00  0.00     0.061 C 
BRANCH  25  26
HETATM   26  C   UNL     1      29.473  47.235  39.032  1.00  0.00     0.002 C 
HETATM   27  C   UNL     1      29.324  45.725  38.928  1.00  0.00     0.005 C 
ENDBRANCH  25  26
ENDBRANCH   1  25
TORSDOF 5
ENDMDL
MODEL 6
REMARK VINA RESULT:      -6.6     10.199     12.126
REMARK  5 active torsions:
REMARK  status: ('A' for Active; 'I' for Inactive)
REMARK    1  A    between atoms: C_2  and  C_3 
REMARK    2  A    between atoms: C_3  and  C_4 
REMARK    3  A    between atoms: C_10  and  C_11 
REMARK    4  A    between atoms: C_12  and  O_13 
REMARK    5  A    between atoms: C_22  and  N_23 
ROOT
HETATM    1  C   UNL     1      28.861  52.688  40.520  1.00  0.00     0.066 A 
HETATM    2  N   UNL     1      27.770  53.205  41.109  1.00  0.00    -0.177 NA
HETATM    3  N   UNL     1      27.170  52.147  41.691  1.00  0.00    -0.256 N 
HETATM    4  H   UNL     1      26.300  52.291  42.191  1.00  0.00     0.191 HD
HETATM    5  C   UNL     1      27.837  50.986  41.480  1.00  0.00     0.175 A 
HETATM    6  C   UNL     1      28.956  51.295  40.750  1.00  0.00     0.035 A 
HETATM    7  C   UNL     1      29.897  50.216  40.332  1.00  0.00     0.107 A 
HETATM    8  C   UNL     1      29.311  48.851  40.689  1.00  0.00     0.067 A 
HETATM    9  C   UNL     1      30.013  47.635  40.106  1.00  0.00     0.020 C 
HETATM   10  N   UNL     1      30.595  46.627  39.623  1.00  0.00    -0.096 N 
HETATM   11  C   UNL     1      28.169  48.689  41.412  1.00  0.00     0.139 A 
HETATM   12  O   UNL     1      27.430  49.789  41.887  1.00  0.00    -0.279 OA
ENDROOT
BRANCH   7  13
HETATM   13  C   UNL     1      31.207  50.495  41.057  1.00  0.00    -0.010 A 
HETATM   14  C   UNL     1      32.438  50.257  40.427  1.00  0.00     0.073 A 
HETATM   15  C   UNL     1      33.650  50.483  41.084  1.00  0.00     0.038 A 
HETATM   16  C   UNL     1      33.651  50.952  42.397  1.00  0.00     0.022 A 
HETATM   17  C   UNL     1      32.442  51.186  43.044  1.00  0.00     0.011 A 
HETATM   18 BR   UNL     1      32.438  51.814  44.828  1.00  0.00    -0.051 Br
HETATM   19  C   UNL     1      31.231  50.959  42.389  1.00  0.00     0.030 A 
BRANCH  14  20
HETATM   20  O   UNL     1      32.442  49.791  39.144  1.00  0.00    -0.360 OA
HETATM   21  H   UNL     1      33.194  50.179  38.665  1.00  0.00     0.217 HD
ENDBRANCH  14  20
ENDBRANCH   7  13
BRANCH  11  22
HETATM   22  N   UNL     1      27.603  47.481  41.749  1.00  0.00    -0.282 NA
HETATM   23  H   UNL     1      26.884  47.138  41.116  1.00  0.00     0.126 HD
HETATM   24  H   UNL     1      28.302  46.779  41.977  1.00  0.00     0.126 HD
ENDBRANCH  11  22
BRANCH   1  25
HETATM   25  C   UNL     1      29.769  53.565  39.723  1.00  0.00     0.061 C 
BRANCH  25  26
HETATM   26  C   UNL     1      30.870  54.198  40.573  1.00  0.00     0.002 C 
HETATM   27  C   UNL     1      32.251  53.775  40.095  1.00  0.00     0.005 C 
ENDBRANCH  25  26
ENDBRANCH   1  25
TORSDOF 5
ENDMDL
MODEL 7
REMARK VINA RESULT:      -6.6     10.863     12.903
REMARK  5 active torsions:
REMARK  status: ('A' for Active; 'I' for Inactive)
REMARK    1  A    between atoms: C_2  and  C_3 
REMARK    2  A    between atoms: C_3  and  C_4 
REMARK    3  A    between atoms: C_10  and  C_11 
REMARK    4  A    between atoms: C_12  and  O_13 
REMARK    5  A    between atoms: C_22  and  N_23 
ROOT
HETATM    1  C   UNL     1      30.146  51.447  37.946  1.00  0.00     0.066 A 
HETATM    2  N   UNL     1      29.477  52.574  37.647  1.00  0.00    -0.177 NA
HETATM    3  N   UNL     1      28.268  52.409  38.222  1.00  0.00    -0.256 N 
HETATM    4  H   UNL     1      27.571  53.137  38.115  1.00  0.00     0.191 HD
HETATM    5  C   UNL     1      28.150  51.217  38.859  1.00  0.00     0.175 A 
HETATM    6  C   UNL     1      29.354  50.574  38.730  1.00  0.00     0.035 A 
HETATM    7  C   UNL     1      29.541  49.214  39.311  1.00  0.00     0.107 A 
HETATM    8  C   UNL     1      28.207  48.692  39.844  1.00  0.00     0.067 A 
HETATM    9  C   UNL     1      28.158  47.223  40.235  1.00  0.00     0.020 C 
HETATM   10  N   UNL     1      28.118  46.006  40.560  1.00  0.00    -0.096 N 
HETATM   11  C   UNL     1      27.073  49.442  39.897  1.00  0.00     0.139 A 
HETATM   12  O   UNL     1      27.046  50.777  39.451  1.00  0.00    -0.279 OA
ENDROOT
BRANCH   7  13
HETATM   13  C   UNL     1      30.588  49.364  40.408  1.00  0.00    -0.010 A 
HETATM   14  C   UNL     1      31.587  48.394  40.580  1.00  0.00     0.073 A 
HETATM   15  C   UNL     1      32.541  48.502  41.595  1.00  0.00     0.038 A 
HETATM   16  C   UNL     1      32.507  49.588  42.469  1.00  0.00     0.022 A 
HETATM   17  C   UNL     1      31.518  50.556  42.322  1.00  0.00     0.011 A 
HETATM   18 BR   UNL     1      31.463  52.028  43.508  1.00  0.00    -0.051 Br
HETATM   19  C   UNL     1      30.564  50.450  41.309  1.00  0.00     0.030 A 
BRANCH  14  20
HETATM   20  O   UNL     1      31.620  47.324  39.733  1.00  0.00    -0.360 OA
HETATM   21  H   UNL     1      32.494  46.902  39.786  1.00  0.00     0.217 HD
ENDBRANCH  14  20
ENDBRANCH   7  13
BRANCH  11  22
HETATM   22  N   UNL     1      25.851  49.010  40.360  1.00  0.00    -0.282 NA
HETATM   23  H   UNL     1      25.120  48.917  39.659  1.00  0.00     0.126 HD
HETATM   24  H   UNL     1      25.935  48.194  40.960  1.00  0.00     0.126 HD
ENDBRANCH  11  22
BRANCH   1  25
HETATM   25  C   UNL     1      31.532  51.240  37.431  1.00  0.00     0.061 C 
BRANCH  25  26
HETATM   26  C   UNL     1      32.578  51.242  38.546  1.00  0.00     0.002 C 
HETATM   27  C   UNL     1      32.592  52.568  39.290  1.00  0.00     0.005 C 
ENDBRANCH  25  26
ENDBRANCH   1  25
TORSDOF 5
ENDMDL
MODEL 8
REMARK VINA RESULT:      -6.5      4.338      6.036
REMARK  5 active torsions:
REMARK  status: ('A' for Active; 'I' for Inactive)
REMARK    1  A    between atoms: C_2  and  C_3 
REMARK    2  A    between atoms: C_3  and  C_4 
REMARK    3  A    between atoms: C_10  and  C_11 
REMARK    4  A    between atoms: C_12  and  O_13 
REMARK    5  A    between atoms: C_22  and  N_23 
ROOT
HETATM    1  C   UNL     1      25.323  47.408  50.011  1.00  0.00     0.066 A 
HETATM    2  N   UNL     1      24.303  48.284  49.982  1.00  0.00    -0.177 NA
HETATM    3  N   UNL     1      23.229  47.538  49.655  1.00  0.00    -0.256 N 
HETATM    4  H   UNL     1      22.329  47.993  49.555  1.00  0.00     0.191 HD
HETATM    5  C   UNL     1      23.538  46.231  49.466  1.00  0.00     0.175 A 
HETATM    6  C   UNL     1      24.879  46.097  49.715  1.00  0.00     0.035 A 
HETATM    7  C   UNL     1      25.537  44.767  49.570  1.00  0.00     0.107 A 
HETATM    8  C   UNL     1      24.550  43.763  48.976  1.00  0.00     0.067 A 
HETATM    9  C   UNL     1      25.124  42.432  48.520  1.00  0.00     0.020 C 
HETATM   10  N   UNL     1      25.600  41.327  48.143  1.00  0.00    -0.096 N 
HETATM   11  C   UNL     1      23.234  44.039  48.762  1.00  0.00     0.139 A 
HETATM   12  O   UNL     1      22.680  45.295  49.075  1.00  0.00    -0.279 OA
ENDROOT
BRANCH   7  13
HETATM   13  C   UNL     1      26.001  44.371  50.966  1.00  0.00    -0.010 A 
HETATM   14  C   UNL     1      25.102  44.366  52.044  1.00  0.00     0.073 A 
HETATM   15  C   UNL     1      25.513  44.029  53.335  1.00  0.00     0.038 A 
HETATM   16  C   UNL     1      26.846  43.693  53.575  1.00  0.00     0.022 A 
HETATM   17  C   UNL     1      27.756  43.701  52.523  1.00  0.00     0.011 A 
HETATM   18 BR   UNL     1      29.565  43.254  52.844  1.00  0.00    -0.051 Br
HETATM   19  C   UNL     1      27.346  44.038  51.232  1.00  0.00     0.030 A 
BRANCH  14  20
HETATM   20  O   UNL     1      23.798  44.701  51.816  1.00  0.00    -0.360 OA
HETATM   21  H   UNL     1      23.708  45.028  50.904  1.00  0.00     0.217 HD
ENDBRANCH  14  20
ENDBRANCH   7  13
BRANCH  11  22
HETATM   22  N   UNL     1      22.314  43.170  48.223  1.00  0.00    -0.282 NA
HETATM   23  H   UNL     1      21.374  43.540  48.105  1.00  0.00     0.126 HD
HETATM   24  H   UNL     1      22.667  42.704  47.391  1.00  0.00     0.126 HD
ENDBRANCH  11  22
BRANCH   1  25
HETATM   25  C   UNL     1      26.709  47.881  50.298  1.00  0.00     0.061 C 
BRANCH  25  26
HETATM   26  C   UNL     1      27.456  48.313  49.035  1.00  0.00     0.002 C 
HETATM   27  C   UNL     1      27.280  49.799  48.768  1.00  0.00     0.005 C 
ENDBRANCH  25  26
ENDBRANCH   1  25
TORSDOF 5
ENDMDL
MODEL 9
REMARK VINA RESULT:      -6.4      5.976      8.112
REMARK  5 active torsions:
REMARK  status: ('A' for Active; 'I' for Inactive)
REMARK    1  A    between atoms: C_2  and  C_3 
REMARK    2  A    between atoms: C_3  and  C_4 
REMARK    3  A    between atoms: C_10  and  C_11 
REMARK    4  A    between atoms: C_12  and  O_13 
REMARK    5  A    between atoms: C_22  and  N_23 
ROOT
HETATM    1  C   UNL     1      26.068  45.107  49.563  1.00  0.00     0.066 A 
HETATM    2  N   UNL     1      25.050  45.076  48.686  1.00  0.00    -0.177 NA
HETATM    3  N   UNL     1      24.633  43.793  48.702  1.00  0.00    -0.256 N 
HETATM    4  H   UNL     1      23.869  43.519  48.095  1.00  0.00     0.191 HD
HETATM    5  C   UNL     1      25.357  43.018  49.547  1.00  0.00     0.175 A 
HETATM    6  C   UNL     1      26.280  43.835  50.148  1.00  0.00     0.035 A 
HETATM    7  C   UNL     1      27.253  43.271  51.126  1.00  0.00     0.107 A 
HETATM    8  C   UNL     1      27.130  41.747  51.157  1.00  0.00     0.067 A 
HETATM    9  C   UNL     1      28.218  40.992  51.904  1.00  0.00     0.020 C 
HETATM   10  N   UNL     1      29.121  40.367  52.523  1.00  0.00    -0.096 N 
HETATM   11  C   UNL     1      26.166  41.057  50.491  1.00  0.00     0.139 A 
HETATM   12  O   UNL     1      25.197  41.709  49.704  1.00  0.00    -0.279 OA
ENDROOT
BRANCH   7  13
HETATM   13  C   UNL     1      26.921  43.910  52.468  1.00  0.00    -0.010 A 
HETATM   14  C   UNL     1      25.624  43.832  52.996  1.00  0.00     0.073 A 
HETATM   15  C   UNL     1      25.294  44.432  54.214  1.00  0.00     0.038 A 
HETATM   16  C   UNL     1      26.265  45.133  54.928  1.00  0.00     0.022 A 
HETATM   17  C   UNL     1      27.556  45.230  54.419  1.00  0.00     0.011 A 
HETATM   18 BR   UNL     1      28.875  46.185  55.380  1.00  0.00    -0.051 Br
HETATM   19  C   UNL     1      27.886  44.632  53.202  1.00  0.00     0.030 A 
BRANCH  14  20
HETATM   20  O   UNL     1      24.667  43.154  52.296  1.00  0.00    -0.360 OA
HETATM   21  H   UNL     1      24.307  42.444  52.854  1.00  0.00     0.217 HD
ENDBRANCH  14  20
ENDBRANCH   7  13
BRANCH  11  22
HETATM   22  N   UNL     1      26.024  39.688  50.485  1.00  0.00    -0.282 NA
HETATM   23  H   UNL     1      26.403  39.201  51.293  1.00  0.00     0.126 HD
HETATM   24  H   UNL     1      25.075  39.402  50.255  1.00  0.00     0.126 HD
ENDBRANCH  11  22
BRANCH   1  25
HETATM   25  C   UNL     1      26.827  46.373  49.785  1.00  0.00     0.061 C 
BRANCH  25  26
HETATM   26  C   UNL     1      25.943  47.502  50.314  1.00  0.00     0.002 C 
HETATM   27  C   UNL     1      25.473  47.220  51.732  1.00  0.00     0.005 C 
ENDBRANCH  25  26
ENDBRANCH   1  25
TORSDOF 5
ENDMDL
MODEL 10
REMARK VINA RESULT:      -6.3     22.806     23.713
REMARK  5 active torsions:
REMARK  status: ('A' for Active; 'I' for Inactive)
REMARK    1  A    between atoms: C_2  and  C_3 
REMARK    2  A    between atoms: C_3  and  C_4 
REMARK    3  A    between atoms: C_10  and  C_11 
REMARK    4  A    between atoms: C_12  and  O_13 
REMARK    5  A    between atoms: C_22  and  N_23 
ROOT
HETATM    1  C   UNL     1      36.507  47.520  65.414  1.00  0.00     0.066 A 
HETATM    2  N   UNL     1      35.595  47.871  66.337  1.00  0.00    -0.177 NA
HETATM    3  N   UNL     1      35.164  46.699  66.846  1.00  0.00    -0.256 N 
HETATM    4  H   UNL     1      34.447  46.709  67.561  1.00  0.00     0.191 HD
HETATM    5  C   UNL     1      35.764  45.627  66.269  1.00  0.00     0.175 A 
HETATM    6  C   UNL     1      36.662  46.115  65.356  1.00  0.00     0.035 A 
HETATM    7  C   UNL     1      37.474  45.175  64.531  1.00  0.00     0.107 A 
HETATM    8  C   UNL     1      37.003  43.740  64.767  1.00  0.00     0.067 A 
HETATM    9  C   UNL     1      37.543  42.682  63.819  1.00  0.00     0.020 C 
HETATM   10  N   UNL     1      37.991  41.805  63.032  1.00  0.00    -0.096 N 
HETATM   11  C   UNL     1      36.079  43.397  65.706  1.00  0.00     0.139 A 
HETATM   12  O   UNL     1      35.477  44.359  66.539  1.00  0.00    -0.279 OA
ENDROOT
BRANCH   7  13
HETATM   13  C   UNL     1      38.923  45.388  64.952  1.00  0.00    -0.010 A 
HETATM   14  C   UNL     1      39.966  45.242  64.024  1.00  0.00     0.073 A 
HETATM   15  C   UNL     1      41.302  45.409  64.396  1.00  0.00     0.038 A 
HETATM   16  C   UNL     1      41.621  45.723  65.717  1.00  0.00     0.022 A 
HETATM   17  C   UNL     1      40.604  45.864  66.655  1.00  0.00     0.011 A 
HETATM   18 BR   UNL     1      41.032  46.283  68.448  1.00  0.00    -0.051 Br
HETATM   19  C   UNL     1      39.269  45.696  66.285  1.00  0.00     0.030 A 
BRANCH  14  20
HETATM   20  O   UNL     1      39.658  44.926  62.732  1.00  0.00    -0.360 OA
HETATM   21  H   UNL     1      38.997  45.557  62.398  1.00  0.00     0.217 HD
ENDBRANCH  14  20
ENDBRANCH   7  13
BRANCH  11  22
HETATM   22  N   UNL     1      35.621  42.122  65.946  1.00  0.00    -0.282 NA
HETATM   23  H   UNL     1      36.097  41.614  66.687  1.00  0.00     0.126 HD
HETATM   24  H   UNL     1      34.608  42.087  66.024  1.00  0.00     0.126 HD
ENDBRANCH  11  22
BRANCH   1  25
HETATM   25  C   UNL     1      37.181  48.568  64.592  1.00  0.00     0.061 C 
BRANCH  25  26
HETATM   26  C   UNL     1      38.325  49.254  65.339  1.00  0.00     0.002 C 
HETATM   27  C   UNL     1      39.646  49.086  64.604  1.00  0.00     0.005 C 
ENDBRANCH  25  26
ENDBRANCH   1  25
TORSDOF 5
ENDMDL
