MODEL 1
REMARK VINA RESULT:      -7.9      0.000      0.000
REMARK  5 active torsions:
REMARK  status: ('A' for Active; 'I' for Inactive)
REMARK    1  A    between atoms: C_2  and  C_3 
REMARK    2  A    between atoms: C_7  and  N_8 
REMARK       I    between atoms: N_8  and  C_9 
REMARK    3  A    between atoms: C_9  and  C_10 
REMARK    4  A    between atoms: C_10  and  N_11 
REMARK    5  A    between atoms: N_11  and  C_14 
ROOT
HETATM    1  C   UNL     1      27.691  46.440  54.945  1.00  0.00     0.043 C 
HETATM    2  N   UNL     1      28.462  46.586  56.044  1.00  0.00    -0.252 NA
HETATM    3  C   UNL     1      29.338  45.635  56.381  1.00  0.00     0.069 A 
HETATM    4  C   UNL     1      29.464  44.424  55.676  1.00  0.00     0.020 A 
HETATM    5  C   UNL     1      28.544  44.212  54.604  1.00  0.00     0.055 C 
HETATM    6  C   UNL     1      27.708  45.274  54.170  1.00  0.00    -0.010 C 
HETATM    7  C   UNL     1      26.822  45.137  52.958  1.00  0.00     0.052 C 
HETATM    8  C   UNL     1      30.165  45.897  57.466  1.00  0.00     0.032 A 
HETATM    9  C   UNL     1      31.168  45.015  57.861  1.00  0.00     0.002 A 
HETATM   10  C   UNL     1      31.365  43.851  57.140  1.00  0.00     0.001 A 
HETATM   11  C   UNL     1      30.534  43.567  56.055  1.00  0.00     0.016 A 
ENDROOT
BRANCH   5  12
HETATM   12  N   UNL     1      28.403  42.960  53.919  1.00  0.00    -0.324 N 
HETATM   13  C   UNL     1      29.256  42.466  52.945  1.00  0.00     0.248 C 
HETATM   14  O   UNL     1      30.225  43.028  52.441  1.00  0.00    -0.271 OA
HETATM   15  H   UNL     1      27.847  42.271  54.409  1.00  0.00     0.169 HD
BRANCH  13  16
HETATM   16  C   UNL     1      28.914  41.042  52.496  1.00  0.00     0.335 C 
BRANCH  16  17
HETATM   17  N   UNL     1      27.423  40.785  52.421  1.00  0.00    -0.063 N 
HETATM   18  H   UNL     1      27.194  39.907  52.902  1.00  0.00     0.278 HD
HETATM   19  H   UNL     1      26.986  41.544  52.966  1.00  0.00     0.278 HD
BRANCH  17  20
HETATM   20  C   UNL     1      26.760  40.815  51.066  1.00  0.00     0.178 C 
HETATM   21  C   UNL     1      26.071  42.154  50.837  1.00  0.00     0.039 C 
HETATM   22  C   UNL     1      27.853  40.579  50.026  1.00  0.00     0.039 C 
ENDBRANCH  17  20
ENDBRANCH  16  17
ENDBRANCH  13  16
ENDBRANCH   5  12
BRANCH   1  23
HETATM   23  C   UNL     1      26.797  47.625  54.668  1.00  0.00     0.055 C 
HETATM   24  C   UNL     1      26.517  48.445  55.919  1.00  0.00     0.011 C 
ENDBRANCH   1  23
TORSDOF 5
ENDMDL
MODEL 2
REMARK VINA RESULT:      -7.7      1.487      3.800
REMARK  5 active torsions:
REMARK  status: ('A' for Active; 'I' for Inactive)
REMARK    1  A    between atoms: C_2  and  C_3 
REMARK    2  A    between atoms: C_7  and  N_8 
REMARK       I    between atoms: N_8  and  C_9 
REMARK    3  A    between atoms: C_9  and  C_10 
REMARK    4  A    between atoms: C_10  and  N_11 
REMARK    5  A    between atoms: N_11  and  C_14 
ROOT
HETATM    1  C   UNL     1      29.641  45.136  55.845  1.00  0.00     0.043 C 
HETATM    2  N   UNL     1      28.807  46.197  55.791  1.00  0.00    -0.252 NA
HETATM    3  C   UNL     1      27.860  46.259  54.851  1.00  0.00     0.069 A 
HETATM    4  C   UNL     1      27.717  45.288  53.842  1.00  0.00     0.020 A 
HETATM    5  C   UNL     1      28.694  44.247  53.815  1.00  0.00     0.055 C 
HETATM    6  C   UNL     1      29.614  44.114  54.889  1.00  0.00    -0.010 C 
HETATM    7  C   UNL     1      30.571  42.952  54.969  1.00  0.00     0.052 C 
HETATM    8  C   UNL     1      26.976  47.329  54.917  1.00  0.00     0.032 A 
HETATM    9  C   UNL     1      25.903  47.457  54.038  1.00  0.00     0.002 A 
HETATM   10  C   UNL     1      25.692  46.478  53.083  1.00  0.00     0.001 A 
HETATM   11  C   UNL     1      26.579  45.403  52.996  1.00  0.00     0.016 A 
ENDROOT
BRANCH   5  12
HETATM   12  N   UNL     1      28.813  43.301  52.745  1.00  0.00    -0.324 N 
HETATM   13  C   UNL     1      28.244  42.038  52.709  1.00  0.00     0.248 C 
HETATM   14  O   UNL     1      27.613  41.475  53.598  1.00  0.00    -0.271 OA
HETATM   15  H   UNL     1      29.043  43.708  51.846  1.00  0.00     0.169 HD
BRANCH  13  16
HETATM   16  C   UNL     1      28.441  41.315  51.372  1.00  0.00     0.335 C 
BRANCH  16  17
HETATM   17  N   UNL     1      28.888  39.877  51.536  1.00  0.00    -0.063 N 
HETATM   18  H   UNL     1      29.838  39.848  51.926  1.00  0.00     0.278 HD
HETATM   19  H   UNL     1      28.262  39.474  52.250  1.00  0.00     0.278 HD
BRANCH  17  20
HETATM   20  C   UNL     1      28.796  38.959  50.342  1.00  0.00     0.178 C 
HETATM   21  C   UNL     1      28.811  39.760  49.048  1.00  0.00     0.039 C 
HETATM   22  C   UNL     1      29.991  38.011  50.412  1.00  0.00     0.039 C 
ENDBRANCH  17  20
ENDBRANCH  16  17
ENDBRANCH  13  16
ENDBRANCH   5  12
BRANCH   1  23
HETATM   23  C   UNL     1      30.614  45.187  56.999  1.00  0.00     0.055 C 
HETATM   24  C   UNL     1      30.051  45.933  58.200  1.00  0.00     0.011 C 
ENDBRANCH   1  23
TORSDOF 5
ENDMDL
MODEL 3
REMARK VINA RESULT:      -7.7      1.279      1.662
REMARK  5 active torsions:
REMARK  status: ('A' for Active; 'I' for Inactive)
REMARK    1  A    between atoms: C_2  and  C_3 
REMARK    2  A    between atoms: C_7  and  N_8 
REMARK       I    between atoms: N_8  and  C_9 
REMARK    3  A    between atoms: C_9  and  C_10 
REMARK    4  A    between atoms: C_10  and  N_11 
REMARK    5  A    between atoms: N_11  and  C_14 
ROOT
HETATM    1  C   UNL     1      27.176  46.246  54.461  1.00  0.00     0.043 C 
HETATM    2  N   UNL     1      28.134  46.307  55.411  1.00  0.00    -0.252 NA
HETATM    3  C   UNL     1      28.994  45.297  55.563  1.00  0.00     0.069 A 
HETATM    4  C   UNL     1      28.920  44.107  54.815  1.00  0.00     0.020 A 
HETATM    5  C   UNL     1      27.816  43.987  53.917  1.00  0.00     0.055 C 
HETATM    6  C   UNL     1      26.984  45.110  53.665  1.00  0.00    -0.010 C 
HETATM    7  C   UNL     1      25.894  45.068  52.625  1.00  0.00     0.052 C 
HETATM    8  C   UNL     1      30.013  45.472  56.491  1.00  0.00     0.032 A 
HETATM    9  C   UNL     1      31.012  44.520  56.681  1.00  0.00     0.002 A 
HETATM   10  C   UNL     1      31.008  43.374  55.906  1.00  0.00     0.001 A 
HETATM   11  C   UNL     1      29.984  43.178  54.977  1.00  0.00     0.016 A 
ENDROOT
BRANCH   5  12
HETATM   12  N   UNL     1      27.480  42.771  53.235  1.00  0.00    -0.324 N 
HETATM   13  C   UNL     1      28.070  42.302  52.072  1.00  0.00     0.248 C 
HETATM   14  O   UNL     1      28.914  42.863  51.381  1.00  0.00    -0.271 OA
HETATM   15  H   UNL     1      27.028  42.074  53.814  1.00  0.00     0.169 HD
BRANCH  13  16
HETATM   16  C   UNL     1      27.586  40.907  51.660  1.00  0.00     0.335 C 
BRANCH  16  17
HETATM   17  N   UNL     1      28.721  39.965  51.314  1.00  0.00    -0.063 N 
HETATM   18  H   UNL     1      29.613  40.475  51.317  1.00  0.00     0.278 HD
HETATM   19  H   UNL     1      28.764  39.289  52.092  1.00  0.00     0.278 HD
BRANCH  17  20
HETATM   20  C   UNL     1      28.607  39.140  50.056  1.00  0.00     0.178 C 
HETATM   21  C   UNL     1      28.758  40.020  48.823  1.00  0.00     0.039 C 
HETATM   22  C   UNL     1      29.708  38.084  50.111  1.00  0.00     0.039 C 
ENDBRANCH  17  20
ENDBRANCH  16  17
ENDBRANCH  13  16
ENDBRANCH   5  12
BRANCH   1  23
HETATM   23  C   UNL     1      26.323  47.490  54.377  1.00  0.00     0.055 C 
HETATM   24  C   UNL     1      26.514  48.406  55.577  1.00  0.00     0.011 C 
ENDBRANCH   1  23
TORSDOF 5
ENDMDL
MODEL 4
REMARK VINA RESULT:      -7.7      1.783      4.069
REMARK  5 active torsions:
REMARK  status: ('A' for Active; 'I' for Inactive)
REMARK    1  A    between atoms: C_2  and  C_3 
REMARK    2  A    between atoms: C_7  and  N_8 
REMARK       I    between atoms: N_8  and  C_9 
REMARK    3  A    between atoms: C_9  and  C_10 
REMARK    4  A    between atoms: C_10  and  N_11 
REMARK    5  A    between atoms: N_11  and  C_14 
ROOT
HETATM    1  C   UNL     1      29.282  43.772  54.489  1.00  0.00     0.043 C 
HETATM    2  N   UNL     1      29.140  45.021  54.983  1.00  0.00    -0.252 NA
HETATM    3  C   UNL     1      28.108  45.779  54.604  1.00  0.00     0.069 A 
HETATM    4  C   UNL     1      27.167  45.368  53.641  1.00  0.00     0.020 A 
HETATM    5  C   UNL     1      27.406  44.108  53.014  1.00  0.00     0.055 C 
HETATM    6  C   UNL     1      28.425  43.253  53.511  1.00  0.00    -0.010 C 
HETATM    7  C   UNL     1      28.622  41.860  52.969  1.00  0.00     0.052 C 
HETATM    8  C   UNL     1      27.971  47.013  55.227  1.00  0.00     0.032 A 
HETATM    9  C   UNL     1      26.892  47.856  54.969  1.00  0.00     0.002 A 
HETATM   10  C   UNL     1      25.911  47.446  54.084  1.00  0.00     0.001 A 
HETATM   11  C   UNL     1      26.041  46.214  53.440  1.00  0.00     0.016 A 
ENDROOT
BRANCH   5  12
HETATM   12  N   UNL     1      26.667  43.635  51.880  1.00  0.00    -0.324 N 
HETATM   13  C   UNL     1      26.881  44.000  50.560  1.00  0.00     0.248 C 
HETATM   14  O   UNL     1      27.671  44.835  50.132  1.00  0.00    -0.271 OA
HETATM   15  H   UNL     1      26.195  42.751  52.023  1.00  0.00     0.169 HD
BRANCH  13  16
HETATM   16  C   UNL     1      26.015  43.223  49.562  1.00  0.00     0.335 C 
BRANCH  16  17
HETATM   17  N   UNL     1      26.817  42.270  48.699  1.00  0.00    -0.063 N 
HETATM   18  H   UNL     1      26.218  41.878  47.962  1.00  0.00     0.278 HD
HETATM   19  H   UNL     1      27.523  42.855  48.227  1.00  0.00     0.278 HD
BRANCH  17  20
HETATM   20  C   UNL     1      27.584  41.163  49.379  1.00  0.00     0.178 C 
HETATM   21  C   UNL     1      26.633  40.212  50.093  1.00  0.00     0.039 C 
HETATM   22  C   UNL     1      28.373  40.433  48.294  1.00  0.00     0.039 C 
ENDBRANCH  17  20
ENDBRANCH  16  17
ENDBRANCH  13  16
ENDBRANCH   5  12
BRANCH   1  23
HETATM   23  C   UNL     1      30.463  43.024  55.061  1.00  0.00     0.055 C 
HETATM   24  C   UNL     1      31.086  43.744  56.247  1.00  0.00     0.011 C 
ENDBRANCH   1  23
TORSDOF 5
ENDMDL
MODEL 5
REMARK VINA RESULT:      -7.6      2.243      4.385
REMARK  5 active torsions:
REMARK  status: ('A' for Active; 'I' for Inactive)
REMARK    1  A    between atoms: C_2  and  C_3 
REMARK    2  A    between atoms: C_7  and  N_8 
REMARK       I    between atoms: N_8  and  C_9 
REMARK    3  A    between atoms: C_9  and  C_10 
REMARK    4  A    between atoms: C_10  and  N_11 
REMARK    5  A    between atoms: N_11  and  C_14 
ROOT
HETATM    1  C   UNL     1      29.417  43.785  54.773  1.00  0.00     0.043 C 
HETATM    2  N   UNL     1      29.279  45.061  55.192  1.00  0.00    -0.252 NA
HETATM    3  C   UNL     1      28.230  45.787  54.797  1.00  0.00     0.069 A 
HETATM    4  C   UNL     1      27.265  45.310  53.890  1.00  0.00     0.020 A 
HETATM    5  C   UNL     1      27.496  44.015  53.336  1.00  0.00     0.055 C 
HETATM    6  C   UNL     1      28.537  43.199  53.856  1.00  0.00    -0.010 C 
HETATM    7  C   UNL     1      28.729  41.776  53.397  1.00  0.00     0.052 C 
HETATM    8  C   UNL     1      28.101  47.057  55.345  1.00  0.00     0.032 A 
HETATM    9  C   UNL     1      27.008  47.875  55.067  1.00  0.00     0.002 A 
HETATM   10  C   UNL     1      26.005  47.403  54.239  1.00  0.00     0.001 A 
HETATM   11  C   UNL     1      26.126  46.134  53.670  1.00  0.00     0.016 A 
ENDROOT
BRANCH   5  12
HETATM   12  N   UNL     1      26.728  43.466  52.257  1.00  0.00    -0.324 N 
HETATM   13  C   UNL     1      26.858  43.795  50.917  1.00  0.00     0.248 C 
HETATM   14  O   UNL     1      27.582  44.654  50.424  1.00  0.00    -0.271 OA
HETATM   15  H   UNL     1      26.311  42.565  52.452  1.00  0.00     0.169 HD
BRANCH  13  16
HETATM   16  C   UNL     1      25.987  42.942  49.989  1.00  0.00     0.335 C 
BRANCH  16  17
HETATM   17  N   UNL     1      25.393  43.732  48.841  1.00  0.00    -0.063 N 
HETATM   18  H   UNL     1      26.015  44.511  48.594  1.00  0.00     0.278 HD
HETATM   19  H   UNL     1      25.391  43.087  48.036  1.00  0.00     0.278 HD
BRANCH  17  20
HETATM   20  C   UNL     1      23.975  44.230  48.973  1.00  0.00     0.178 C 
HETATM   21  C   UNL     1      23.172  43.322  49.895  1.00  0.00     0.039 C 
HETATM   22  C   UNL     1      24.049  45.649  49.534  1.00  0.00     0.039 C 
ENDBRANCH  17  20
ENDBRANCH  16  17
ENDBRANCH  13  16
ENDBRANCH   5  12
BRANCH   1  23
HETATM   23  C   UNL     1      30.621  43.082  55.355  1.00  0.00     0.055 C 
HETATM   24  C   UNL     1      31.188  43.809  56.566  1.00  0.00     0.011 C 
ENDBRANCH   1  23
TORSDOF 5
ENDMDL
MODEL 6
REMARK VINA RESULT:      -7.2      2.451      3.350
REMARK  5 active torsions:
REMARK  status: ('A' for Active; 'I' for Inactive)
REMARK    1  A    between atoms: C_2  and  C_3 
REMARK    2  A    between atoms: C_7  and  N_8 
REMARK       I    between atoms: N_8  and  C_9 
REMARK    3  A    between atoms: C_9  and  C_10 
REMARK    4  A    between atoms: C_10  and  N_11 
REMARK    5  A    between atoms: N_11  and  C_14 
ROOT
HETATM    1  C   UNL     1      26.739  46.413  54.035  1.00  0.00     0.043 C 
HETATM    2  N   UNL     1      27.742  46.008  54.843  1.00  0.00    -0.252 NA
HETATM    3  C   UNL     1      28.492  44.955  54.506  1.00  0.00     0.069 A 
HETATM    4  C   UNL     1      28.249  44.178  53.357  1.00  0.00     0.020 A 
HETATM    5  C   UNL     1      27.097  44.521  52.587  1.00  0.00     0.055 C 
HETATM    6  C   UNL     1      26.384  45.715  52.875  1.00  0.00    -0.010 C 
HETATM    7  C   UNL     1      25.247  46.186  52.004  1.00  0.00     0.052 C 
HETATM    8  C   UNL     1      29.567  44.656  55.333  1.00  0.00     0.032 A 
HETATM    9  C   UNL     1      30.462  43.630  55.041  1.00  0.00     0.002 A 
HETATM   10  C   UNL     1      30.293  42.897  53.879  1.00  0.00     0.001 A 
HETATM   11  C   UNL     1      29.211  43.177  53.043  1.00  0.00     0.016 A 
ENDROOT
BRANCH   5  12
HETATM   12  N   UNL     1      26.596  43.716  51.512  1.00  0.00    -0.324 N 
HETATM   13  C   UNL     1      26.874  43.892  50.166  1.00  0.00     0.248 C 
HETATM   14  O   UNL     1      27.522  44.796  49.647  1.00  0.00    -0.271 OA
HETATM   15  H   UNL     1      26.300  42.786  51.783  1.00  0.00     0.169 HD
BRANCH  13  16
HETATM   16  C   UNL     1      26.297  42.790  49.271  1.00  0.00     0.335 C 
BRANCH  16  17
HETATM   17  N   UNL     1      25.183  43.281  48.369  1.00  0.00    -0.063 N 
HETATM   18  H   UNL     1      25.516  44.067  47.799  1.00  0.00     0.278 HD
HETATM   19  H   UNL     1      24.994  42.503  47.719  1.00  0.00     0.278 HD
BRANCH  17  20
HETATM   20  C   UNL     1      23.855  43.627  48.996  1.00  0.00     0.178 C 
HETATM   21  C   UNL     1      23.568  45.116  48.853  1.00  0.00     0.039 C 
HETATM   22  C   UNL     1      22.792  42.795  48.284  1.00  0.00     0.039 C 
ENDBRANCH  17  20
ENDBRANCH  16  17
ENDBRANCH  13  16
ENDBRANCH   5  12
BRANCH   1  23
HETATM   23  C   UNL     1      26.026  47.651  54.527  1.00  0.00     0.055 C 
HETATM   24  C   UNL     1      26.747  48.310  55.694  1.00  0.00     0.011 C 
ENDBRANCH   1  23
TORSDOF 5
ENDMDL
MODEL 7
REMARK VINA RESULT:      -7.1      2.264      3.411
REMARK  5 active torsions:
REMARK  status: ('A' for Active; 'I' for Inactive)
REMARK    1  A    between atoms: C_2  and  C_3 
REMARK    2  A    between atoms: C_7  and  N_8 
REMARK       I    between atoms: N_8  and  C_9 
REMARK    3  A    between atoms: C_9  and  C_10 
REMARK    4  A    between atoms: C_10  and  N_11 
REMARK    5  A    between atoms: N_11  and  C_14 
ROOT
HETATM    1  C   UNL     1      26.764  45.039  52.302  1.00  0.00     0.043 C 
HETATM    2  N   UNL     1      27.320  45.186  53.524  1.00  0.00    -0.252 NA
HETATM    3  C   UNL     1      28.377  44.448  53.874  1.00  0.00     0.069 A 
HETATM    4  C   UNL     1      28.923  43.450  53.046  1.00  0.00     0.020 A 
HETATM    5  C   UNL     1      28.241  43.198  51.817  1.00  0.00     0.055 C 
HETATM    6  C   UNL     1      27.202  44.068  51.394  1.00  0.00    -0.010 C 
HETATM    7  C   UNL     1      26.549  43.920  50.043  1.00  0.00     0.052 C 
HETATM    8  C   UNL     1      28.956  44.723  55.107  1.00  0.00     0.032 A 
HETATM    9  C   UNL     1      30.107  44.072  55.544  1.00  0.00     0.002 A 
HETATM   10  C   UNL     1      30.710  43.140  54.719  1.00  0.00     0.001 A 
HETATM   11  C   UNL     1      30.134  42.844  53.482  1.00  0.00     0.016 A 
ENDROOT
BRANCH   5  12
HETATM   12  N   UNL     1      28.542  42.089  50.959  1.00  0.00    -0.324 N 
HETATM   13  C   UNL     1      27.772  40.947  50.806  1.00  0.00     0.248 C 
HETATM   14  O   UNL     1      26.755  40.641  51.421  1.00  0.00    -0.271 OA
HETATM   15  H   UNL     1      29.165  42.307  50.192  1.00  0.00     0.169 HD
BRANCH  13  16
HETATM   16  C   UNL     1      28.288  40.002  49.716  1.00  0.00     0.335 C 
BRANCH  16  17
HETATM   17  N   UNL     1      29.495  39.197  50.151  1.00  0.00    -0.063 N 
HETATM   18  H   UNL     1      30.336  39.539  49.671  1.00  0.00     0.278 HD
HETATM   19  H   UNL     1      29.619  39.408  51.153  1.00  0.00     0.278 HD
BRANCH  17  20
HETATM   20  C   UNL     1      29.425  37.693  50.052  1.00  0.00     0.178 C 
HETATM   21  C   UNL     1      29.867  37.049  51.359  1.00  0.00     0.039 C 
HETATM   22  C   UNL     1      27.977  37.332  49.729  1.00  0.00     0.039 C 
ENDBRANCH  17  20
ENDBRANCH  16  17
ENDBRANCH  13  16
ENDBRANCH   5  12
BRANCH   1  23
HETATM   23  C   UNL     1      25.617  45.986  52.038  1.00  0.00     0.055 C 
HETATM   24  C   UNL     1      25.640  47.196  52.961  1.00  0.00     0.011 C 
ENDBRANCH   1  23
TORSDOF 5
ENDMDL
MODEL 8
REMARK VINA RESULT:      -7.0      2.229      3.555
REMARK  5 active torsions:
REMARK  status: ('A' for Active; 'I' for Inactive)
REMARK    1  A    between atoms: C_2  and  C_3 
REMARK    2  A    between atoms: C_7  and  N_8 
REMARK       I    between atoms: N_8  and  C_9 
REMARK    3  A    between atoms: C_9  and  C_10 
REMARK    4  A    between atoms: C_10  and  N_11 
REMARK    5  A    between atoms: N_11  and  C_14 
ROOT
HETATM    1  C   UNL     1      25.428  46.538  51.637  1.00  0.00     0.043 C 
HETATM    2  N   UNL     1      25.547  47.404  52.667  1.00  0.00    -0.252 NA
HETATM    3  C   UNL     1      26.267  47.075  53.742  1.00  0.00     0.069 A 
HETATM    4  C   UNL     1      26.875  45.815  53.901  1.00  0.00     0.020 A 
HETATM    5  C   UNL     1      26.623  44.852  52.877  1.00  0.00     0.055 C 
HETATM    6  C   UNL     1      25.969  45.248  51.680  1.00  0.00    -0.010 C 
HETATM    7  C   UNL     1      25.804  44.300  50.520  1.00  0.00     0.052 C 
HETATM    8  C   UNL     1      26.427  48.051  54.717  1.00  0.00     0.032 A 
HETATM    9  C   UNL     1      27.220  47.849  55.844  1.00  0.00     0.002 A 
HETATM   10  C   UNL     1      27.891  46.647  55.990  1.00  0.00     0.001 A 
HETATM   11  C   UNL     1      27.731  45.651  55.025  1.00  0.00     0.016 A 
ENDROOT
BRANCH   5  12
HETATM   12  N   UNL     1      26.995  43.471  52.981  1.00  0.00    -0.324 N 
HETATM   13  C   UNL     1      28.264  42.954  52.775  1.00  0.00     0.248 C 
HETATM   14  O   UNL     1      29.266  43.554  52.397  1.00  0.00    -0.271 OA
HETATM   15  H   UNL     1      26.376  42.910  53.552  1.00  0.00     0.169 HD
BRANCH  13  16
HETATM   16  C   UNL     1      28.374  41.458  53.090  1.00  0.00     0.335 C 
BRANCH  16  17
HETATM   17  N   UNL     1      27.407  40.610  52.289  1.00  0.00    -0.063 N 
HETATM   18  H   UNL     1      27.484  39.627  52.575  1.00  0.00     0.278 HD
HETATM   19  H   UNL     1      26.466  40.928  52.569  1.00  0.00     0.278 HD
BRANCH  17  20
HETATM   20  C   UNL     1      27.445  40.711  50.784  1.00  0.00     0.178 C 
HETATM   21  C   UNL     1      28.401  39.678  50.203  1.00  0.00     0.039 C 
HETATM   22  C   UNL     1      26.021  40.480  50.283  1.00  0.00     0.039 C 
ENDBRANCH  17  20
ENDBRANCH  16  17
ENDBRANCH  13  16
ENDBRANCH   5  12
BRANCH   1  23
HETATM   23  C   UNL     1      24.633  47.083  50.475  1.00  0.00     0.055 C 
HETATM   24  C   UNL     1      25.454  48.015  49.596  1.00  0.00     0.011 C 
ENDBRANCH   1  23
TORSDOF 5
ENDMDL
MODEL 9
REMARK VINA RESULT:      -6.9      4.157      6.329
REMARK  5 active torsions:
REMARK  status: ('A' for Active; 'I' for Inactive)
REMARK    1  A    between atoms: C_2  and  C_3 
REMARK    2  A    between atoms: C_7  and  N_8 
REMARK       I    between atoms: N_8  and  C_9 
REMARK    3  A    between atoms: C_9  and  C_10 
REMARK    4  A    between atoms: C_10  and  N_11 
REMARK    5  A    between atoms: N_11  and  C_14 
ROOT
HETATM    1  C   UNL     1      27.084  43.309  52.590  1.00  0.00     0.043 C 
HETATM    2  N   UNL     1      27.873  43.851  53.543  1.00  0.00    -0.252 NA
HETATM    3  C   UNL     1      27.649  45.096  53.973  1.00  0.00     0.069 A 
HETATM    4  C   UNL     1      26.650  45.926  53.431  1.00  0.00     0.020 A 
HETATM    5  C   UNL     1      25.917  45.401  52.324  1.00  0.00     0.055 C 
HETATM    6  C   UNL     1      26.069  44.037  51.958  1.00  0.00    -0.010 C 
HETATM    7  C   UNL     1      25.216  43.407  50.886  1.00  0.00     0.052 C 
HETATM    8  C   UNL     1      28.437  45.551  55.023  1.00  0.00     0.032 A 
HETATM    9  C   UNL     1      28.242  46.801  55.605  1.00  0.00     0.002 A 
HETATM   10  C   UNL     1      27.218  47.609  55.143  1.00  0.00     0.001 A 
HETATM   11  C   UNL     1      26.426  47.171  54.081  1.00  0.00     0.016 A 
ENDROOT
BRANCH   5  12
HETATM   12  N   UNL     1      25.012  46.182  51.533  1.00  0.00    -0.324 N 
HETATM   13  C   UNL     1      25.368  47.091  50.549  1.00  0.00     0.248 C 
HETATM   14  O   UNL     1      26.499  47.448  50.234  1.00  0.00    -0.271 OA
HETATM   15  H   UNL     1      24.075  45.802  51.464  1.00  0.00     0.169 HD
BRANCH  13  16
HETATM   16  C   UNL     1      24.171  47.671  49.787  1.00  0.00     0.335 C 
BRANCH  16  17
HETATM   17  N   UNL     1      24.516  48.921  49.005  1.00  0.00    -0.063 N 
HETATM   18  H   UNL     1      24.868  49.646  49.641  1.00  0.00     0.278 HD
HETATM   19  H   UNL     1      25.303  48.655  48.394  1.00  0.00     0.278 HD
BRANCH  17  20
HETATM   20  C   UNL     1      23.465  49.507  48.093  1.00  0.00     0.178 C 
HETATM   21  C   UNL     1      22.228  48.620  48.064  1.00  0.00     0.039 C 
HETATM   22  C   UNL     1      23.129  50.896  48.631  1.00  0.00     0.039 C 
ENDBRANCH  17  20
ENDBRANCH  16  17
ENDBRANCH  13  16
ENDBRANCH   5  12
BRANCH   1  23
HETATM   23  C   UNL     1      27.430  41.878  52.257  1.00  0.00     0.055 C 
HETATM   24  C   UNL     1      28.299  41.228  53.324  1.00  0.00     0.011 C 
ENDBRANCH   1  23
TORSDOF 5
ENDMDL
MODEL 10
REMARK VINA RESULT:      -6.7      3.601      5.508
REMARK  5 active torsions:
REMARK  status: ('A' for Active; 'I' for Inactive)
REMARK    1  A    between atoms: C_2  and  C_3 
REMARK    2  A    between atoms: C_7  and  N_8 
REMARK       I    between atoms: N_8  and  C_9 
REMARK    3  A    between atoms: C_9  and  C_10 
REMARK    4  A    between atoms: C_10  and  N_11 
REMARK    5  A    between atoms: N_11  and  C_14 
ROOT
HETATM    1  C   UNL     1      27.979  45.444  54.833  1.00  0.00     0.043 C 
HETATM    2  N   UNL     1      28.533  44.212  54.799  1.00  0.00    -0.252 NA
HETATM    3  C   UNL     1      28.263  43.383  53.788  1.00  0.00     0.069 A 
HETATM    4  C   UNL     1      27.357  43.698  52.758  1.00  0.00     0.020 A 
HETATM    5  C   UNL     1      26.663  44.940  52.879  1.00  0.00     0.055 C 
HETATM    6  C   UNL     1      27.047  45.871  53.880  1.00  0.00    -0.010 C 
HETATM    7  C   UNL     1      26.435  47.246  53.956  1.00  0.00     0.052 C 
HETATM    8  C   UNL     1      28.945  42.172  53.768  1.00  0.00     0.032 A 
HETATM    9  C   UNL     1      28.803  41.262  52.723  1.00  0.00     0.002 A 
HETATM   10  C   UNL     1      27.977  41.578  51.659  1.00  0.00     0.001 A 
HETATM   11  C   UNL     1      27.276  42.785  51.671  1.00  0.00     0.016 A 
ENDROOT
BRANCH   5  12
HETATM   12  N   UNL     1      25.569  45.320  52.033  1.00  0.00    -0.324 N 
HETATM   13  C   UNL     1      25.674  45.856  50.759  1.00  0.00     0.248 C 
HETATM   14  O   UNL     1      26.699  46.173  50.162  1.00  0.00    -0.271 OA
HETATM   15  H   UNL     1      24.691  44.865  52.249  1.00  0.00     0.169 HD
BRANCH  13  16
HETATM   16  C   UNL     1      24.324  46.034  50.056  1.00  0.00     0.335 C 
BRANCH  16  17
HETATM   17  N   UNL     1      23.786  47.447  50.155  1.00  0.00    -0.063 N 
HETATM   18  H   UNL     1      23.037  47.488  50.856  1.00  0.00     0.278 HD
HETATM   19  H   UNL     1      24.567  48.013  50.521  1.00  0.00     0.278 HD
BRANCH  17  20
HETATM   20  C   UNL     1      23.339  48.132  48.886  1.00  0.00     0.178 C 
HETATM   21  C   UNL     1      22.242  47.329  48.202  1.00  0.00     0.039 C 
HETATM   22  C   UNL     1      22.836  49.519  49.280  1.00  0.00     0.039 C 
ENDBRANCH  17  20
ENDBRANCH  16  17
ENDBRANCH  13  16
ENDBRANCH   5  12
BRANCH   1  23
HETATM   23  C   UNL     1      28.429  46.280  56.008  1.00  0.00     0.055 C 
HETATM   24  C   UNL     1      29.791  45.853  56.535  1.00  0.00     0.011 C 
ENDBRANCH   1  23
TORSDOF 5
ENDMDL
