MODEL 1
REMARK VINA RESULT:      -8.6      0.000      0.000
REMARK  5 active torsions:
REMARK  status: ('A' for Active; 'I' for Inactive)
REMARK    1  A    between atoms: C_2  and  O_3 
REMARK    2  A    between atoms: O_3  and  C_4 
REMARK    3  A    between atoms: C_5  and  C_6 
REMARK    4  A    between atoms: N_7  and  N_8 
REMARK       I    between atoms: N_8  and  C_9 
REMARK    5  A    between atoms: C_9  and  C_10 
ROOT
HETATM    1  N   UNL     1      25.707  46.624  51.753  1.00  0.00    -0.243 N 
HETATM    2  C   UNL     1      26.077  46.615  53.093  1.00  0.00     0.274 C 
HETATM    3  O   UNL     1      25.712  47.434  53.934  1.00  0.00    -0.266 OA
HETATM    4  H   UNL     1      25.795  45.745  51.257  1.00  0.00     0.192 HD
ENDROOT
BRANCH   1   5
HETATM    5  N   UNL     1      24.859  47.507  51.130  1.00  0.00    -0.183 NA
HETATM    6  C   UNL     1      24.605  47.353  49.868  1.00  0.00     0.153 C 
BRANCH   6   7
HETATM    7  C   UNL     1      23.750  48.310  49.140  1.00  0.00     0.016 A 
HETATM    8  C   UNL     1      24.219  49.590  48.824  1.00  0.00     0.080 A 
HETATM    9  C   UNL     1      23.433  50.449  48.051  1.00  0.00     0.037 A 
HETATM   10  C   UNL     1      22.161  50.050  47.635  1.00  0.00     0.003 A 
HETATM   11  C   UNL     1      21.676  48.790  47.982  1.00  0.00     0.001 A 
HETATM   12  C   UNL     1      22.468  47.918  48.732  1.00  0.00     0.016 A 
BRANCH   8  13
HETATM   13  O   UNL     1      25.443  50.071  49.206  1.00  0.00    -0.351 OA
BRANCH  13  14
HETATM   14  C   UNL     1      26.466  49.769  48.245  1.00  0.00     0.171 C 
HETATM   15  C   UNL     1      27.666  49.208  48.983  1.00  0.00     0.034 C 
ENDBRANCH  13  14
ENDBRANCH   8  13
ENDBRANCH   6   7
ENDBRANCH   1   5
BRANCH   2  16
HETATM   16  C   UNL     1      26.911  45.470  53.475  1.00  0.00     0.061 A 
HETATM   17  C   UNL     1      28.045  45.372  54.358  1.00  0.00     0.008 A 
HETATM   18  C   UNL     1      28.489  44.047  54.318  1.00  0.00     0.043 A 
HETATM   19  C   UNL     1      28.741  46.270  55.203  1.00  0.00     0.015 A 
HETATM   20  C   UNL     1      29.602  43.591  55.036  1.00  0.00     0.030 A 
HETATM   21  N   UNL     1      27.639  43.353  53.493  1.00  0.00    -0.364 N 
HETATM   22  C   UNL     1      30.286  44.511  55.833  1.00  0.00     0.002 A 
HETATM   23  C   UNL     1      29.858  45.830  55.923  1.00  0.00     0.001 A 
HETATM   24  H   UNL     1      27.709  42.365  53.296  1.00  0.00     0.165 HD
HETATM   25  C   UNL     1      26.683  44.190  52.994  1.00  0.00     0.106 A 
ENDBRANCH   2  16
TORSDOF 5
ENDMDL
MODEL 2
REMARK VINA RESULT:      -8.4      1.156      1.865
REMARK  5 active torsions:
REMARK  status: ('A' for Active; 'I' for Inactive)
REMARK    1  A    between atoms: C_2  and  O_3 
REMARK    2  A    between atoms: O_3  and  C_4 
REMARK    3  A    between atoms: C_5  and  C_6 
REMARK    4  A    between atoms: N_7  and  N_8 
REMARK       I    between atoms: N_8  and  C_9 
REMARK    5  A    between atoms: C_9  and  C_10 
ROOT
HETATM    1  N   UNL     1      26.058  47.036  52.378  1.00  0.00    -0.243 N 
HETATM    2  C   UNL     1      26.280  47.280  53.729  1.00  0.00     0.274 C 
HETATM    3  O   UNL     1      25.598  48.018  54.436  1.00  0.00    -0.266 OA
HETATM    4  H   UNL     1      26.464  46.187  52.002  1.00  0.00     0.192 HD
ENDROOT
BRANCH   1   5
HETATM    5  N   UNL     1      25.042  47.533  51.598  1.00  0.00    -0.183 NA
HETATM    6  C   UNL     1      24.988  47.200  50.347  1.00  0.00     0.153 C 
BRANCH   6   7
HETATM    7  C   UNL     1      23.953  47.756  49.454  1.00  0.00     0.016 A 
HETATM    8  C   UNL     1      24.090  49.039  48.913  1.00  0.00     0.080 A 
HETATM    9  C   UNL     1      23.149  49.512  47.995  1.00  0.00     0.037 A 
HETATM   10  C   UNL     1      22.047  48.726  47.653  1.00  0.00     0.003 A 
HETATM   11  C   UNL     1      21.888  47.462  48.221  1.00  0.00     0.001 A 
HETATM   12  C   UNL     1      22.839  46.975  49.120  1.00  0.00     0.016 A 
BRANCH   8  13
HETATM   13  O   UNL     1      25.126  49.885  49.206  1.00  0.00    -0.351 OA
BRANCH  13  14
HETATM   14  C   UNL     1      26.149  49.857  48.198  1.00  0.00     0.171 C 
HETATM   15  C   UNL     1      27.470  49.521  48.864  1.00  0.00     0.034 C 
ENDBRANCH  13  14
ENDBRANCH   8  13
ENDBRANCH   6   7
ENDBRANCH   1   5
BRANCH   2  16
HETATM   16  C   UNL     1      27.388  46.507  54.301  1.00  0.00     0.061 A 
HETATM   17  C   UNL     1      27.858  45.173  54.027  1.00  0.00     0.008 A 
HETATM   18  C   UNL     1      28.922  44.921  54.898  1.00  0.00     0.043 A 
HETATM   19  C   UNL     1      27.500  44.149  53.119  1.00  0.00     0.015 A 
HETATM   20  C   UNL     1      29.608  43.700  54.936  1.00  0.00     0.030 A 
HETATM   21  N   UNL     1      29.131  46.062  55.634  1.00  0.00    -0.364 N 
HETATM   22  C   UNL     1      29.207  42.699  54.049  1.00  0.00     0.002 A 
HETATM   23  C   UNL     1      28.173  42.921  53.147  1.00  0.00     0.001 A 
HETATM   24  H   UNL     1      29.855  46.173  56.330  1.00  0.00     0.165 HD
HETATM   25  C   UNL     1      28.229  47.021  55.276  1.00  0.00     0.106 A 
ENDBRANCH   2  16
TORSDOF 5
ENDMDL
MODEL 3
REMARK VINA RESULT:      -8.4      2.233      8.501
REMARK  5 active torsions:
REMARK  status: ('A' for Active; 'I' for Inactive)
REMARK    1  A    between atoms: C_2  and  O_3 
REMARK    2  A    between atoms: O_3  and  C_4 
REMARK    3  A    between atoms: C_5  and  C_6 
REMARK    4  A    between atoms: N_7  and  N_8 
REMARK       I    between atoms: N_8  and  C_9 
REMARK    5  A    between atoms: C_9  and  C_10 
ROOT
HETATM    1  N   UNL     1      26.861  46.167  53.368  1.00  0.00    -0.243 N 
HETATM    2  C   UNL     1      26.726  45.653  52.084  1.00  0.00     0.274 C 
HETATM    3  O   UNL     1      27.221  44.602  51.686  1.00  0.00    -0.266 OA
HETATM    4  H   UNL     1      26.159  46.838  53.660  1.00  0.00     0.192 HD
ENDROOT
BRANCH   1   5
HETATM    5  N   UNL     1      27.530  45.600  54.426  1.00  0.00    -0.183 NA
HETATM    6  C   UNL     1      28.626  46.149  54.844  1.00  0.00     0.153 C 
BRANCH   6   7
HETATM    7  C   UNL     1      29.413  45.543  55.936  1.00  0.00     0.016 A 
HETATM    8  C   UNL     1      30.260  44.457  55.689  1.00  0.00     0.080 A 
HETATM    9  C   UNL     1      31.070  43.957  56.712  1.00  0.00     0.037 A 
HETATM   10  C   UNL     1      31.000  44.508  57.993  1.00  0.00     0.003 A 
HETATM   11  C   UNL     1      30.128  45.565  58.252  1.00  0.00     0.001 A 
HETATM   12  C   UNL     1      29.335  46.085  57.226  1.00  0.00     0.016 A 
BRANCH   8  13
HETATM   13  O   UNL     1      30.378  43.842  54.470  1.00  0.00    -0.351 OA
BRANCH  13  14
HETATM   14  C   UNL     1      29.541  42.679  54.369  1.00  0.00     0.171 C 
HETATM   15  C   UNL     1      29.559  42.200  52.930  1.00  0.00     0.034 C 
ENDBRANCH  13  14
ENDBRANCH   8  13
ENDBRANCH   6   7
ENDBRANCH   1   5
BRANCH   2  16
HETATM   16  C   UNL     1      25.852  46.447  51.212  1.00  0.00     0.061 A 
HETATM   17  C   UNL     1      26.143  47.522  50.297  1.00  0.00     0.008 A 
HETATM   18  C   UNL     1      24.926  47.949  49.759  1.00  0.00     0.043 A 
HETATM   19  C   UNL     1      27.318  48.175  49.857  1.00  0.00     0.015 A 
HETATM   20  C   UNL     1      24.821  49.009  48.849  1.00  0.00     0.030 A 
HETATM   21  N   UNL     1      23.941  47.143  50.276  1.00  0.00    -0.364 N 
HETATM   22  C   UNL     1      25.997  49.654  48.461  1.00  0.00     0.002 A 
HETATM   23  C   UNL     1      27.230  49.239  48.951  1.00  0.00     0.001 A 
HETATM   24  H   UNL     1      22.961  47.212  50.043  1.00  0.00     0.165 HD
HETATM   25  C   UNL     1      24.484  46.232  51.134  1.00  0.00     0.106 A 
ENDBRANCH   2  16
TORSDOF 5
ENDMDL
MODEL 4
REMARK VINA RESULT:      -8.3      1.618      8.374
REMARK  5 active torsions:
REMARK  status: ('A' for Active; 'I' for Inactive)
REMARK    1  A    between atoms: C_2  and  O_3 
REMARK    2  A    between atoms: O_3  and  C_4 
REMARK    3  A    between atoms: C_5  and  C_6 
REMARK    4  A    between atoms: N_7  and  N_8 
REMARK       I    between atoms: N_8  and  C_9 
REMARK    5  A    between atoms: C_9  and  C_10 
ROOT
HETATM    1  N   UNL     1      25.944  45.806  50.744  1.00  0.00    -0.243 N 
HETATM    2  C   UNL     1      25.697  47.122  50.370  1.00  0.00     0.274 C 
HETATM    3  O   UNL     1      26.474  48.061  50.525  1.00  0.00    -0.266 OA
HETATM    4  H   UNL     1      25.392  45.095  50.279  1.00  0.00     0.192 HD
ENDROOT
BRANCH   1   5
HETATM    5  N   UNL     1      27.088  45.305  51.316  1.00  0.00    -0.183 NA
HETATM    6  C   UNL     1      26.999  44.638  52.423  1.00  0.00     0.153 C 
BRANCH   6   7
HETATM    7  C   UNL     1      28.205  44.132  53.108  1.00  0.00     0.016 A 
HETATM    8  C   UNL     1      28.477  44.490  54.433  1.00  0.00     0.080 A 
HETATM    9  C   UNL     1      29.570  43.927  55.097  1.00  0.00     0.037 A 
HETATM   10  C   UNL     1      30.419  43.045  54.425  1.00  0.00     0.003 A 
HETATM   11  C   UNL     1      30.172  42.717  53.092  1.00  0.00     0.001 A 
HETATM   12  C   UNL     1      29.066  43.257  52.433  1.00  0.00     0.016 A 
BRANCH   8  13
HETATM   13  O   UNL     1      27.711  45.362  55.162  1.00  0.00    -0.351 OA
BRANCH  13  14
HETATM   14  C   UNL     1      28.437  46.548  55.521  1.00  0.00     0.171 C 
HETATM   15  C   UNL     1      27.820  47.727  54.792  1.00  0.00     0.034 C 
ENDBRANCH  13  14
ENDBRANCH   8  13
ENDBRANCH   6   7
ENDBRANCH   1   5
BRANCH   2  16
HETATM   16  C   UNL     1      24.417  47.315  49.679  1.00  0.00     0.061 A 
HETATM   17  C   UNL     1      23.862  48.464  49.009  1.00  0.00     0.008 A 
HETATM   18  C   UNL     1      22.585  48.109  48.566  1.00  0.00     0.043 A 
HETATM   19  C   UNL     1      24.315  49.773  48.718  1.00  0.00     0.015 A 
HETATM   20  C   UNL     1      21.733  48.997  47.895  1.00  0.00     0.030 A 
HETATM   21  N   UNL     1      22.385  46.792  48.900  1.00  0.00    -0.364 N 
HETATM   22  C   UNL     1      22.198  50.291  47.654  1.00  0.00     0.002 A 
HETATM   23  C   UNL     1      23.474  50.673  48.053  1.00  0.00     0.001 A 
HETATM   24  H   UNL     1      21.551  46.264  48.682  1.00  0.00     0.165 HD
HETATM   25  C   UNL     1      23.478  46.303  49.552  1.00  0.00     0.106 A 
ENDBRANCH   2  16
TORSDOF 5
ENDMDL
MODEL 5
REMARK VINA RESULT:      -8.2      1.958      2.812
REMARK  5 active torsions:
REMARK  status: ('A' for Active; 'I' for Inactive)
REMARK    1  A    between atoms: C_2  and  O_3 
REMARK    2  A    between atoms: O_3  and  C_4 
REMARK    3  A    between atoms: C_5  and  C_6 
REMARK    4  A    between atoms: N_7  and  N_8 
REMARK       I    between atoms: N_8  and  C_9 
REMARK    5  A    between atoms: C_9  and  C_10 
ROOT
HETATM    1  N   UNL     1      25.860  45.804  52.673  1.00  0.00    -0.243 N 
HETATM    2  C   UNL     1      26.658  44.803  53.215  1.00  0.00     0.274 C 
HETATM    3  O   UNL     1      26.653  43.626  52.864  1.00  0.00    -0.266 OA
HETATM    4  H   UNL     1      26.182  46.756  52.806  1.00  0.00     0.192 HD
ENDROOT
BRANCH   1   5
HETATM    5  N   UNL     1      24.957  45.684  51.645  1.00  0.00    -0.183 NA
HETATM    6  C   UNL     1      24.887  46.623  50.755  1.00  0.00     0.153 C 
BRANCH   6   7
HETATM    7  C   UNL     1      23.891  46.569  49.667  1.00  0.00     0.016 A 
HETATM    8  C   UNL     1      23.279  47.738  49.201  1.00  0.00     0.080 A 
HETATM    9  C   UNL     1      22.411  47.681  48.108  1.00  0.00     0.037 A 
HETATM   10  C   UNL     1      22.117  46.454  47.509  1.00  0.00     0.003 A 
HETATM   11  C   UNL     1      22.696  45.283  47.997  1.00  0.00     0.001 A 
HETATM   12  C   UNL     1      23.584  45.338  49.074  1.00  0.00     0.016 A 
BRANCH   8  13
HETATM   13  O   UNL     1      23.492  48.979  49.739  1.00  0.00    -0.351 OA
BRANCH  13  14
HETATM   14  C   UNL     1      22.456  49.908  49.382  1.00  0.00     0.171 C 
HETATM   15  C   UNL     1      23.107  51.168  48.844  1.00  0.00     0.034 C 
ENDBRANCH  13  14
ENDBRANCH   8  13
ENDBRANCH   6   7
ENDBRANCH   1   5
BRANCH   2  16
HETATM   16  C   UNL     1      27.605  45.278  54.231  1.00  0.00     0.061 A 
HETATM   17  C   UNL     1      28.795  44.676  54.777  1.00  0.00     0.008 A 
HETATM   18  C   UNL     1      29.288  45.545  55.754  1.00  0.00     0.043 A 
HETATM   19  C   UNL     1      29.518  43.484  54.537  1.00  0.00     0.015 A 
HETATM   20  C   UNL     1      30.427  45.268  56.522  1.00  0.00     0.030 A 
HETATM   21  N   UNL     1      28.473  46.650  55.771  1.00  0.00    -0.364 N 
HETATM   22  C   UNL     1      31.097  44.066  56.282  1.00  0.00     0.002 A 
HETATM   23  C   UNL     1      30.655  43.189  55.299  1.00  0.00     0.001 A 
HETATM   24  H   UNL     1      28.606  47.454  56.370  1.00  0.00     0.165 HD
HETATM   25  C   UNL     1      27.472  46.508  54.855  1.00  0.00     0.106 A 
ENDBRANCH   2  16
TORSDOF 5
ENDMDL
MODEL 6
REMARK VINA RESULT:      -8.1      5.417      9.105
REMARK  5 active torsions:
REMARK  status: ('A' for Active; 'I' for Inactive)
REMARK    1  A    between atoms: C_2  and  O_3 
REMARK    2  A    between atoms: O_3  and  C_4 
REMARK    3  A    between atoms: C_5  and  C_6 
REMARK    4  A    between atoms: N_7  and  N_8 
REMARK       I    between atoms: N_8  and  C_9 
REMARK    5  A    between atoms: C_9  and  C_10 
ROOT
HETATM    1  N   UNL     1      28.894  40.437  51.998  1.00  0.00    -0.243 N 
HETATM    2  C   UNL     1      28.278  40.498  50.752  1.00  0.00     0.274 C 
HETATM    3  O   UNL     1      27.564  41.418  50.360  1.00  0.00    -0.266 OA
HETATM    4  H   UNL     1      29.694  39.819  52.073  1.00  0.00     0.192 HD
ENDROOT
BRANCH   1   5
HETATM    5  N   UNL     1      28.851  41.381  52.995  1.00  0.00    -0.183 NA
HETATM    6  C   UNL     1      29.680  42.376  52.955  1.00  0.00     0.153 C 
BRANCH   6   7
HETATM    7  C   UNL     1      29.715  43.382  54.034  1.00  0.00     0.016 A 
HETATM    8  C   UNL     1      28.737  44.379  54.114  1.00  0.00     0.080 A 
HETATM    9  C   UNL     1      28.730  45.264  55.195  1.00  0.00     0.037 A 
HETATM   10  C   UNL     1      29.726  45.185  56.172  1.00  0.00     0.003 A 
HETATM   11  C   UNL     1      30.725  44.217  56.073  1.00  0.00     0.001 A 
HETATM   12  C   UNL     1      30.721  43.314  55.008  1.00  0.00     0.016 A 
BRANCH   8  13
HETATM   13  O   UNL     1      27.736  44.543  53.194  1.00  0.00    -0.351 OA
BRANCH  13  14
HETATM   14  C   UNL     1      26.692  45.403  53.678  1.00  0.00     0.171 C 
HETATM   15  C   UNL     1      26.204  46.260  52.525  1.00  0.00     0.034 C 
ENDBRANCH  13  14
ENDBRANCH   8  13
ENDBRANCH   6   7
ENDBRANCH   1   5
BRANCH   2  16
HETATM   16  C   UNL     1      28.611  39.377  49.866  1.00  0.00     0.061 A 
HETATM   17  C   UNL     1      28.416  39.195  48.450  1.00  0.00     0.008 A 
HETATM   18  C   UNL     1      28.877  37.915  48.129  1.00  0.00     0.043 A 
HETATM   19  C   UNL     1      27.906  39.989  47.396  1.00  0.00     0.015 A 
HETATM   20  C   UNL     1      28.815  37.380  46.836  1.00  0.00     0.030 A 
HETATM   21  N   UNL     1      29.378  37.358  49.280  1.00  0.00    -0.364 N 
HETATM   22  C   UNL     1      28.274  38.178  45.826  1.00  0.00     0.002 A 
HETATM   23  C   UNL     1      27.833  39.468  46.098  1.00  0.00     0.001 A 
HETATM   24  H   UNL     1      29.799  36.441  49.339  1.00  0.00     0.165 HD
HETATM   25  C   UNL     1      29.238  38.228  50.321  1.00  0.00     0.106 A 
ENDBRANCH   2  16
TORSDOF 5
ENDMDL
MODEL 7
REMARK VINA RESULT:      -8.0      5.952      7.453
REMARK  5 active torsions:
REMARK  status: ('A' for Active; 'I' for Inactive)
REMARK    1  A    between atoms: C_2  and  O_3 
REMARK    2  A    between atoms: O_3  and  C_4 
REMARK    3  A    between atoms: C_5  and  C_6 
REMARK    4  A    between atoms: N_7  and  N_8 
REMARK       I    between atoms: N_8  and  C_9 
REMARK    5  A    between atoms: C_9  and  C_10 
ROOT
HETATM    1  N   UNL     1      27.950  42.486  53.288  1.00  0.00    -0.243 N 
HETATM    2  C   UNL     1      29.249  42.892  53.574  1.00  0.00     0.274 C 
HETATM    3  O   UNL     1      30.261  42.473  53.017  1.00  0.00    -0.266 OA
HETATM    4  H   UNL     1      27.210  43.120  53.565  1.00  0.00     0.192 HD
ENDROOT
BRANCH   1   5
HETATM    5  N   UNL     1      27.552  41.586  52.329  1.00  0.00    -0.183 NA
HETATM    6  C   UNL     1      27.533  41.956  51.087  1.00  0.00     0.153 C 
BRANCH   6   7
HETATM    7  C   UNL     1      27.054  41.047  50.028  1.00  0.00     0.016 A 
HETATM    8  C   UNL     1      27.690  39.822  49.797  1.00  0.00     0.080 A 
HETATM    9  C   UNL     1      27.166  38.932  48.856  1.00  0.00     0.037 A 
HETATM   10  C   UNL     1      26.037  39.281  48.113  1.00  0.00     0.003 A 
HETATM   11  C   UNL     1      25.425  40.518  48.314  1.00  0.00     0.001 A 
HETATM   12  C   UNL     1      25.930  41.401  49.271  1.00  0.00     0.016 A 
BRANCH   8  13
HETATM   13  O   UNL     1      28.811  39.405  50.464  1.00  0.00    -0.351 OA
BRANCH  13  14
HETATM   14  C   UNL     1      29.240  38.102  50.038  1.00  0.00     0.171 C 
HETATM   15  C   UNL     1      29.989  37.447  51.183  1.00  0.00     0.034 C 
ENDBRANCH  13  14
ENDBRANCH   8  13
ENDBRANCH   6   7
ENDBRANCH   1   5
BRANCH   2  16
HETATM   16  C   UNL     1      29.334  43.955  54.582  1.00  0.00     0.061 A 
HETATM   17  C   UNL     1      30.147  44.082  55.765  1.00  0.00     0.008 A 
HETATM   18  C   UNL     1      29.787  45.280  56.389  1.00  0.00     0.043 A 
HETATM   19  C   UNL     1      31.164  43.308  56.372  1.00  0.00     0.015 A 
HETATM   20  C   UNL     1      30.355  45.717  57.593  1.00  0.00     0.030 A 
HETATM   21  N   UNL     1      28.839  45.886  55.601  1.00  0.00    -0.364 N 
HETATM   22  C   UNL     1      31.332  44.913  58.182  1.00  0.00     0.002 A 
HETATM   23  C   UNL     1      31.738  43.729  57.578  1.00  0.00     0.001 A 
HETATM   24  H   UNL     1      28.413  46.780  55.799  1.00  0.00     0.165 HD
HETATM   25  C   UNL     1      28.570  45.110  54.511  1.00  0.00     0.106 A 
ENDBRANCH   2  16
TORSDOF 5
ENDMDL
MODEL 8
REMARK VINA RESULT:      -7.9      1.315      2.495
REMARK  5 active torsions:
REMARK  status: ('A' for Active; 'I' for Inactive)
REMARK    1  A    between atoms: C_2  and  O_3 
REMARK    2  A    between atoms: O_3  and  C_4 
REMARK    3  A    between atoms: C_5  and  C_6 
REMARK    4  A    between atoms: N_7  and  N_8 
REMARK       I    between atoms: N_8  and  C_9 
REMARK    5  A    between atoms: C_9  and  C_10 
ROOT
HETATM    1  N   UNL     1      26.273  46.707  51.696  1.00  0.00    -0.243 N 
HETATM    2  C   UNL     1      26.232  46.401  53.052  1.00  0.00     0.274 C 
HETATM    3  O   UNL     1      25.513  46.953  53.881  1.00  0.00    -0.266 OA
HETATM    4  H   UNL     1      26.640  45.988  51.084  1.00  0.00     0.192 HD
ENDROOT
BRANCH   1   5
HETATM    5  N   UNL     1      25.514  47.639  51.030  1.00  0.00    -0.183 NA
HETATM    6  C   UNL     1      24.966  47.314  49.902  1.00  0.00     0.153 C 
BRANCH   6   7
HETATM    7  C   UNL     1      24.194  48.299  49.119  1.00  0.00     0.016 A 
HETATM    8  C   UNL     1      22.874  48.032  48.739  1.00  0.00     0.080 A 
HETATM    9  C   UNL     1      22.127  49.013  48.082  1.00  0.00     0.037 A 
HETATM   10  C   UNL     1      22.709  50.240  47.760  1.00  0.00     0.003 A 
HETATM   11  C   UNL     1      24.038  50.493  48.103  1.00  0.00     0.001 A 
HETATM   12  C   UNL     1      24.781  49.526  48.783  1.00  0.00     0.016 A 
BRANCH   8  13
HETATM   13  O   UNL     1      22.229  46.851  48.995  1.00  0.00    -0.351 OA
BRANCH  13  14
HETATM   14  C   UNL     1      22.124  46.028  47.822  1.00  0.00     0.171 C 
HETATM   15  C   UNL     1      21.023  45.010  48.049  1.00  0.00     0.034 C 
ENDBRANCH  13  14
ENDBRANCH   8  13
ENDBRANCH   6   7
ENDBRANCH   1   5
BRANCH   2  16
HETATM   16  C   UNL     1      27.090  45.274  53.436  1.00  0.00     0.061 A 
HETATM   17  C   UNL     1      28.198  45.192  54.354  1.00  0.00     0.008 A 
HETATM   18  C   UNL     1      28.685  43.883  54.300  1.00  0.00     0.043 A 
HETATM   19  C   UNL     1      28.836  46.091  55.241  1.00  0.00     0.015 A 
HETATM   20  C   UNL     1      29.788  43.445  55.044  1.00  0.00     0.030 A 
HETATM   21  N   UNL     1      27.884  43.182  53.432  1.00  0.00    -0.364 N 
HETATM   22  C   UNL     1      30.416  44.367  55.883  1.00  0.00     0.002 A 
HETATM   23  C   UNL     1      29.943  45.670  55.988  1.00  0.00     0.001 A 
HETATM   24  H   UNL     1      27.992  42.200  53.216  1.00  0.00     0.165 HD
HETATM   25  C   UNL     1      26.919  43.999  52.921  1.00  0.00     0.106 A 
ENDBRANCH   2  16
TORSDOF 5
ENDMDL
MODEL 9
REMARK VINA RESULT:      -7.9      2.194      3.319
REMARK  5 active torsions:
REMARK  status: ('A' for Active; 'I' for Inactive)
REMARK    1  A    between atoms: C_2  and  O_3 
REMARK    2  A    between atoms: O_3  and  C_4 
REMARK    3  A    between atoms: C_5  and  C_6 
REMARK    4  A    between atoms: N_7  and  N_8 
REMARK       I    between atoms: N_8  and  C_9 
REMARK    5  A    between atoms: C_9  and  C_10 
ROOT
HETATM    1  N   UNL     1      26.071  47.179  52.720  1.00  0.00    -0.243 N 
HETATM    2  C   UNL     1      26.106  46.058  53.542  1.00  0.00     0.274 C 
HETATM    3  O   UNL     1      25.237  45.192  53.596  1.00  0.00    -0.266 OA
HETATM    4  H   UNL     1      26.962  47.622  52.526  1.00  0.00     0.192 HD
ENDROOT
BRANCH   1   5
HETATM    5  N   UNL     1      25.099  47.513  51.809  1.00  0.00    -0.183 NA
HETATM    6  C   UNL     1      24.943  46.775  50.755  1.00  0.00     0.153 C 
BRANCH   6   7
HETATM    7  C   UNL     1      23.954  47.127  49.718  1.00  0.00     0.016 A 
HETATM    8  C   UNL     1      23.386  46.138  48.907  1.00  0.00     0.080 A 
HETATM    9  C   UNL     1      22.382  46.476  47.996  1.00  0.00     0.037 A 
HETATM   10  C   UNL     1      21.978  47.805  47.859  1.00  0.00     0.003 A 
HETATM   11  C   UNL     1      22.570  48.799  48.639  1.00  0.00     0.001 A 
HETATM   12  C   UNL     1      23.556  48.462  49.569  1.00  0.00     0.016 A 
BRANCH   8  13
HETATM   13  O   UNL     1      23.735  44.815  48.958  1.00  0.00    -0.351 OA
BRANCH  13  14
HETATM   14  C   UNL     1      22.595  43.963  49.147  1.00  0.00     0.171 C 
HETATM   15  C   UNL     1      22.980  42.851  50.105  1.00  0.00     0.034 C 
ENDBRANCH  13  14
ENDBRANCH   8  13
ENDBRANCH   6   7
ENDBRANCH   1   5
BRANCH   2  16
HETATM   16  C   UNL     1      27.342  45.930  54.324  1.00  0.00     0.061 A 
HETATM   17  C   UNL     1      28.308  44.864  54.407  1.00  0.00     0.008 A 
HETATM   18  C   UNL     1      29.269  45.248  55.346  1.00  0.00     0.043 A 
HETATM   19  C   UNL     1      28.477  43.610  53.774  1.00  0.00     0.015 A 
HETATM   20  C   UNL     1      30.352  44.437  55.710  1.00  0.00     0.030 A 
HETATM   21  N   UNL     1      28.940  46.509  55.779  1.00  0.00    -0.364 N 
HETATM   22  C   UNL     1      30.470  43.191  55.090  1.00  0.00     0.002 A 
HETATM   23  C   UNL     1      29.551  42.785  54.130  1.00  0.00     0.001 A 
HETATM   24  H   UNL     1      29.476  47.045  56.447  1.00  0.00     0.165 HD
HETATM   25  C   UNL     1      27.799  46.933  55.164  1.00  0.00     0.106 A 
ENDBRANCH   2  16
TORSDOF 5
ENDMDL
MODEL 10
REMARK VINA RESULT:      -7.8      5.566      8.055
REMARK  5 active torsions:
REMARK  status: ('A' for Active; 'I' for Inactive)
REMARK    1  A    between atoms: C_2  and  O_3 
REMARK    2  A    between atoms: O_3  and  C_4 
REMARK    3  A    between atoms: C_5  and  C_6 
REMARK    4  A    between atoms: N_7  and  N_8 
REMARK       I    between atoms: N_8  and  C_9 
REMARK    5  A    between atoms: C_9  and  C_10 
ROOT
HETATM    1  N   UNL     1      27.446  42.381  51.288  1.00  0.00    -0.243 N 
HETATM    2  C   UNL     1      27.726  42.150  52.630  1.00  0.00     0.274 C 
HETATM    3  O   UNL     1      27.856  41.042  53.146  1.00  0.00    -0.266 OA
HETATM    4  H   UNL     1      27.687  43.298  50.930  1.00  0.00     0.192 HD
ENDROOT
BRANCH   1   5
HETATM    5  N   UNL     1      27.295  41.443  50.296  1.00  0.00    -0.183 NA
HETATM    6  C   UNL     1      28.343  41.027  49.658  1.00  0.00     0.153 C 
BRANCH   6   7
HETATM    7  C   UNL     1      28.225  40.067  48.543  1.00  0.00     0.016 A 
HETATM    8  C   UNL     1      28.252  38.689  48.781  1.00  0.00     0.080 A 
HETATM    9  C   UNL     1      28.043  37.795  47.727  1.00  0.00     0.037 A 
HETATM   10  C   UNL     1      27.856  38.274  46.429  1.00  0.00     0.003 A 
HETATM   11  C   UNL     1      27.868  39.647  46.183  1.00  0.00     0.001 A 
HETATM   12  C   UNL     1      28.051  40.545  47.237  1.00  0.00     0.016 A 
BRANCH   8  13
HETATM   13  O   UNL     1      28.448  38.130  50.016  1.00  0.00    -0.351 OA
BRANCH  13  14
HETATM   14  C   UNL     1      29.812  37.727  50.216  1.00  0.00     0.171 C 
HETATM   15  C   UNL     1      29.880  36.868  51.465  1.00  0.00     0.034 C 
ENDBRANCH  13  14
ENDBRANCH   8  13
ENDBRANCH   6   7
ENDBRANCH   1   5
BRANCH   2  16
HETATM   16  C   UNL     1      27.941  43.372  53.415  1.00  0.00     0.061 A 
HETATM   17  C   UNL     1      28.966  43.724  54.364  1.00  0.00     0.008 A 
HETATM   18  C   UNL     1      28.660  44.999  54.850  1.00  0.00     0.043 A 
HETATM   19  C   UNL     1      30.136  43.100  54.857  1.00  0.00     0.015 A 
HETATM   20  C   UNL     1      29.429  45.652  55.822  1.00  0.00     0.030 A 
HETATM   21  N   UNL     1      27.533  45.430  54.194  1.00  0.00    -0.364 N 
HETATM   22  C   UNL     1      30.558  44.993  56.312  1.00  0.00     0.002 A 
HETATM   23  C   UNL     1      30.912  43.738  55.832  1.00  0.00     0.001 A 
HETATM   24  H   UNL     1      27.096  46.330  54.333  1.00  0.00     0.165 HD
HETATM   25  C   UNL     1      27.102  44.472  53.324  1.00  0.00     0.106 A 
ENDBRANCH   2  16
TORSDOF 5
ENDMDL
