MODEL 1
REMARK VINA RESULT:      -9.7      0.000      0.000
REMARK  10 active torsions:
REMARK  status: ('A' for Active; 'I' for Inactive)
REMARK    1  A    between atoms: C_2  and  C_3 
REMARK    2  A    between atoms: C_3  and  C_4 
REMARK    3  A    between atoms: C_4  and  O_5 
REMARK    4  A    between atoms: O_5  and  C_6 
REMARK    5  A    between atoms: C_8  and  C_9 
REMARK       I    between atoms: C_9  and  N_10 
REMARK    6  A    between atoms: N_10  and  C_11 
REMARK    7  A    between atoms: C_11  and  N_12 
REMARK    8  A    between atoms: N_12  and  C_13 
REMARK    9  A    between atoms: C_15  and  O_16 
REMARK   10  A    between atoms: C_17  and  C_18 
ROOT
HETATM    1  N   UNL     1      23.800  46.468  49.215  1.00  0.00    -0.333 N 
HETATM    2  H   UNL     1      24.342  46.903  48.465  1.00  0.00     0.168 HD
ENDROOT
BRANCH   1   3
HETATM    3  C   UNL     1      22.478  46.300  48.887  1.00  0.00     0.179 C 
HETATM    4  S   UNL     1      21.649  44.900  48.503  1.00  0.00    -0.040 SA
BRANCH   3   5
HETATM    5  N   UNL     1      21.726  47.466  48.892  1.00  0.00    -0.299 N 
HETATM    6  C   UNL     1      21.974  48.657  48.220  1.00  0.00     0.257 C 
HETATM    7  O   UNL     1      23.071  48.931  47.736  1.00  0.00    -0.267 OA
HETATM    8  H   UNL     1      20.868  47.368  49.413  1.00  0.00     0.171 HD
BRANCH   6   9
HETATM    9  C   UNL     1      20.860  49.649  48.160  1.00  0.00     0.035 A 
HETATM   10  C   UNL     1      19.596  49.337  47.644  1.00  0.00     0.053 A 
HETATM   11  C   UNL     1      18.601  50.314  47.626  1.00  0.00     0.069 A 
HETATM   12  C   UNL     1      18.855  51.613  48.055  1.00  0.00     0.037 A 
HETATM   13  C   UNL     1      20.117  51.935  48.547  1.00  0.00     0.004 A 
HETATM   14  C   UNL     1      21.114  50.956  48.605  1.00  0.00     0.017 A 
BRANCH  11  15
HETATM   15  O   UNL     1      17.372  50.009  47.112  1.00  0.00    -0.351 OA
BRANCH  15  16
HETATM   16  C   UNL     1      16.433  49.718  48.156  1.00  0.00     0.175 C 
BRANCH  16  17
HETATM   17  C   UNL     1      15.921  48.289  47.991  1.00  0.00     0.026 C 
BRANCH  17  18
HETATM   18  C   UNL     1      16.652  47.301  48.903  1.00  0.00    -0.002 C 
HETATM   19  C   UNL     1      17.400  46.252  48.095  1.00  0.00     0.005 C 
ENDBRANCH  17  18
ENDBRANCH  16  17
ENDBRANCH  15  16
ENDBRANCH  11  15
ENDBRANCH   6   9
ENDBRANCH   3   5
ENDBRANCH   1   3
BRANCH   1  20
HETATM   20  C   UNL     1      24.540  46.191  50.383  1.00  0.00     0.036 A 
HETATM   21  C   UNL     1      24.459  45.009  51.118  1.00  0.00     0.067 A 
HETATM   22  C   UNL     1      25.293  44.799  52.227  1.00  0.00     0.082 A 
HETATM   23  C   UNL     1      26.234  45.760  52.624  1.00  0.00     0.050 A 
HETATM   24  C   UNL     1      26.295  46.951  51.886  1.00  0.00     0.021 A 
HETATM   25  C   UNL     1      25.471  47.158  50.774  1.00  0.00     0.030 A 
BRANCH  22  26
HETATM   26  O   UNL     1      25.166  43.625  52.923  1.00  0.00    -0.360 OA
HETATM   27  H   UNL     1      24.727  43.795  53.772  1.00  0.00     0.217 HD
ENDBRANCH  22  26
BRANCH  23  28
HETATM   28  C   UNL     1      27.165  45.592  53.741  1.00  0.00     0.183 A 
HETATM   29  O   UNL     1      28.066  44.561  53.662  1.00  0.00    -0.289 OA
HETATM   30  C   UNL     1      28.835  44.703  54.778  1.00  0.00     0.107 A 
HETATM   31  C   UNL     1      28.376  45.808  55.470  1.00  0.00     0.093 A 
HETATM   32  C   UNL     1      29.902  43.904  55.170  1.00  0.00     0.046 A 
HETATM   33  N   UNL     1      27.322  46.374  54.799  1.00  0.00    -0.221 NA
HETATM   34  C   UNL     1      29.016  46.173  56.660  1.00  0.00     0.035 A 
HETATM   35  C   UNL     1      30.100  45.394  57.094  1.00  0.00     0.009 A 
HETATM   36  C   UNL     1      30.539  44.271  56.368  1.00  0.00    -0.059 A 
HETATM   37  C   UNL     1      31.723  43.487  56.862  1.00  0.00     0.048 C 
ENDBRANCH  23  28
ENDBRANCH   1  20
TORSDOF 10
ENDMDL
MODEL 2
REMARK VINA RESULT:      -9.6      1.554      2.645
REMARK  10 active torsions:
REMARK  status: ('A' for Active; 'I' for Inactive)
REMARK    1  A    between atoms: C_2  and  C_3 
REMARK    2  A    between atoms: C_3  and  C_4 
REMARK    3  A    between atoms: C_4  and  O_5 
REMARK    4  A    between atoms: O_5  and  C_6 
REMARK    5  A    between atoms: C_8  and  C_9 
REMARK       I    between atoms: C_9  and  N_10 
REMARK    6  A    between atoms: N_10  and  C_11 
REMARK    7  A    between atoms: C_11  and  N_12 
REMARK    8  A    between atoms: N_12  and  C_13 
REMARK    9  A    between atoms: C_15  and  O_16 
REMARK   10  A    between atoms: C_17  and  C_18 
ROOT
HETATM    1  N   UNL     1      24.354  45.613  49.188  1.00  0.00    -0.333 N 
HETATM    2  H   UNL     1      24.716  46.129  48.382  1.00  0.00     0.168 HD
ENDROOT
BRANCH   1   3
HETATM    3  C   UNL     1      23.143  45.017  48.937  1.00  0.00     0.179 C 
HETATM    4  S   UNL     1      22.812  43.460  48.429  1.00  0.00    -0.040 SA
BRANCH   3   5
HETATM    5  N   UNL     1      22.041  45.830  49.156  1.00  0.00    -0.299 N 
HETATM    6  C   UNL     1      21.644  46.957  48.447  1.00  0.00     0.257 C 
HETATM    7  O   UNL     1      22.393  47.557  47.679  1.00  0.00    -0.267 OA
HETATM    8  H   UNL     1      21.448  45.482  49.895  1.00  0.00     0.171 HD
BRANCH   6   9
HETATM    9  C   UNL     1      20.265  47.471  48.703  1.00  0.00     0.035 A 
HETATM   10  C   UNL     1      20.010  48.578  49.521  1.00  0.00     0.053 A 
HETATM   11  C   UNL     1      18.695  49.005  49.710  1.00  0.00     0.069 A 
HETATM   12  C   UNL     1      17.624  48.317  49.148  1.00  0.00     0.037 A 
HETATM   13  C   UNL     1      17.872  47.201  48.352  1.00  0.00     0.004 A 
HETATM   14  C   UNL     1      19.186  46.783  48.126  1.00  0.00     0.017 A 
BRANCH  11  15
HETATM   15  O   UNL     1      18.449  50.080  50.518  1.00  0.00    -0.351 OA
BRANCH  15  16
HETATM   16  C   UNL     1      17.561  51.010  49.884  1.00  0.00     0.175 C 
BRANCH  16  17
HETATM   17  C   UNL     1      18.277  52.346  49.697  1.00  0.00     0.026 C 
BRANCH  17  18
HETATM   18  C   UNL     1      19.091  52.394  48.402  1.00  0.00    -0.002 C 
HETATM   19  C   UNL     1      18.389  51.646  47.280  1.00  0.00     0.005 C 
ENDBRANCH  17  18
ENDBRANCH  16  17
ENDBRANCH  15  16
ENDBRANCH  11  15
ENDBRANCH   6   9
ENDBRANCH   3   5
ENDBRANCH   1   3
BRANCH   1  20
HETATM   20  C   UNL     1      25.170  45.680  50.337  1.00  0.00     0.036 A 
HETATM   21  C   UNL     1      25.044  46.627  51.351  1.00  0.00     0.067 A 
HETATM   22  C   UNL     1      25.859  46.564  52.493  1.00  0.00     0.082 A 
HETATM   23  C   UNL     1      26.813  45.549  52.652  1.00  0.00     0.050 A 
HETATM   24  C   UNL     1      26.941  44.611  51.617  1.00  0.00     0.021 A 
HETATM   25  C   UNL     1      26.123  44.666  50.483  1.00  0.00     0.030 A 
BRANCH  22  26
HETATM   26  O   UNL     1      25.703  47.526  53.457  1.00  0.00    -0.360 OA
HETATM   27  H   UNL     1      24.797  47.493  53.806  1.00  0.00     0.217 HD
ENDBRANCH  22  26
BRANCH  23  28
HETATM   28  C   UNL     1      27.666  45.395  53.831  1.00  0.00     0.183 A 
HETATM   29  O   UNL     1      28.594  44.385  53.811  1.00  0.00    -0.289 OA
HETATM   30  C   UNL     1      29.278  44.537  54.979  1.00  0.00     0.107 A 
HETATM   31  C   UNL     1      28.746  45.626  55.644  1.00  0.00     0.093 A 
HETATM   32  C   UNL     1      30.333  43.759  55.442  1.00  0.00     0.046 A 
HETATM   33  N   UNL     1      27.729  46.172  54.903  1.00  0.00    -0.221 NA
HETATM   34  C   UNL     1      29.291  45.997  56.877  1.00  0.00     0.035 A 
HETATM   35  C   UNL     1      30.360  45.241  57.384  1.00  0.00     0.009 A 
HETATM   36  C   UNL     1      30.876  44.133  56.685  1.00  0.00    -0.059 A 
HETATM   37  C   UNL     1      32.039  43.373  57.256  1.00  0.00     0.048 C 
ENDBRANCH  23  28
ENDBRANCH   1  20
TORSDOF 10
ENDMDL
MODEL 3
REMARK VINA RESULT:      -9.6      1.895      2.562
REMARK  10 active torsions:
REMARK  status: ('A' for Active; 'I' for Inactive)
REMARK    1  A    between atoms: C_2  and  C_3 
REMARK    2  A    between atoms: C_3  and  C_4 
REMARK    3  A    between atoms: C_4  and  O_5 
REMARK    4  A    between atoms: O_5  and  C_6 
REMARK    5  A    between atoms: C_8  and  C_9 
REMARK       I    between atoms: C_9  and  N_10 
REMARK    6  A    between atoms: N_10  and  C_11 
REMARK    7  A    between atoms: C_11  and  N_12 
REMARK    8  A    between atoms: N_12  and  C_13 
REMARK    9  A    between atoms: C_15  and  O_16 
REMARK   10  A    between atoms: C_17  and  C_18 
ROOT
HETATM    1  N   UNL     1      23.976  44.607  48.679  1.00  0.00    -0.333 N 
HETATM    2  H   UNL     1      24.393  44.216  47.831  1.00  0.00     0.168 HD
ENDROOT
BRANCH   1   3
HETATM    3  C   UNL     1      22.699  45.070  48.477  1.00  0.00     0.179 C 
HETATM    4  S   UNL     1      21.390  44.302  47.777  1.00  0.00    -0.040 SA
BRANCH   3   5
HETATM    5  N   UNL     1      22.470  46.358  48.939  1.00  0.00    -0.299 N 
HETATM    6  C   UNL     1      22.085  47.480  48.215  1.00  0.00     0.257 C 
HETATM    7  O   UNL     1      22.166  47.540  46.990  1.00  0.00    -0.267 OA
HETATM    8  H   UNL     1      22.544  46.424  49.943  1.00  0.00     0.171 HD
BRANCH   6   9
HETATM    9  C   UNL     1      21.620  48.665  48.995  1.00  0.00     0.035 A 
HETATM   10  C   UNL     1      20.307  48.799  49.458  1.00  0.00     0.053 A 
HETATM   11  C   UNL     1      19.945  49.933  50.186  1.00  0.00     0.069 A 
HETATM   12  C   UNL     1      20.851  50.966  50.410  1.00  0.00     0.037 A 
HETATM   13  C   UNL     1      22.153  50.848  49.932  1.00  0.00     0.004 A 
HETATM   14  C   UNL     1      22.538  49.702  49.231  1.00  0.00     0.017 A 
BRANCH  11  15
HETATM   15  O   UNL     1      18.659  50.065  50.628  1.00  0.00    -0.351 OA
BRANCH  15  16
HETATM   16  C   UNL     1      17.744  50.168  49.529  1.00  0.00     0.175 C 
BRANCH  16  17
HETATM   17  C   UNL     1      16.964  51.476  49.642  1.00  0.00     0.026 C 
BRANCH  17  18
HETATM   18  C   UNL     1      17.820  52.696  49.292  1.00  0.00    -0.002 C 
HETATM   19  C   UNL     1      18.583  52.482  47.994  1.00  0.00     0.005 C 
ENDBRANCH  17  18
ENDBRANCH  16  17
ENDBRANCH  15  16
ENDBRANCH  11  15
ENDBRANCH   6   9
ENDBRANCH   3   5
ENDBRANCH   1   3
BRANCH   1  20
HETATM   20  C   UNL     1      24.825  44.597  49.805  1.00  0.00     0.036 A 
HETATM   21  C   UNL     1      24.441  44.223  51.091  1.00  0.00     0.067 A 
HETATM   22  C   UNL     1      25.381  44.176  52.132  1.00  0.00     0.082 A 
HETATM   23  C   UNL     1      26.730  44.492  51.912  1.00  0.00     0.050 A 
HETATM   24  C   UNL     1      27.100  44.882  50.617  1.00  0.00     0.021 A 
HETATM   25  C   UNL     1      26.166  44.921  49.575  1.00  0.00     0.030 A 
BRANCH  22  26
HETATM   26  O   UNL     1      24.950  43.813  53.382  1.00  0.00    -0.360 OA
HETATM   27  H   UNL     1      25.715  43.604  53.942  1.00  0.00     0.217 HD
ENDBRANCH  22  26
BRANCH  23  28
HETATM   28  C   UNL     1      27.772  44.424  52.937  1.00  0.00     0.183 A 
HETATM   29  O   UNL     1      27.702  45.324  53.970  1.00  0.00    -0.289 OA
HETATM   30  C   UNL     1      28.731  44.973  54.789  1.00  0.00     0.107 A 
HETATM   31  C   UNL     1      29.367  43.881  54.228  1.00  0.00     0.093 A 
HETATM   32  C   UNL     1      29.095  45.577  55.987  1.00  0.00     0.046 A 
HETATM   33  N   UNL     1      28.744  43.532  53.057  1.00  0.00    -0.221 NA
HETATM   34  C   UNL     1      30.462  43.321  54.893  1.00  0.00     0.035 A 
HETATM   35  C   UNL     1      30.865  43.898  56.108  1.00  0.00     0.009 A 
HETATM   36  C   UNL     1      30.199  45.014  56.651  1.00  0.00    -0.059 A 
HETATM   37  C   UNL     1      30.652  45.578  57.968  1.00  0.00     0.048 C 
ENDBRANCH  23  28
ENDBRANCH   1  20
TORSDOF 10
ENDMDL
MODEL 4
REMARK VINA RESULT:      -9.4      1.521      2.458
REMARK  10 active torsions:
REMARK  status: ('A' for Active; 'I' for Inactive)
REMARK    1  A    between atoms: C_2  and  C_3 
REMARK    2  A    between atoms: C_3  and  C_4 
REMARK    3  A    between atoms: C_4  and  O_5 
REMARK    4  A    between atoms: O_5  and  C_6 
REMARK    5  A    between atoms: C_8  and  C_9 
REMARK       I    between atoms: C_9  and  N_10 
REMARK    6  A    between atoms: N_10  and  C_11 
REMARK    7  A    between atoms: C_11  and  N_12 
REMARK    8  A    between atoms: N_12  and  C_13 
REMARK    9  A    between atoms: C_15  and  O_16 
REMARK   10  A    between atoms: C_17  and  C_18 
ROOT
HETATM    1  N   UNL     1      24.000  46.801  49.860  1.00  0.00    -0.333 N 
HETATM    2  H   UNL     1      23.432  46.058  49.446  1.00  0.00     0.168 HD
ENDROOT
BRANCH   1   3
HETATM    3  C   UNL     1      23.809  48.017  49.253  1.00  0.00     0.179 C 
HETATM    4  S   UNL     1      24.934  49.174  48.816  1.00  0.00    -0.040 SA
BRANCH   3   5
HETATM    5  N   UNL     1      22.488  48.312  48.948  1.00  0.00    -0.299 N 
HETATM    6  C   UNL     1      21.676  47.740  47.977  1.00  0.00     0.257 C 
HETATM    7  O   UNL     1      22.123  47.066  47.051  1.00  0.00    -0.267 OA
HETATM    8  H   UNL     1      22.091  48.991  49.581  1.00  0.00     0.171 HD
BRANCH   6   9
HETATM    9  C   UNL     1      20.214  48.030  48.055  1.00  0.00     0.035 A 
HETATM   10  C   UNL     1      19.562  48.885  47.159  1.00  0.00     0.053 A 
HETATM   11  C   UNL     1      18.191  49.104  47.290  1.00  0.00     0.069 A 
HETATM   12  C   UNL     1      17.465  48.536  48.332  1.00  0.00     0.037 A 
HETATM   13  C   UNL     1      18.113  47.702  49.240  1.00  0.00     0.004 A 
HETATM   14  C   UNL     1      19.480  47.446  49.100  1.00  0.00     0.017 A 
BRANCH  11  15
HETATM   15  O   UNL     1      17.561  49.949  46.420  1.00  0.00    -0.351 OA
BRANCH  15  16
HETATM   16  C   UNL     1      18.252  51.201  46.324  1.00  0.00     0.175 C 
BRANCH  16  17
HETATM   17  C   UNL     1      17.835  52.099  47.487  1.00  0.00     0.026 C 
BRANCH  17  18
HETATM   18  C   UNL     1      19.025  52.519  48.353  1.00  0.00    -0.002 C 
HETATM   19  C   UNL     1      19.072  51.729  49.651  1.00  0.00     0.005 C 
ENDBRANCH  17  18
ENDBRANCH  16  17
ENDBRANCH  15  16
ENDBRANCH  11  15
ENDBRANCH   6   9
ENDBRANCH   3   5
ENDBRANCH   1   3
BRANCH   1  20
HETATM   20  C   UNL     1      24.843  46.375  50.908  1.00  0.00     0.036 A 
HETATM   21  C   UNL     1      25.496  45.146  50.957  1.00  0.00     0.067 A 
HETATM   22  C   UNL     1      26.374  44.844  52.009  1.00  0.00     0.082 A 
HETATM   23  C   UNL     1      26.628  45.767  53.034  1.00  0.00     0.050 A 
HETATM   24  C   UNL     1      25.952  46.995  52.982  1.00  0.00     0.021 A 
HETATM   25  C   UNL     1      25.083  47.301  51.928  1.00  0.00     0.030 A 
BRANCH  22  26
HETATM   26  O   UNL     1      26.984  43.616  52.017  1.00  0.00    -0.360 OA
HETATM   27  H   UNL     1      27.746  43.635  52.618  1.00  0.00     0.217 HD
ENDBRANCH  22  26
BRANCH  23  28
HETATM   28  C   UNL     1      27.561  45.540  54.138  1.00  0.00     0.183 A 
HETATM   29  O   UNL     1      28.483  44.535  53.989  1.00  0.00    -0.289 OA
HETATM   30  C   UNL     1      29.248  44.614  55.113  1.00  0.00     0.107 A 
HETATM   31  C   UNL     1      28.767  45.659  55.881  1.00  0.00     0.093 A 
HETATM   32  C   UNL     1      30.330  43.810  55.451  1.00  0.00     0.046 A 
HETATM   33  N   UNL     1      27.703  46.249  55.249  1.00  0.00    -0.221 NA
HETATM   34  C   UNL     1      29.400  45.953  57.094  1.00  0.00     0.035 A 
HETATM   35  C   UNL     1      30.498  45.166  57.475  1.00  0.00     0.009 A 
HETATM   36  C   UNL     1      30.960  44.105  56.673  1.00  0.00    -0.059 A 
HETATM   37  C   UNL     1      32.158  43.312  57.112  1.00  0.00     0.048 C 
ENDBRANCH  23  28
ENDBRANCH   1  20
TORSDOF 10
ENDMDL
MODEL 5
REMARK VINA RESULT:      -9.4      2.288      4.477
REMARK  10 active torsions:
REMARK  status: ('A' for Active; 'I' for Inactive)
REMARK    1  A    between atoms: C_2  and  C_3 
REMARK    2  A    between atoms: C_3  and  C_4 
REMARK    3  A    between atoms: C_4  and  O_5 
REMARK    4  A    between atoms: O_5  and  C_6 
REMARK    5  A    between atoms: C_8  and  C_9 
REMARK       I    between atoms: C_9  and  N_10 
REMARK    6  A    between atoms: N_10  and  C_11 
REMARK    7  A    between atoms: C_11  and  N_12 
REMARK    8  A    between atoms: N_12  and  C_13 
REMARK    9  A    between atoms: C_15  and  O_16 
REMARK   10  A    between atoms: C_17  and  C_18 
ROOT
HETATM    1  N   UNL     1      22.856  44.332  49.841  1.00  0.00    -0.333 N 
HETATM    2  H   UNL     1      22.074  43.875  50.315  1.00  0.00     0.168 HD
ENDROOT
BRANCH   1   3
HETATM    3  C   UNL     1      22.584  44.623  48.527  1.00  0.00     0.179 C 
HETATM    4  S   UNL     1      22.285  43.585  47.251  1.00  0.00    -0.040 SA
BRANCH   3   5
HETATM    5  N   UNL     1      22.538  45.977  48.230  1.00  0.00    -0.299 N 
HETATM    6  C   UNL     1      21.530  46.890  48.514  1.00  0.00     0.257 C 
HETATM    7  O   UNL     1      20.393  46.547  48.835  1.00  0.00    -0.267 OA
HETATM    8  H   UNL     1      23.394  46.307  47.810  1.00  0.00     0.171 HD
BRANCH   6   9
HETATM    9  C   UNL     1      21.858  48.338  48.351  1.00  0.00     0.035 A 
HETATM   10  C   UNL     1      23.153  48.794  48.080  1.00  0.00     0.053 A 
HETATM   11  C   UNL     1      23.383  50.163  47.933  1.00  0.00     0.069 A 
HETATM   12  C   UNL     1      22.361  51.090  48.111  1.00  0.00     0.037 A 
HETATM   13  C   UNL     1      21.076  50.642  48.403  1.00  0.00     0.004 A 
HETATM   14  C   UNL     1      20.823  49.272  48.518  1.00  0.00     0.017 A 
BRANCH  11  15
HETATM   15  O   UNL     1      24.651  50.606  47.680  1.00  0.00    -0.351 OA
BRANCH  15  16
HETATM   16  C   UNL     1      25.625  49.618  48.043  1.00  0.00     0.175 C 
BRANCH  16  17
HETATM   17  C   UNL     1      26.930  50.312  48.428  1.00  0.00     0.026 C 
BRANCH  17  18
HETATM   18  C   UNL     1      27.880  49.384  49.187  1.00  0.00    -0.002 C 
HETATM   19  C   UNL     1      27.336  47.965  49.251  1.00  0.00     0.005 C 
ENDBRANCH  17  18
ENDBRANCH  16  17
ENDBRANCH  15  16
ENDBRANCH  11  15
ENDBRANCH   6   9
ENDBRANCH   3   5
ENDBRANCH   1   3
BRANCH   1  20
HETATM   20  C   UNL     1      24.002  44.509  50.644  1.00  0.00     0.036 A 
HETATM   21  C   UNL     1      24.479  45.738  51.095  1.00  0.00     0.067 A 
HETATM   22  C   UNL     1      25.588  45.804  51.953  1.00  0.00     0.082 A 
HETATM   23  C   UNL     1      26.242  44.642  52.389  1.00  0.00     0.050 A 
HETATM   24  C   UNL     1      25.762  43.413  51.914  1.00  0.00     0.021 A 
HETATM   25  C   UNL     1      24.651  43.345  51.067  1.00  0.00     0.030 A 
BRANCH  22  26
HETATM   26  O   UNL     1      26.024  47.038  52.359  1.00  0.00    -0.360 OA
HETATM   27  H   UNL     1      26.889  47.225  51.960  1.00  0.00     0.217 HD
ENDBRANCH  22  26
BRANCH  23  28
HETATM   28  C   UNL     1      27.375  44.630  53.315  1.00  0.00     0.183 A 
HETATM   29  O   UNL     1      27.362  45.543  54.339  1.00  0.00    -0.289 OA
HETATM   30  C   UNL     1      28.475  45.245  55.066  1.00  0.00     0.107 A 
HETATM   31  C   UNL     1      29.100  44.170  54.462  1.00  0.00     0.093 A 
HETATM   32  C   UNL     1      28.921  45.881  56.218  1.00  0.00     0.046 A 
HETATM   33  N   UNL     1      28.389  43.778  53.356  1.00  0.00    -0.221 NA
HETATM   34  C   UNL     1      30.273  43.663  55.032  1.00  0.00     0.035 A 
HETATM   35  C   UNL     1      30.760  44.274  56.198  1.00  0.00     0.009 A 
HETATM   36  C   UNL     1      30.103  45.372  56.786  1.00  0.00    -0.059 A 
HETATM   37  C   UNL     1      30.650  45.973  58.049  1.00  0.00     0.048 C 
ENDBRANCH  23  28
ENDBRANCH   1  20
TORSDOF 10
ENDMDL
MODEL 6
REMARK VINA RESULT:      -9.4      1.485      2.084
REMARK  10 active torsions:
REMARK  status: ('A' for Active; 'I' for Inactive)
REMARK    1  A    between atoms: C_2  and  C_3 
REMARK    2  A    between atoms: C_3  and  C_4 
REMARK    3  A    between atoms: C_4  and  O_5 
REMARK    4  A    between atoms: O_5  and  C_6 
REMARK    5  A    between atoms: C_8  and  C_9 
REMARK       I    between atoms: C_9  and  N_10 
REMARK    6  A    between atoms: N_10  and  C_11 
REMARK    7  A    between atoms: C_11  and  N_12 
REMARK    8  A    between atoms: N_12  and  C_13 
REMARK    9  A    between atoms: C_15  and  O_16 
REMARK   10  A    between atoms: C_17  and  C_18 
ROOT
HETATM    1  N   UNL     1      24.260  45.793  49.192  1.00  0.00    -0.333 N 
HETATM    2  H   UNL     1      24.765  45.863  48.305  1.00  0.00     0.168 HD
ENDROOT
BRANCH   1   3
HETATM    3  C   UNL     1      22.900  45.713  49.022  1.00  0.00     0.179 C 
HETATM    4  S   UNL     1      21.945  44.375  48.720  1.00  0.00    -0.040 SA
BRANCH   3   5
HETATM    5  N   UNL     1      22.229  46.922  49.137  1.00  0.00    -0.299 N 
HETATM    6  C   UNL     1      22.602  48.167  48.646  1.00  0.00     0.257 C 
HETATM    7  O   UNL     1      23.745  48.418  48.269  1.00  0.00    -0.267 OA
HETATM    8  H   UNL     1      21.331  46.822  49.587  1.00  0.00     0.171 HD
BRANCH   6   9
HETATM    9  C   UNL     1      21.562  49.239  48.650  1.00  0.00     0.035 A 
HETATM   10  C   UNL     1      20.196  48.968  48.790  1.00  0.00     0.053 A 
HETATM   11  C   UNL     1      19.282  50.023  48.791  1.00  0.00     0.069 A 
HETATM   12  C   UNL     1      19.695  51.337  48.595  1.00  0.00     0.037 A 
HETATM   13  C   UNL     1      21.051  51.609  48.433  1.00  0.00     0.004 A 
HETATM   14  C   UNL     1      21.981  50.567  48.465  1.00  0.00     0.017 A 
BRANCH  11  15
HETATM   15  O   UNL     1      17.948  49.753  48.916  1.00  0.00    -0.351 OA
BRANCH  15  16
HETATM   16  C   UNL     1      17.241  50.884  49.443  1.00  0.00     0.175 C 
BRANCH  16  17
HETATM   17  C   UNL     1      15.912  51.037  48.707  1.00  0.00     0.026 C 
BRANCH  17  18
HETATM   18  C   UNL     1      15.425  52.487  48.680  1.00  0.00    -0.002 C 
HETATM   19  C   UNL     1      15.238  53.034  50.087  1.00  0.00     0.005 C 
ENDBRANCH  17  18
ENDBRANCH  16  17
ENDBRANCH  15  16
ENDBRANCH  11  15
ENDBRANCH   6   9
ENDBRANCH   3   5
ENDBRANCH   1   3
BRANCH   1  20
HETATM   20  C   UNL     1      25.082  45.832  50.336  1.00  0.00     0.036 A 
HETATM   21  C   UNL     1      24.976  46.766  51.365  1.00  0.00     0.067 A 
HETATM   22  C   UNL     1      25.795  46.675  52.501  1.00  0.00     0.082 A 
HETATM   23  C   UNL     1      26.735  45.644  52.641  1.00  0.00     0.050 A 
HETATM   24  C   UNL     1      26.843  44.720  51.592  1.00  0.00     0.021 A 
HETATM   25  C   UNL     1      26.021  44.802  50.463  1.00  0.00     0.030 A 
BRANCH  22  26
HETATM   26  O   UNL     1      25.659  47.626  53.479  1.00  0.00    -0.360 OA
HETATM   27  H   UNL     1      25.133  47.266  54.212  1.00  0.00     0.217 HD
ENDBRANCH  22  26
BRANCH  23  28
HETATM   28  C   UNL     1      27.592  45.461  53.813  1.00  0.00     0.183 A 
HETATM   29  O   UNL     1      28.542  44.473  53.752  1.00  0.00    -0.289 OA
HETATM   30  C   UNL     1      29.223  44.592  54.926  1.00  0.00     0.107 A 
HETATM   31  C   UNL     1      28.668  45.642  55.634  1.00  0.00     0.093 A 
HETATM   32  C   UNL     1      30.295  43.820  55.357  1.00  0.00     0.046 A 
HETATM   33  N   UNL     1      27.640  46.196  54.915  1.00  0.00    -0.221 NA
HETATM   34  C   UNL     1      29.206  45.975  56.881  1.00  0.00     0.035 A 
HETATM   35  C   UNL     1      30.291  45.222  57.357  1.00  0.00     0.009 A 
HETATM   36  C   UNL     1      30.830  44.154  56.614  1.00  0.00    -0.059 A 
HETATM   37  C   UNL     1      32.010  43.397  57.155  1.00  0.00     0.048 C 
ENDBRANCH  23  28
ENDBRANCH   1  20
TORSDOF 10
ENDMDL
MODEL 7
REMARK VINA RESULT:      -9.3      1.561      2.212
REMARK  10 active torsions:
REMARK  status: ('A' for Active; 'I' for Inactive)
REMARK    1  A    between atoms: C_2  and  C_3 
REMARK    2  A    between atoms: C_3  and  C_4 
REMARK    3  A    between atoms: C_4  and  O_5 
REMARK    4  A    between atoms: O_5  and  C_6 
REMARK    5  A    between atoms: C_8  and  C_9 
REMARK       I    between atoms: C_9  and  N_10 
REMARK    6  A    between atoms: N_10  and  C_11 
REMARK    7  A    between atoms: C_11  and  N_12 
REMARK    8  A    between atoms: N_12  and  C_13 
REMARK    9  A    between atoms: C_15  and  O_16 
REMARK   10  A    between atoms: C_17  and  C_18 
ROOT
HETATM    1  N   UNL     1      23.612  46.440  49.095  1.00  0.00    -0.333 N 
HETATM    2  H   UNL     1      24.157  46.839  48.328  1.00  0.00     0.168 HD
ENDROOT
BRANCH   1   3
HETATM    3  C   UNL     1      22.279  46.316  48.791  1.00  0.00     0.179 C 
HETATM    4  S   UNL     1      21.387  44.938  48.472  1.00  0.00    -0.040 SA
BRANCH   3   5
HETATM    5  N   UNL     1      21.577  47.512  48.762  1.00  0.00    -0.299 N 
HETATM    6  C   UNL     1      21.887  48.680  48.077  1.00  0.00     0.257 C 
HETATM    7  O   UNL     1      23.003  48.900  47.610  1.00  0.00    -0.267 OA
HETATM    8  H   UNL     1      20.705  47.458  49.268  1.00  0.00     0.171 HD
BRANCH   6   9
HETATM    9  C   UNL     1      20.815  49.715  47.978  1.00  0.00     0.035 A 
HETATM   10  C   UNL     1      19.671  49.548  47.190  1.00  0.00     0.053 A 
HETATM   11  C   UNL     1      18.708  50.557  47.151  1.00  0.00     0.069 A 
HETATM   12  C   UNL     1      18.891  51.755  47.834  1.00  0.00     0.037 A 
HETATM   13  C   UNL     1      20.038  51.937  48.601  1.00  0.00     0.004 A 
HETATM   14  C   UNL     1      20.994  50.920  48.677  1.00  0.00     0.017 A 
BRANCH  11  15
HETATM   15  O   UNL     1      17.597  50.394  46.372  1.00  0.00    -0.351 OA
BRANCH  15  16
HETATM   16  C   UNL     1      17.944  49.878  45.080  1.00  0.00     0.175 C 
BRANCH  16  17
HETATM   17  C   UNL     1      18.078  51.035  44.092  1.00  0.00     0.026 C 
BRANCH  17  18
HETATM   18  C   UNL     1      18.759  50.612  42.789  1.00  0.00    -0.002 C 
HETATM   19  C   UNL     1      18.714  51.725  41.754  1.00  0.00     0.005 C 
ENDBRANCH  17  18
ENDBRANCH  16  17
ENDBRANCH  15  16
ENDBRANCH  11  15
ENDBRANCH   6   9
ENDBRANCH   3   5
ENDBRANCH   1   3
BRANCH   1  20
HETATM   20  C   UNL     1      24.360  46.159  50.257  1.00  0.00     0.036 A 
HETATM   21  C   UNL     1      24.315  44.960  50.965  1.00  0.00     0.067 A 
HETATM   22  C   UNL     1      25.155  44.750  52.070  1.00  0.00     0.082 A 
HETATM   23  C   UNL     1      26.067  45.730  52.489  1.00  0.00     0.050 A 
HETATM   24  C   UNL     1      26.091  46.939  51.778  1.00  0.00     0.021 A 
HETATM   25  C   UNL     1      25.261  47.146  50.671  1.00  0.00     0.030 A 
BRANCH  22  26
HETATM   26  O   UNL     1      25.064  43.557  52.739  1.00  0.00    -0.360 OA
HETATM   27  H   UNL     1      24.299  43.058  52.411  1.00  0.00     0.217 HD
ENDBRANCH  22  26
BRANCH  23  28
HETATM   28  C   UNL     1      27.002  45.566  53.602  1.00  0.00     0.183 A 
HETATM   29  O   UNL     1      27.895  44.526  53.529  1.00  0.00    -0.289 OA
HETATM   30  C   UNL     1      28.670  44.673  54.639  1.00  0.00     0.107 A 
HETATM   31  C   UNL     1      28.224  45.789  55.323  1.00  0.00     0.093 A 
HETATM   32  C   UNL     1      29.733  43.869  55.033  1.00  0.00     0.046 A 
HETATM   33  N   UNL     1      27.172  46.356  54.652  1.00  0.00    -0.221 NA
HETATM   34  C   UNL     1      28.874  46.160  56.505  1.00  0.00     0.035 A 
HETATM   35  C   UNL     1      29.954  45.377  56.942  1.00  0.00     0.009 A 
HETATM   36  C   UNL     1      30.380  44.242  56.225  1.00  0.00    -0.059 A 
HETATM   37  C   UNL     1      31.559  43.454  56.719  1.00  0.00     0.048 C 
ENDBRANCH  23  28
ENDBRANCH   1  20
TORSDOF 10
ENDMDL
MODEL 8
REMARK VINA RESULT:      -9.3      2.637      4.610
REMARK  10 active torsions:
REMARK  status: ('A' for Active; 'I' for Inactive)
REMARK    1  A    between atoms: C_2  and  C_3 
REMARK    2  A    between atoms: C_3  and  C_4 
REMARK    3  A    between atoms: C_4  and  O_5 
REMARK    4  A    between atoms: O_5  and  C_6 
REMARK    5  A    between atoms: C_8  and  C_9 
REMARK       I    between atoms: C_9  and  N_10 
REMARK    6  A    between atoms: N_10  and  C_11 
REMARK    7  A    between atoms: C_11  and  N_12 
REMARK    8  A    between atoms: N_12  and  C_13 
REMARK    9  A    between atoms: C_15  and  O_16 
REMARK   10  A    between atoms: C_17  and  C_18 
ROOT
HETATM    1  N   UNL     1      24.090  42.519  48.594  1.00  0.00    -0.333 N 
HETATM    2  H   UNL     1      23.802  41.540  48.660  1.00  0.00     0.168 HD
ENDROOT
BRANCH   1   3
HETATM    3  C   UNL     1      23.696  43.111  47.419  1.00  0.00     0.179 C 
HETATM    4  S   UNL     1      23.742  42.508  45.861  1.00  0.00    -0.040 SA
BRANCH   3   5
HETATM    5  N   UNL     1      23.172  44.387  47.560  1.00  0.00    -0.299 N 
HETATM    6  C   UNL     1      22.021  44.780  48.232  1.00  0.00     0.257 C 
HETATM    7  O   UNL     1      21.145  43.986  48.569  1.00  0.00    -0.267 OA
HETATM    8  H   UNL     1      23.771  45.094  47.160  1.00  0.00     0.171 HD
BRANCH   6   9
HETATM    9  C   UNL     1      21.844  46.242  48.482  1.00  0.00     0.035 A 
HETATM   10  C   UNL     1      22.886  47.065  48.925  1.00  0.00     0.053 A 
HETATM   11  C   UNL     1      22.648  48.425  49.131  1.00  0.00     0.069 A 
HETATM   12  C   UNL     1      21.378  48.969  48.962  1.00  0.00     0.037 A 
HETATM   13  C   UNL     1      20.334  48.150  48.543  1.00  0.00     0.004 A 
HETATM   14  C   UNL     1      20.566  46.793  48.299  1.00  0.00     0.017 A 
BRANCH  11  15
HETATM   15  O   UNL     1      23.664  49.223  49.574  1.00  0.00    -0.351 OA
BRANCH  15  16
HETATM   16  C   UNL     1      24.937  48.727  49.140  1.00  0.00     0.175 C 
BRANCH  16  17
HETATM   17  C   UNL     1      25.643  49.799  48.313  1.00  0.00     0.026 C 
BRANCH  17  18
HETATM   18  C   UNL     1      27.128  49.918  48.660  1.00  0.00    -0.002 C 
HETATM   19  C   UNL     1      27.711  48.574  49.071  1.00  0.00     0.005 C 
ENDBRANCH  17  18
ENDBRANCH  16  17
ENDBRANCH  15  16
ENDBRANCH  11  15
ENDBRANCH   6   9
ENDBRANCH   3   5
ENDBRANCH   1   3
BRANCH   1  20
HETATM   20  C   UNL     1      24.833  42.983  49.699  1.00  0.00     0.036 A 
HETATM   21  C   UNL     1      24.288  43.587  50.831  1.00  0.00     0.067 A 
HETATM   22  C   UNL     1      25.107  43.948  51.912  1.00  0.00     0.082 A 
HETATM   23  C   UNL     1      26.488  43.708  51.893  1.00  0.00     0.050 A 
HETATM   24  C   UNL     1      27.026  43.114  50.742  1.00  0.00     0.021 A 
HETATM   25  C   UNL     1      26.211  42.744  49.667  1.00  0.00     0.030 A 
BRANCH  22  26
HETATM   26  O   UNL     1      24.523  44.549  52.997  1.00  0.00    -0.360 OA
HETATM   27  H   UNL     1      23.705  44.994  52.722  1.00  0.00     0.217 HD
ENDBRANCH  22  26
BRANCH  23  28
HETATM   28  C   UNL     1      27.396  44.017  52.998  1.00  0.00     0.183 A 
HETATM   29  O   UNL     1      28.304  43.053  53.358  1.00  0.00    -0.289 OA
HETATM   30  C   UNL     1      29.048  43.643  54.334  1.00  0.00     0.107 A 
HETATM   31  C   UNL     1      28.570  44.928  54.514  1.00  0.00     0.093 A 
HETATM   32  C   UNL     1      30.111  43.084  55.034  1.00  0.00     0.046 A 
HETATM   33  N   UNL     1      27.528  45.161  53.653  1.00  0.00    -0.221 NA
HETATM   34  C   UNL     1      29.183  45.750  55.465  1.00  0.00     0.035 A 
HETATM   35  C   UNL     1      30.261  45.227  56.196  1.00  0.00     0.009 A 
HETATM   36  C   UNL     1      30.721  43.912  55.993  1.00  0.00    -0.059 A 
HETATM   37  C   UNL     1      31.898  43.409  56.781  1.00  0.00     0.048 C 
ENDBRANCH  23  28
ENDBRANCH   1  20
TORSDOF 10
ENDMDL
MODEL 9
REMARK VINA RESULT:      -9.3      2.247      2.933
REMARK  10 active torsions:
REMARK  status: ('A' for Active; 'I' for Inactive)
REMARK    1  A    between atoms: C_2  and  C_3 
REMARK    2  A    between atoms: C_3  and  C_4 
REMARK    3  A    between atoms: C_4  and  O_5 
REMARK    4  A    between atoms: O_5  and  C_6 
REMARK    5  A    between atoms: C_8  and  C_9 
REMARK       I    between atoms: C_9  and  N_10 
REMARK    6  A    between atoms: N_10  and  C_11 
REMARK    7  A    between atoms: C_11  and  N_12 
REMARK    8  A    between atoms: N_12  and  C_13 
REMARK    9  A    between atoms: C_15  and  O_16 
REMARK   10  A    between atoms: C_17  and  C_18 
ROOT
HETATM    1  N   UNL     1      23.796  47.011  50.028  1.00  0.00    -0.333 N 
HETATM    2  H   UNL     1      22.998  46.417  49.792  1.00  0.00     0.168 HD
ENDROOT
BRANCH   1   3
HETATM    3  C   UNL     1      23.742  48.240  49.420  1.00  0.00     0.179 C 
HETATM    4  S   UNL     1      24.981  49.167  48.787  1.00  0.00    -0.040 SA
BRANCH   3   5
HETATM    5  N   UNL     1      22.466  48.774  49.305  1.00  0.00    -0.299 N 
HETATM    6  C   UNL     1      22.041  50.065  49.595  1.00  0.00     0.257 C 
HETATM    7  O   UNL     1      22.705  50.847  50.271  1.00  0.00    -0.267 OA
HETATM    8  H   UNL     1      21.813  48.123  48.896  1.00  0.00     0.171 HD
BRANCH   6   9
HETATM    9  C   UNL     1      20.687  50.461  49.104  1.00  0.00     0.035 A 
HETATM   10  C   UNL     1      19.613  50.712  49.965  1.00  0.00     0.053 A 
HETATM   11  C   UNL     1      18.378  51.084  49.435  1.00  0.00     0.069 A 
HETATM   12  C   UNL     1      18.174  51.153  48.060  1.00  0.00     0.037 A 
HETATM   13  C   UNL     1      19.233  50.881  47.198  1.00  0.00     0.004 A 
HETATM   14  C   UNL     1      20.485  50.541  47.717  1.00  0.00     0.017 A 
BRANCH  11  15
HETATM   15  O   UNL     1      17.329  51.319  50.278  1.00  0.00    -0.351 OA
BRANCH  15  16
HETATM   16  C   UNL     1      16.293  52.062  49.621  1.00  0.00     0.175 C 
BRANCH  16  17
HETATM   17  C   UNL     1      16.389  53.531  50.027  1.00  0.00     0.026 C 
BRANCH  17  18
HETATM   18  C   UNL     1      15.136  54.014  50.761  1.00  0.00    -0.002 C 
HETATM   19  C   UNL     1      13.989  53.027  50.607  1.00  0.00     0.005 C 
ENDBRANCH  17  18
ENDBRANCH  16  17
ENDBRANCH  15  16
ENDBRANCH  11  15
ENDBRANCH   6   9
ENDBRANCH   3   5
ENDBRANCH   1   3
BRANCH   1  20
HETATM   20  C   UNL     1      24.744  46.404  50.878  1.00  0.00     0.036 A 
HETATM   21  C   UNL     1      25.188  45.087  50.767  1.00  0.00     0.067 A 
HETATM   22  C   UNL     1      26.191  44.597  51.617  1.00  0.00     0.082 A 
HETATM   23  C   UNL     1      26.782  45.412  52.594  1.00  0.00     0.050 A 
HETATM   24  C   UNL     1      26.315  46.730  52.706  1.00  0.00     0.021 A 
HETATM   25  C   UNL     1      25.322  47.224  51.852  1.00  0.00     0.030 A 
BRANCH  22  26
HETATM   26  O   UNL     1      26.584  43.292  51.475  1.00  0.00    -0.360 OA
HETATM   27  H   UNL     1      27.515  43.261  51.198  1.00  0.00     0.217 HD
ENDBRANCH  22  26
BRANCH  23  28
HETATM   28  C   UNL     1      27.860  44.984  53.485  1.00  0.00     0.183 A 
HETATM   29  O   UNL     1      28.123  45.768  54.580  1.00  0.00    -0.289 OA
HETATM   30  C   UNL     1      29.096  45.091  55.250  1.00  0.00     0.107 A 
HETATM   31  C   UNL     1      29.371  43.934  54.544  1.00  0.00     0.093 A 
HETATM   32  C   UNL     1      29.714  45.465  56.438  1.00  0.00     0.046 A 
HETATM   33  N   UNL     1      28.573  43.869  53.430  1.00  0.00    -0.221 NA
HETATM   34  C   UNL     1      30.339  43.054  55.040  1.00  0.00     0.035 A 
HETATM   35  C   UNL     1      30.988  43.391  56.238  1.00  0.00     0.009 A 
HETATM   36  C   UNL     1      30.690  44.580  56.930  1.00  0.00    -0.059 A 
HETATM   37  C   UNL     1      31.393  44.880  58.223  1.00  0.00     0.048 C 
ENDBRANCH  23  28
ENDBRANCH   1  20
TORSDOF 10
ENDMDL
MODEL 10
REMARK VINA RESULT:      -9.2      2.352      3.688
REMARK  10 active torsions:
REMARK  status: ('A' for Active; 'I' for Inactive)
REMARK    1  A    between atoms: C_2  and  C_3 
REMARK    2  A    between atoms: C_3  and  C_4 
REMARK    3  A    between atoms: C_4  and  O_5 
REMARK    4  A    between atoms: O_5  and  C_6 
REMARK    5  A    between atoms: C_8  and  C_9 
REMARK       I    between atoms: C_9  and  N_10 
REMARK    6  A    between atoms: N_10  and  C_11 
REMARK    7  A    between atoms: C_11  and  N_12 
REMARK    8  A    between atoms: N_12  and  C_13 
REMARK    9  A    between atoms: C_15  and  O_16 
REMARK   10  A    between atoms: C_17  and  C_18 
ROOT
HETATM    1  N   UNL     1      24.637  42.122  48.590  1.00  0.00    -0.333 N 
HETATM    2  H   UNL     1      24.689  41.106  48.478  1.00  0.00     0.168 HD
ENDROOT
BRANCH   1   3
HETATM    3  C   UNL     1      23.963  42.735  47.563  1.00  0.00     0.179 C 
HETATM    4  S   UNL     1      23.361  42.080  46.148  1.00  0.00    -0.040 SA
BRANCH   3   5
HETATM    5  N   UNL     1      23.742  44.092  47.744  1.00  0.00    -0.299 N 
HETATM    6  C   UNL     1      22.657  44.718  48.345  1.00  0.00     0.257 C 
HETATM    7  O   UNL     1      21.591  44.143  48.558  1.00  0.00    -0.267 OA
HETATM    8  H   UNL     1      24.524  44.653  47.440  1.00  0.00     0.171 HD
BRANCH   6   9
HETATM    9  C   UNL     1      22.804  46.167  48.675  1.00  0.00     0.035 A 
HETATM   10  C   UNL     1      21.926  47.146  48.195  1.00  0.00     0.053 A 
HETATM   11  C   UNL     1      22.123  48.481  48.549  1.00  0.00     0.069 A 
HETATM   12  C   UNL     1      23.212  48.869  49.324  1.00  0.00     0.037 A 
HETATM   13  C   UNL     1      24.101  47.902  49.785  1.00  0.00     0.004 A 
HETATM   14  C   UNL     1      23.896  46.557  49.467  1.00  0.00     0.017 A 
BRANCH  11  15
HETATM   15  O   UNL     1      21.270  49.435  48.070  1.00  0.00    -0.351 OA
BRANCH  15  16
HETATM   16  C   UNL     1      20.249  49.743  49.028  1.00  0.00     0.175 C 
BRANCH  16  17
HETATM   17  C   UNL     1      20.343  51.219  49.410  1.00  0.00     0.026 C 
BRANCH  17  18
HETATM   18  C   UNL     1      19.479  52.108  48.513  1.00  0.00    -0.002 C 
HETATM   19  C   UNL     1      18.205  52.538  49.223  1.00  0.00     0.005 C 
ENDBRANCH  17  18
ENDBRANCH  16  17
ENDBRANCH  15  16
ENDBRANCH  11  15
ENDBRANCH   6   9
ENDBRANCH   3   5
ENDBRANCH   1   3
BRANCH   1  20
HETATM   20  C   UNL     1      25.293  42.616  49.736  1.00  0.00     0.036 A 
HETATM   21  C   UNL     1      24.659  42.996  50.917  1.00  0.00     0.067 A 
HETATM   22  C   UNL     1      25.407  43.407  52.031  1.00  0.00     0.082 A 
HETATM   23  C   UNL     1      26.809  43.439  51.995  1.00  0.00     0.050 A 
HETATM   24  C   UNL     1      27.435  43.069  50.795  1.00  0.00     0.021 A 
HETATM   25  C   UNL     1      26.690  42.650  49.687  1.00  0.00     0.030 A 
BRANCH  22  26
HETATM   26  O   UNL     1      24.735  43.782  53.165  1.00  0.00    -0.360 OA
HETATM   27  H   UNL     1      24.218  43.031  53.500  1.00  0.00     0.217 HD
ENDBRANCH  22  26
BRANCH  23  28
HETATM   28  C   UNL     1      27.656  43.814  53.128  1.00  0.00     0.183 A 
HETATM   29  O   UNL     1      28.607  42.911  53.531  1.00  0.00    -0.289 OA
HETATM   30  C   UNL     1      29.278  43.554  54.526  1.00  0.00     0.107 A 
HETATM   31  C   UNL     1      28.717  44.809  54.674  1.00  0.00     0.093 A 
HETATM   32  C   UNL     1      30.347  43.068  55.270  1.00  0.00     0.046 A 
HETATM   33  N   UNL     1      27.694  44.970  53.774  1.00  0.00    -0.221 NA
HETATM   34  C   UNL     1      29.244  45.676  55.636  1.00  0.00     0.035 A 
HETATM   35  C   UNL     1      30.325  45.227  56.411  1.00  0.00     0.009 A 
HETATM   36  C   UNL     1      30.871  43.940  56.240  1.00  0.00    -0.059 A 
HETATM   37  C   UNL     1      32.046  43.517  57.075  1.00  0.00     0.048 C 
ENDBRANCH  23  28
ENDBRANCH   1  20
TORSDOF 10
ENDMDL
