MODEL 1
REMARK VINA RESULT:      -9.0      0.000      0.000
REMARK  9 active torsions:
REMARK  status: ('A' for Active; 'I' for Inactive)
REMARK       I    between atoms: N_2  and  C_3 
REMARK    1  A    between atoms: C_3  and  C_4 
REMARK    2  A    between atoms: C_4  and  S_5 
REMARK    3  A    between atoms: S_5  and  C_6 
REMARK    4  A    between atoms: N_7  and  C_8 
REMARK    5  A    between atoms: C_8  and  C_9 
REMARK    6  A    between atoms: C_11  and  C_12 
REMARK    7  A    between atoms: C_12  and  O_13 
REMARK    8  A    between atoms: O_13  and  C_14 
REMARK    9  A    between atoms: C_15  and  C_16 
ROOT
HETATM    1  C   UNL     1      28.185  40.832  50.623  1.00  0.00     0.192 A 
HETATM    2  N   UNL     1      27.449  41.974  50.787  1.00  0.00    -0.306 N 
HETATM    3  C   UNL     1      27.464  42.219  52.146  1.00  0.00     0.155 A 
HETATM    4  N   UNL     1      28.219  41.308  52.733  1.00  0.00    -0.132 NA
HETATM    5  N   UNL     1      28.663  40.435  51.776  1.00  0.00    -0.123 NA
ENDROOT
BRANCH   3   6
HETATM    6  C   UNL     1      26.736  43.320  52.840  1.00  0.00     0.256 C 
BRANCH   6   7
HETATM    7  O   UNL     1      27.582  43.748  53.910  1.00  0.00    -0.343 OA
BRANCH   7   8
HETATM    8  C   UNL     1      27.477  45.100  54.122  1.00  0.00     0.080 A 
HETATM    9  C   UNL     1      28.331  45.760  55.028  1.00  0.00     0.007 A 
HETATM   10  C   UNL     1      28.101  47.138  55.233  1.00  0.00     0.015 A 
HETATM   11  C   UNL     1      27.074  47.820  54.574  1.00  0.00     0.001 A 
HETATM   12  C   UNL     1      26.236  47.138  53.700  1.00  0.00     0.003 A 
HETATM   13  C   UNL     1      26.428  45.777  53.483  1.00  0.00     0.037 A 
BRANCH   9  14
HETATM   14  C   UNL     1      29.431  45.092  55.765  1.00  0.00    -0.023 A 
HETATM   15  C   UNL     1      29.841  45.557  57.030  1.00  0.00     0.012 A 
HETATM   16  C   UNL     1      30.845  44.910  57.759  1.00  0.00     0.001 A 
HETATM   17  C   UNL     1      31.470  43.785  57.232  1.00  0.00     0.000 A 
HETATM   18  C   UNL     1      31.092  43.311  55.978  1.00  0.00     0.001 A 
HETATM   19  C   UNL     1      30.081  43.954  55.257  1.00  0.00     0.012 A 
ENDBRANCH   9  14
ENDBRANCH   7   8
ENDBRANCH   6   7
ENDBRANCH   3   6
BRANCH   2  20
HETATM   20  C   UNL     1      26.901  42.828  49.748  1.00  0.00     0.159 C 
BRANCH  20  21
HETATM   21  C   UNL     1      25.479  42.562  49.341  1.00  0.00    -0.017 C 
HETATM   22  C   UNL     1      24.354  42.988  49.930  1.00  0.00     0.008 C 
ENDBRANCH  20  21
ENDBRANCH   2  20
BRANCH   1  23
HETATM   23  S   UNL     1      28.469  40.021  49.128  1.00  0.00    -0.081 SA
BRANCH  23  24
HETATM   24  C   UNL     1      28.070  38.316  49.589  1.00  0.00     0.185 C 
BRANCH  24  25
HETATM   25  C   UNL     1      29.193  37.479  50.182  1.00  0.00     0.226 C 
HETATM   26  N   UNL     1      28.869  36.467  51.049  1.00  0.00    -0.365 N 
HETATM   27  C   UNL     1      29.879  35.758  51.791  1.00  0.00     0.149 C 
HETATM   28  H   UNL     1      27.923  36.441  51.425  1.00  0.00     0.161 HD
HETATM   29  O   UNL     1      30.365  37.758  49.914  1.00  0.00    -0.273 OA
ENDBRANCH  24  25
ENDBRANCH  23  24
ENDBRANCH   1  23
TORSDOF 9
ENDMDL
MODEL 2
REMARK VINA RESULT:      -8.6      4.022      6.917
REMARK  9 active torsions:
REMARK  status: ('A' for Active; 'I' for Inactive)
REMARK       I    between atoms: N_2  and  C_3 
REMARK    1  A    between atoms: C_3  and  C_4 
REMARK    2  A    between atoms: C_4  and  S_5 
REMARK    3  A    between atoms: S_5  and  C_6 
REMARK    4  A    between atoms: N_7  and  C_8 
REMARK    5  A    between atoms: C_8  and  C_9 
REMARK    6  A    between atoms: C_11  and  C_12 
REMARK    7  A    between atoms: C_12  and  O_13 
REMARK    8  A    between atoms: O_13  and  C_14 
REMARK    9  A    between atoms: C_15  and  C_16 
ROOT
HETATM    1  C   UNL     1      24.272  46.861  50.261  1.00  0.00     0.192 A 
HETATM    2  N   UNL     1      24.299  45.539  50.612  1.00  0.00    -0.306 N 
HETATM    3  C   UNL     1      25.040  45.491  51.777  1.00  0.00     0.155 A 
HETATM    4  N   UNL     1      25.370  46.723  52.120  1.00  0.00    -0.132 NA
HETATM    5  N   UNL     1      24.894  47.579  51.162  1.00  0.00    -0.123 NA
ENDROOT
BRANCH   3   6
HETATM    6  C   UNL     1      25.417  44.254  52.517  1.00  0.00     0.256 C 
BRANCH   6   7
HETATM    7  O   UNL     1      26.818  44.361  52.788  1.00  0.00    -0.343 OA
BRANCH   7   8
HETATM    8  C   UNL     1      27.450  43.151  52.643  1.00  0.00     0.080 A 
HETATM    9  C   UNL     1      28.609  42.846  53.385  1.00  0.00     0.007 A 
HETATM   10  C   UNL     1      29.230  41.606  53.116  1.00  0.00     0.015 A 
HETATM   11  C   UNL     1      28.725  40.721  52.159  1.00  0.00     0.001 A 
HETATM   12  C   UNL     1      27.590  41.058  51.430  1.00  0.00     0.003 A 
HETATM   13  C   UNL     1      26.960  42.277  51.662  1.00  0.00     0.037 A 
BRANCH   9  14
HETATM   14  C   UNL     1      29.199  43.745  54.406  1.00  0.00    -0.023 A 
HETATM   15  C   UNL     1      28.518  44.903  54.831  1.00  0.00     0.012 A 
HETATM   16  C   UNL     1      29.039  45.735  55.827  1.00  0.00     0.001 A 
HETATM   17  C   UNL     1      30.263  45.433  56.415  1.00  0.00     0.000 A 
HETATM   18  C   UNL     1      30.962  44.301  56.006  1.00  0.00     0.001 A 
HETATM   19  C   UNL     1      30.433  43.464  55.017  1.00  0.00     0.012 A 
ENDBRANCH   9  14
ENDBRANCH   7   8
ENDBRANCH   6   7
ENDBRANCH   3   6
BRANCH   2  20
HETATM   20  C   UNL     1      23.581  44.443  49.984  1.00  0.00     0.159 C 
BRANCH  20  21
HETATM   21  C   UNL     1      24.240  43.800  48.798  1.00  0.00    -0.017 C 
HETATM   22  C   UNL     1      24.849  42.608  48.732  1.00  0.00     0.008 C 
ENDBRANCH  20  21
ENDBRANCH   2  20
BRANCH   1  23
HETATM   23  S   UNL     1      23.524  47.515  48.851  1.00  0.00    -0.081 SA
BRANCH  23  24
HETATM   24  C   UNL     1      24.099  49.230  48.930  1.00  0.00     0.185 C 
BRANCH  24  25
HETATM   25  C   UNL     1      25.524  49.504  48.473  1.00  0.00     0.226 C 
HETATM   26  N   UNL     1      26.560  49.053  49.250  1.00  0.00    -0.365 N 
HETATM   27  C   UNL     1      27.923  49.433  48.983  1.00  0.00     0.149 C 
HETATM   28  H   UNL     1      26.350  48.737  50.195  1.00  0.00     0.161 HD
HETATM   29  O   UNL     1      25.716  50.166  47.450  1.00  0.00    -0.273 OA
ENDBRANCH  24  25
ENDBRANCH  23  24
ENDBRANCH   1  23
TORSDOF 9
ENDMDL
MODEL 3
REMARK VINA RESULT:      -8.4      4.397      7.568
REMARK  9 active torsions:
REMARK  status: ('A' for Active; 'I' for Inactive)
REMARK       I    between atoms: N_2  and  C_3 
REMARK    1  A    between atoms: C_3  and  C_4 
REMARK    2  A    between atoms: C_4  and  S_5 
REMARK    3  A    between atoms: S_5  and  C_6 
REMARK    4  A    between atoms: N_7  and  C_8 
REMARK    5  A    between atoms: C_8  and  C_9 
REMARK    6  A    between atoms: C_11  and  C_12 
REMARK    7  A    between atoms: C_12  and  O_13 
REMARK    8  A    between atoms: O_13  and  C_14 
REMARK    9  A    between atoms: C_15  and  C_16 
ROOT
HETATM    1  C   UNL     1      24.317  46.920  50.232  1.00  0.00     0.192 A 
HETATM    2  N   UNL     1      24.451  45.700  50.838  1.00  0.00    -0.306 N 
HETATM    3  C   UNL     1      25.327  45.912  51.884  1.00  0.00     0.155 A 
HETATM    4  N   UNL     1      25.636  47.196  51.924  1.00  0.00    -0.132 NA
HETATM    5  N   UNL     1      25.007  47.824  50.882  1.00  0.00    -0.123 NA
ENDROOT
BRANCH   3   6
HETATM    6  C   UNL     1      25.851  44.865  52.806  1.00  0.00     0.256 C 
BRANCH   6   7
HETATM    7  O   UNL     1      27.262  44.803  52.582  1.00  0.00    -0.343 OA
BRANCH   7   8
HETATM    8  C   UNL     1      27.697  43.505  52.486  1.00  0.00     0.080 A 
HETATM    9  C   UNL     1      28.687  43.006  53.357  1.00  0.00     0.007 A 
HETATM   10  C   UNL     1      29.122  41.681  53.136  1.00  0.00     0.015 A 
HETATM   11  C   UNL     1      28.600  40.896  52.103  1.00  0.00     0.001 A 
HETATM   12  C   UNL     1      27.637  41.422  51.249  1.00  0.00     0.003 A 
HETATM   13  C   UNL     1      27.195  42.729  51.432  1.00  0.00     0.037 A 
BRANCH   9  14
HETATM   14  C   UNL     1      29.287  43.790  54.463  1.00  0.00    -0.023 A 
HETATM   15  C   UNL     1      30.485  43.374  55.078  1.00  0.00     0.012 A 
HETATM   16  C   UNL     1      31.088  44.127  56.091  1.00  0.00     0.001 A 
HETATM   17  C   UNL     1      30.499  45.311  56.521  1.00  0.00     0.000 A 
HETATM   18  C   UNL     1      29.309  45.740  55.938  1.00  0.00     0.001 A 
HETATM   19  C   UNL     1      28.714  44.990  54.918  1.00  0.00     0.012 A 
ENDBRANCH   9  14
ENDBRANCH   7   8
ENDBRANCH   6   7
ENDBRANCH   3   6
BRANCH   2  20
HETATM   20  C   UNL     1      23.716  44.482  50.543  1.00  0.00     0.159 C 
BRANCH  20  21
HETATM   21  C   UNL     1      24.293  43.590  49.481  1.00  0.00    -0.017 C 
HETATM   22  C   UNL     1      23.653  42.716  48.693  1.00  0.00     0.008 C 
ENDBRANCH  20  21
ENDBRANCH   2  20
BRANCH   1  23
HETATM   23  S   UNL     1      23.374  47.250  48.825  1.00  0.00    -0.081 SA
BRANCH  23  24
HETATM   24  C   UNL     1      23.513  49.053  48.743  1.00  0.00     0.185 C 
BRANCH  24  25
HETATM   25  C   UNL     1      22.470  49.863  49.498  1.00  0.00     0.226 C 
HETATM   26  N   UNL     1      21.176  49.411  49.516  1.00  0.00    -0.365 N 
HETATM   27  C   UNL     1      20.105  50.214  50.047  1.00  0.00     0.149 C 
HETATM   28  H   UNL     1      20.915  48.674  48.864  1.00  0.00     0.161 HD
HETATM   29  O   UNL     1      22.797  50.928  50.029  1.00  0.00    -0.273 OA
ENDBRANCH  24  25
ENDBRANCH  23  24
ENDBRANCH   1  23
TORSDOF 9
ENDMDL
MODEL 4
REMARK VINA RESULT:      -8.3      4.821      7.692
REMARK  9 active torsions:
REMARK  status: ('A' for Active; 'I' for Inactive)
REMARK       I    between atoms: N_2  and  C_3 
REMARK    1  A    between atoms: C_3  and  C_4 
REMARK    2  A    between atoms: C_4  and  S_5 
REMARK    3  A    between atoms: S_5  and  C_6 
REMARK    4  A    between atoms: N_7  and  C_8 
REMARK    5  A    between atoms: C_8  and  C_9 
REMARK    6  A    between atoms: C_11  and  C_12 
REMARK    7  A    between atoms: C_12  and  O_13 
REMARK    8  A    between atoms: O_13  and  C_14 
REMARK    9  A    between atoms: C_15  and  C_16 
ROOT
HETATM    1  C   UNL     1      23.822  47.302  49.506  1.00  0.00     0.192 A 
HETATM    2  N   UNL     1      24.373  46.152  50.001  1.00  0.00    -0.306 N 
HETATM    3  C   UNL     1      25.464  46.565  50.740  1.00  0.00     0.155 A 
HETATM    4  N   UNL     1      25.508  47.885  50.728  1.00  0.00    -0.132 NA
HETATM    5  N   UNL     1      24.481  48.344  49.947  1.00  0.00    -0.123 NA
ENDROOT
BRANCH   3   6
HETATM    6  C   UNL     1      26.441  45.671  51.424  1.00  0.00     0.256 C 
BRANCH   6   7
HETATM    7  O   UNL     1      25.875  45.363  52.702  1.00  0.00    -0.343 OA
BRANCH   7   8
HETATM    8  C   UNL     1      26.594  45.937  53.720  1.00  0.00     0.080 A 
HETATM    9  C   UNL     1      27.666  45.252  54.326  1.00  0.00     0.007 A 
HETATM   10  C   UNL     1      28.301  45.893  55.412  1.00  0.00     0.015 A 
HETATM   11  C   UNL     1      27.889  47.149  55.870  1.00  0.00     0.001 A 
HETATM   12  C   UNL     1      26.817  47.793  55.262  1.00  0.00     0.003 A 
HETATM   13  C   UNL     1      26.162  47.183  54.197  1.00  0.00     0.037 A 
BRANCH   9  14
HETATM   14  C   UNL     1      28.144  43.916  53.894  1.00  0.00    -0.023 A 
HETATM   15  C   UNL     1      29.420  43.756  53.318  1.00  0.00     0.012 A 
HETATM   16  C   UNL     1      29.904  42.497  52.949  1.00  0.00     0.001 A 
HETATM   17  C   UNL     1      29.116  41.366  53.140  1.00  0.00     0.000 A 
HETATM   18  C   UNL     1      27.847  41.498  53.696  1.00  0.00     0.001 A 
HETATM   19  C   UNL     1      27.370  42.757  54.074  1.00  0.00     0.012 A 
ENDBRANCH   9  14
ENDBRANCH   7   8
ENDBRANCH   6   7
ENDBRANCH   3   6
BRANCH   2  20
HETATM   20  C   UNL     1      23.842  44.803  49.901  1.00  0.00     0.159 C 
BRANCH  20  21
HETATM   21  C   UNL     1      24.268  44.001  48.705  1.00  0.00    -0.017 C 
HETATM   22  C   UNL     1      24.287  42.669  48.563  1.00  0.00     0.008 C 
ENDBRANCH  20  21
ENDBRANCH   2  20
BRANCH   1  23
HETATM   23  S   UNL     1      22.451  47.396  48.462  1.00  0.00    -0.081 SA
BRANCH  23  24
HETATM   24  C   UNL     1      22.110  49.173  48.514  1.00  0.00     0.185 C 
BRANCH  24  25
HETATM   25  C   UNL     1      21.051  49.647  49.497  1.00  0.00     0.226 C 
HETATM   26  N   UNL     1      20.124  48.743  49.949  1.00  0.00    -0.365 N 
HETATM   27  C   UNL     1      18.987  49.157  50.730  1.00  0.00     0.149 C 
HETATM   28  H   UNL     1      20.046  47.852  49.463  1.00  0.00     0.161 HD
HETATM   29  O   UNL     1      21.017  50.836  49.825  1.00  0.00    -0.273 OA
ENDBRANCH  24  25
ENDBRANCH  23  24
ENDBRANCH   1  23
TORSDOF 9
ENDMDL
MODEL 5
REMARK VINA RESULT:      -8.3      4.162      6.934
REMARK  9 active torsions:
REMARK  status: ('A' for Active; 'I' for Inactive)
REMARK       I    between atoms: N_2  and  C_3 
REMARK    1  A    between atoms: C_3  and  C_4 
REMARK    2  A    between atoms: C_4  and  S_5 
REMARK    3  A    between atoms: S_5  and  C_6 
REMARK    4  A    between atoms: N_7  and  C_8 
REMARK    5  A    between atoms: C_8  and  C_9 
REMARK    6  A    between atoms: C_11  and  C_12 
REMARK    7  A    between atoms: C_12  and  O_13 
REMARK    8  A    between atoms: O_13  and  C_14 
REMARK    9  A    between atoms: C_15  and  C_16 
ROOT
HETATM    1  C   UNL     1      23.675  44.873  49.763  1.00  0.00     0.192 A 
HETATM    2  N   UNL     1      24.402  45.866  50.361  1.00  0.00    -0.306 N 
HETATM    3  C   UNL     1      24.669  45.401  51.634  1.00  0.00     0.155 A 
HETATM    4  N   UNL     1      24.180  44.180  51.749  1.00  0.00    -0.132 NA
HETATM    5  N   UNL     1      23.550  43.854  50.577  1.00  0.00    -0.123 NA
ENDROOT
BRANCH   3   6
HETATM    6  C   UNL     1      25.376  46.157  52.706  1.00  0.00     0.256 C 
BRANCH   6   7
HETATM    7  O   UNL     1      26.701  45.620  52.768  1.00  0.00    -0.343 OA
BRANCH   7   8
HETATM    8  C   UNL     1      27.307  45.918  53.962  1.00  0.00     0.080 A 
HETATM    9  C   UNL     1      28.144  44.982  54.602  1.00  0.00     0.007 A 
HETATM   10  C   UNL     1      28.666  45.351  55.862  1.00  0.00     0.015 A 
HETATM   11  C   UNL     1      28.368  46.583  56.452  1.00  0.00     0.001 A 
HETATM   12  C   UNL     1      27.524  47.478  55.804  1.00  0.00     0.003 A 
HETATM   13  C   UNL     1      26.984  47.142  54.566  1.00  0.00     0.037 A 
BRANCH   9  14
HETATM   14  C   UNL     1      28.491  43.657  54.035  1.00  0.00    -0.023 A 
HETATM   15  C   UNL     1      27.571  42.590  54.074  1.00  0.00     0.012 A 
HETATM   16  C   UNL     1      27.865  41.348  53.502  1.00  0.00     0.001 A 
HETATM   17  C   UNL     1      29.093  41.142  52.884  1.00  0.00     0.000 A 
HETATM   18  C   UNL     1      30.025  42.175  52.841  1.00  0.00     0.001 A 
HETATM   19  C   UNL     1      29.724  43.419  53.405  1.00  0.00     0.012 A 
ENDBRANCH   9  14
ENDBRANCH   7   8
ENDBRANCH   6   7
ENDBRANCH   3   6
BRANCH   2  20
HETATM   20  C   UNL     1      24.914  47.078  49.745  1.00  0.00     0.159 C 
BRANCH  20  21
HETATM   21  C   UNL     1      26.408  47.216  49.674  1.00  0.00    -0.017 C 
HETATM   22  C   UNL     1      27.128  48.316  49.415  1.00  0.00     0.008 C 
ENDBRANCH  20  21
ENDBRANCH   2  20
BRANCH   1  23
HETATM   23  S   UNL     1      23.019  44.922  48.169  1.00  0.00    -0.081 SA
BRANCH  23  24
HETATM   24  C   UNL     1      21.525  45.905  48.450  1.00  0.00     0.185 C 
BRANCH  24  25
HETATM   25  C   UNL     1      21.666  47.418  48.378  1.00  0.00     0.226 C 
HETATM   26  N   UNL     1      21.136  48.175  49.390  1.00  0.00    -0.365 N 
HETATM   27  C   UNL     1      21.067  49.611  49.300  1.00  0.00     0.149 C 
HETATM   28  H   UNL     1      20.495  47.726  50.041  1.00  0.00     0.161 HD
HETATM   29  O   UNL     1      22.205  47.930  47.393  1.00  0.00    -0.273 OA
ENDBRANCH  24  25
ENDBRANCH  23  24
ENDBRANCH   1  23
TORSDOF 9
ENDMDL
MODEL 6
REMARK VINA RESULT:      -8.1      2.868      4.492
REMARK  9 active torsions:
REMARK  status: ('A' for Active; 'I' for Inactive)
REMARK       I    between atoms: N_2  and  C_3 
REMARK    1  A    between atoms: C_3  and  C_4 
REMARK    2  A    between atoms: C_4  and  S_5 
REMARK    3  A    between atoms: S_5  and  C_6 
REMARK    4  A    between atoms: N_7  and  C_8 
REMARK    5  A    between atoms: C_8  and  C_9 
REMARK    6  A    between atoms: C_11  and  C_12 
REMARK    7  A    between atoms: C_12  and  O_13 
REMARK    8  A    between atoms: O_13  and  C_14 
REMARK    9  A    between atoms: C_15  and  C_16 
ROOT
HETATM    1  C   UNL     1      26.156  42.113  50.108  1.00  0.00     0.192 A 
HETATM    2  N   UNL     1      26.838  43.259  50.412  1.00  0.00    -0.306 N 
HETATM    3  C   UNL     1      27.480  42.991  51.605  1.00  0.00     0.155 A 
HETATM    4  N   UNL     1      27.238  41.737  51.943  1.00  0.00    -0.132 NA
HETATM    5  N   UNL     1      26.401  41.191  51.006  1.00  0.00    -0.123 NA
ENDROOT
BRANCH   3   6
HETATM    6  C   UNL     1      28.298  43.958  52.390  1.00  0.00     0.256 C 
BRANCH   6   7
HETATM    7  O   UNL     1      27.733  43.987  53.703  1.00  0.00    -0.343 OA
BRANCH   7   8
HETATM    8  C   UNL     1      27.511  45.275  54.124  1.00  0.00     0.080 A 
HETATM    9  C   UNL     1      28.251  45.827  55.189  1.00  0.00     0.007 A 
HETATM   10  C   UNL     1      27.902  47.133  55.598  1.00  0.00     0.015 A 
HETATM   11  C   UNL     1      26.872  47.848  54.980  1.00  0.00     0.001 A 
HETATM   12  C   UNL     1      26.148  47.270  53.944  1.00  0.00     0.003 A 
HETATM   13  C   UNL     1      26.458  45.980  53.524  1.00  0.00     0.037 A 
BRANCH   9  14
HETATM   14  C   UNL     1      29.347  45.117  55.891  1.00  0.00    -0.023 A 
HETATM   15  C   UNL     1      29.984  44.006  55.302  1.00  0.00     0.012 A 
HETATM   16  C   UNL     1      31.051  43.355  55.930  1.00  0.00     0.001 A 
HETATM   17  C   UNL     1      31.500  43.796  57.170  1.00  0.00     0.000 A 
HETATM   18  C   UNL     1      30.882  44.884  57.780  1.00  0.00     0.001 A 
HETATM   19  C   UNL     1      29.822  45.540  57.144  1.00  0.00     0.012 A 
ENDBRANCH   9  14
ENDBRANCH   7   8
ENDBRANCH   6   7
ENDBRANCH   3   6
BRANCH   2  20
HETATM   20  C   UNL     1      26.981  44.447  49.588  1.00  0.00     0.159 C 
BRANCH  20  21
HETATM   21  C   UNL     1      26.066  45.597  49.902  1.00  0.00    -0.017 C 
HETATM   22  C   UNL     1      26.366  46.900  49.971  1.00  0.00     0.008 C 
ENDBRANCH  20  21
ENDBRANCH   2  20
BRANCH   1  23
HETATM   23  S   UNL     1      25.129  41.882  48.741  1.00  0.00    -0.081 SA
BRANCH  23  24
HETATM   24  C   UNL     1      23.502  42.115  49.500  1.00  0.00     0.185 C 
BRANCH  24  25
HETATM   25  C   UNL     1      23.029  43.547  49.697  1.00  0.00     0.226 C 
HETATM   26  N   UNL     1      22.645  44.269  48.596  1.00  0.00    -0.365 N 
HETATM   27  C   UNL     1      22.365  45.679  48.680  1.00  0.00     0.149 C 
HETATM   28  H   UNL     1      22.880  43.903  47.676  1.00  0.00     0.161 HD
HETATM   29  O   UNL     1      23.049  44.042  50.827  1.00  0.00    -0.273 OA
ENDBRANCH  24  25
ENDBRANCH  23  24
ENDBRANCH   1  23
TORSDOF 9
ENDMDL
MODEL 7
REMARK VINA RESULT:      -8.1      1.743      2.571
REMARK  9 active torsions:
REMARK  status: ('A' for Active; 'I' for Inactive)
REMARK       I    between atoms: N_2  and  C_3 
REMARK    1  A    between atoms: C_3  and  C_4 
REMARK    2  A    between atoms: C_4  and  S_5 
REMARK    3  A    between atoms: S_5  and  C_6 
REMARK    4  A    between atoms: N_7  and  C_8 
REMARK    5  A    between atoms: C_8  and  C_9 
REMARK    6  A    between atoms: C_11  and  C_12 
REMARK    7  A    between atoms: C_12  and  O_13 
REMARK    8  A    between atoms: O_13  and  C_14 
REMARK    9  A    between atoms: C_15  and  C_16 
ROOT
HETATM    1  C   UNL     1      26.078  42.451  49.526  1.00  0.00     0.192 A 
HETATM    2  N   UNL     1      26.339  42.215  50.848  1.00  0.00    -0.306 N 
HETATM    3  C   UNL     1      26.135  43.427  51.477  1.00  0.00     0.155 A 
HETATM    4  N   UNL     1      25.715  44.303  50.583  1.00  0.00    -0.132 NA
HETATM    5  N   UNL     1      25.688  43.690  49.358  1.00  0.00    -0.123 NA
ENDROOT
BRANCH   3   6
HETATM    6  C   UNL     1      26.363  43.706  52.924  1.00  0.00     0.256 C 
BRANCH   6   7
HETATM    7  O   UNL     1      27.529  44.532  52.993  1.00  0.00    -0.343 OA
BRANCH   7   8
HETATM    8  C   UNL     1      27.290  45.675  53.714  1.00  0.00     0.080 A 
HETATM    9  C   UNL     1      28.038  45.970  54.872  1.00  0.00     0.007 A 
HETATM   10  C   UNL     1      27.673  47.132  55.587  1.00  0.00     0.015 A 
HETATM   11  C   UNL     1      26.620  47.953  55.173  1.00  0.00     0.001 A 
HETATM   12  C   UNL     1      25.889  47.626  54.036  1.00  0.00     0.003 A 
HETATM   13  C   UNL     1      26.215  46.482  53.314  1.00  0.00     0.037 A 
BRANCH   9  14
HETATM   14  C   UNL     1      29.158  45.136  55.369  1.00  0.00    -0.023 A 
HETATM   15  C   UNL     1      29.863  45.491  56.537  1.00  0.00     0.012 A 
HETATM   16  C   UNL     1      30.890  44.690  57.045  1.00  0.00     0.001 A 
HETATM   17  C   UNL     1      31.246  43.517  56.388  1.00  0.00     0.000 A 
HETATM   18  C   UNL     1      30.574  43.148  55.226  1.00  0.00     0.001 A 
HETATM   19  C   UNL     1      29.539  43.946  54.726  1.00  0.00     0.012 A 
ENDBRANCH   9  14
ENDBRANCH   7   8
ENDBRANCH   6   7
ENDBRANCH   3   6
BRANCH   2  20
HETATM   20  C   UNL     1      26.622  40.937  51.478  1.00  0.00     0.159 C 
BRANCH  20  21
HETATM   21  C   UNL     1      28.059  40.657  51.814  1.00  0.00    -0.017 C 
HETATM   22  C   UNL     1      28.725  40.973  52.933  1.00  0.00     0.008 C 
ENDBRANCH  20  21
ENDBRANCH   2  20
BRANCH   1  23
HETATM   23  S   UNL     1      26.219  41.301  48.248  1.00  0.00    -0.081 SA
BRANCH  23  24
HETATM   24  C   UNL     1      28.017  41.106  48.168  1.00  0.00     0.185 C 
BRANCH  24  25
HETATM   25  C   UNL     1      28.563  39.687  48.216  1.00  0.00     0.226 C 
HETATM   26  N   UNL     1      29.493  39.373  49.174  1.00  0.00    -0.365 N 
HETATM   27  C   UNL     1      30.189  38.113  49.165  1.00  0.00     0.149 C 
HETATM   28  H   UNL     1      29.935  40.137  49.682  1.00  0.00     0.161 HD
HETATM   29  O   UNL     1      28.201  38.869  47.366  1.00  0.00    -0.273 OA
ENDBRANCH  24  25
ENDBRANCH  23  24
ENDBRANCH   1  23
TORSDOF 9
ENDMDL
MODEL 8
REMARK VINA RESULT:      -8.0     14.673     16.205
REMARK  9 active torsions:
REMARK  status: ('A' for Active; 'I' for Inactive)
REMARK       I    between atoms: N_2  and  C_3 
REMARK    1  A    between atoms: C_3  and  C_4 
REMARK    2  A    between atoms: C_4  and  S_5 
REMARK    3  A    between atoms: S_5  and  C_6 
REMARK    4  A    between atoms: N_7  and  C_8 
REMARK    5  A    between atoms: C_8  and  C_9 
REMARK    6  A    between atoms: C_11  and  C_12 
REMARK    7  A    between atoms: C_12  and  O_13 
REMARK    8  A    between atoms: O_13  and  C_14 
REMARK    9  A    between atoms: C_15  and  C_16 
ROOT
HETATM    1  C   UNL     1      28.903  49.277  38.431  1.00  0.00     0.192 A 
HETATM    2  N   UNL     1      30.255  49.155  38.605  1.00  0.00    -0.306 N 
HETATM    3  C   UNL     1      30.777  50.382  38.246  1.00  0.00     0.155 A 
HETATM    4  N   UNL     1      29.780  51.193  37.942  1.00  0.00    -0.132 NA
HETATM    5  N   UNL     1      28.606  50.495  38.051  1.00  0.00    -0.123 NA
ENDROOT
BRANCH   3   6
HETATM    6  C   UNL     1      32.225  50.731  38.195  1.00  0.00     0.256 C 
BRANCH   6   7
HETATM    7  O   UNL     1      32.373  51.938  38.949  1.00  0.00    -0.343 OA
BRANCH   7   8
HETATM    8  C   UNL     1      32.858  51.685  40.207  1.00  0.00     0.080 A 
HETATM    9  C   UNL     1      32.007  51.713  41.330  1.00  0.00     0.007 A 
HETATM   10  C   UNL     1      32.609  51.512  42.592  1.00  0.00     0.015 A 
HETATM   11  C   UNL     1      33.984  51.295  42.727  1.00  0.00     0.001 A 
HETATM   12  C   UNL     1      34.801  51.291  41.602  1.00  0.00     0.003 A 
HETATM   13  C   UNL     1      34.241  51.498  40.344  1.00  0.00     0.037 A 
BRANCH   9  14
HETATM   14  C   UNL     1      30.545  51.947  41.255  1.00  0.00    -0.023 A 
HETATM   15  C   UNL     1      29.631  50.954  41.662  1.00  0.00     0.012 A 
HETATM   16  C   UNL     1      28.251  51.176  41.642  1.00  0.00     0.001 A 
HETATM   17  C   UNL     1      27.750  52.397  41.203  1.00  0.00     0.000 A 
HETATM   18  C   UNL     1      28.630  53.392  40.784  1.00  0.00     0.001 A 
HETATM   19  C   UNL     1      30.011  53.170  40.816  1.00  0.00     0.012 A 
ENDBRANCH   9  14
ENDBRANCH   7   8
ENDBRANCH   6   7
ENDBRANCH   3   6
BRANCH   2  20
HETATM   20  C   UNL     1      30.973  48.033  39.185  1.00  0.00     0.159 C 
BRANCH  20  21
HETATM   21  C   UNL     1      31.331  48.144  40.640  1.00  0.00    -0.017 C 
HETATM   22  C   UNL     1      32.538  48.028  41.208  1.00  0.00     0.008 C 
ENDBRANCH  20  21
ENDBRANCH   2  20
BRANCH   1  23
HETATM   23  S   UNL     1      27.737  48.031  38.680  1.00  0.00    -0.081 SA
BRANCH  23  24
HETATM   24  C   UNL     1      26.444  48.949  39.553  1.00  0.00     0.185 C 
BRANCH  24  25
HETATM   25  C   UNL     1      25.217  49.350  38.749  1.00  0.00     0.226 C 
HETATM   26  N   UNL     1      24.208  50.028  39.386  1.00  0.00    -0.365 N 
HETATM   27  C   UNL     1      22.943  50.274  38.743  1.00  0.00     0.149 C 
HETATM   28  H   UNL     1      24.218  50.058  40.403  1.00  0.00     0.161 HD
HETATM   29  O   UNL     1      25.131  49.015  37.565  1.00  0.00    -0.273 OA
ENDBRANCH  24  25
ENDBRANCH  23  24
ENDBRANCH   1  23
TORSDOF 9
ENDMDL
MODEL 9
REMARK VINA RESULT:      -7.8      4.600      7.472
REMARK  9 active torsions:
REMARK  status: ('A' for Active; 'I' for Inactive)
REMARK       I    between atoms: N_2  and  C_3 
REMARK    1  A    between atoms: C_3  and  C_4 
REMARK    2  A    between atoms: C_4  and  S_5 
REMARK    3  A    between atoms: S_5  and  C_6 
REMARK    4  A    between atoms: N_7  and  C_8 
REMARK    5  A    between atoms: C_8  and  C_9 
REMARK    6  A    between atoms: C_11  and  C_12 
REMARK    7  A    between atoms: C_12  and  O_13 
REMARK    8  A    between atoms: O_13  and  C_14 
REMARK    9  A    between atoms: C_15  and  C_16 
ROOT
HETATM    1  C   UNL     1      25.339  42.966  50.348  1.00  0.00     0.192 A 
HETATM    2  N   UNL     1      25.500  43.994  51.237  1.00  0.00    -0.306 N 
HETATM    3  C   UNL     1      25.004  45.109  50.592  1.00  0.00     0.155 A 
HETATM    4  N   UNL     1      24.521  44.740  49.419  1.00  0.00    -0.132 NA
HETATM    5  N   UNL     1      24.740  43.397  49.266  1.00  0.00    -0.123 NA
ENDROOT
BRANCH   3   6
HETATM    6  C   UNL     1      25.022  46.502  51.123  1.00  0.00     0.256 C 
BRANCH   6   7
HETATM    7  O   UNL     1      24.414  47.321  50.121  1.00  0.00    -0.343 OA
BRANCH   7   8
HETATM    8  C   UNL     1      25.312  48.214  49.591  1.00  0.00     0.080 A 
HETATM    9  C   UNL     1      24.874  49.312  48.824  1.00  0.00     0.007 A 
HETATM   10  C   UNL     1      25.874  50.136  48.261  1.00  0.00     0.015 A 
HETATM   11  C   UNL     1      27.235  49.877  48.451  1.00  0.00     0.001 A 
HETATM   12  C   UNL     1      27.636  48.776  49.198  1.00  0.00     0.003 A 
HETATM   13  C   UNL     1      26.676  47.937  49.757  1.00  0.00     0.037 A 
BRANCH   9  14
HETATM   14  C   UNL     1      23.448  49.634  48.578  1.00  0.00    -0.023 A 
HETATM   15  C   UNL     1      22.577  48.681  48.014  1.00  0.00     0.012 A 
HETATM   16  C   UNL     1      21.219  48.953  47.819  1.00  0.00     0.001 A 
HETATM   17  C   UNL     1      20.701  50.194  48.176  1.00  0.00     0.000 A 
HETATM   18  C   UNL     1      21.541  51.158  48.725  1.00  0.00     0.001 A 
HETATM   19  C   UNL     1      22.897  50.879  48.929  1.00  0.00     0.012 A 
ENDBRANCH   9  14
ENDBRANCH   7   8
ENDBRANCH   6   7
ENDBRANCH   3   6
BRANCH   2  20
HETATM   20  C   UNL     1      25.954  43.907  52.615  1.00  0.00     0.159 C 
BRANCH  20  21
HETATM   21  C   UNL     1      27.378  44.304  52.879  1.00  0.00    -0.017 C 
HETATM   22  C   UNL     1      28.188  43.883  53.860  1.00  0.00     0.008 C 
ENDBRANCH  20  21
ENDBRANCH   2  20
BRANCH   1  23
HETATM   23  S   UNL     1      25.830  41.331  50.596  1.00  0.00    -0.081 SA
BRANCH  23  24
HETATM   24  C   UNL     1      27.624  41.487  50.412  1.00  0.00     0.185 C 
BRANCH  24  25
HETATM   25  C   UNL     1      28.392  40.235  50.017  1.00  0.00     0.226 C 
HETATM   26  N   UNL     1      28.841  39.401  51.008  1.00  0.00    -0.365 N 
HETATM   27  C   UNL     1      29.729  38.303  50.724  1.00  0.00     0.149 C 
HETATM   28  H   UNL     1      28.830  39.744  51.966  1.00  0.00     0.161 HD
HETATM   29  O   UNL     1      28.637  40.024  48.826  1.00  0.00    -0.273 OA
ENDBRANCH  24  25
ENDBRANCH  23  24
ENDBRANCH   1  23
TORSDOF 9
ENDMDL
MODEL 10
REMARK VINA RESULT:      -7.8      9.333     12.918
REMARK  9 active torsions:
REMARK  status: ('A' for Active; 'I' for Inactive)
REMARK       I    between atoms: N_2  and  C_3 
REMARK    1  A    between atoms: C_3  and  C_4 
REMARK    2  A    between atoms: C_4  and  S_5 
REMARK    3  A    between atoms: S_5  and  C_6 
REMARK    4  A    between atoms: N_7  and  C_8 
REMARK    5  A    between atoms: C_8  and  C_9 
REMARK    6  A    between atoms: C_11  and  C_12 
REMARK    7  A    between atoms: C_12  and  O_13 
REMARK    8  A    between atoms: O_13  and  C_14 
REMARK    9  A    between atoms: C_15  and  C_16 
ROOT
HETATM    1  C   UNL     1      22.678  48.704  49.232  1.00  0.00     0.192 A 
HETATM    2  N   UNL     1      21.373  49.111  49.186  1.00  0.00    -0.306 N 
HETATM    3  C   UNL     1      21.390  50.427  49.604  1.00  0.00     0.155 A 
HETATM    4  N   UNL     1      22.643  50.786  49.819  1.00  0.00    -0.132 NA
HETATM    5  N   UNL     1      23.448  49.701  49.593  1.00  0.00    -0.123 NA
ENDROOT
BRANCH   3   6
HETATM    6  C   UNL     1      20.194  51.295  49.796  1.00  0.00     0.256 C 
BRANCH   6   7
HETATM    7  O   UNL     1      19.558  51.390  48.518  1.00  0.00    -0.343 OA
BRANCH   7   8
HETATM    8  C   UNL     1      18.222  51.677  48.643  1.00  0.00     0.080 A 
HETATM    9  C   UNL     1      17.315  51.364  47.611  1.00  0.00     0.007 A 
HETATM   10  C   UNL     1      15.973  51.761  47.801  1.00  0.00     0.015 A 
HETATM   11  C   UNL     1      15.558  52.434  48.954  1.00  0.00     0.001 A 
HETATM   12  C   UNL     1      16.481  52.744  49.947  1.00  0.00     0.003 A 
HETATM   13  C   UNL     1      17.814  52.377  49.787  1.00  0.00     0.037 A 
BRANCH   9  14
HETATM   14  C   UNL     1      17.692  50.662  46.361  1.00  0.00    -0.023 A 
HETATM   15  C   UNL     1      17.694  49.254  46.294  1.00  0.00     0.012 A 
HETATM   16  C   UNL     1      18.002  48.578  45.110  1.00  0.00     0.001 A 
HETATM   17  C   UNL     1      18.326  49.296  43.963  1.00  0.00     0.000 A 
HETATM   18  C   UNL     1      18.343  50.687  44.005  1.00  0.00     0.001 A 
HETATM   19  C   UNL     1      18.024  51.361  45.189  1.00  0.00     0.012 A 
ENDBRANCH   9  14
ENDBRANCH   7   8
ENDBRANCH   6   7
ENDBRANCH   3   6
BRANCH   2  20
HETATM   20  C   UNL     1      20.235  48.371  48.667  1.00  0.00     0.159 C 
BRANCH  20  21
HETATM   21  C   UNL     1      19.240  47.873  49.676  1.00  0.00    -0.017 C 
HETATM   22  C   UNL     1      17.965  48.250  49.839  1.00  0.00     0.008 C 
ENDBRANCH  20  21
ENDBRANCH   2  20
BRANCH   1  23
HETATM   23  S   UNL     1      23.257  47.122  48.861  1.00  0.00    -0.081 SA
BRANCH  23  24
HETATM   24  C   UNL     1      24.532  46.923  50.131  1.00  0.00     0.185 C 
BRANCH  24  25
HETATM   25  C   UNL     1      25.971  47.179  49.712  1.00  0.00     0.226 C 
HETATM   26  N   UNL     1      26.412  48.476  49.636  1.00  0.00    -0.365 N 
HETATM   27  C   UNL     1      27.696  48.804  49.071  1.00  0.00     0.149 C 
HETATM   28  H   UNL     1      25.718  49.221  49.659  1.00  0.00     0.161 HD
HETATM   29  O   UNL     1      26.692  46.227  49.403  1.00  0.00    -0.273 OA
ENDBRANCH  24  25
ENDBRANCH  23  24
ENDBRANCH   1  23
TORSDOF 9
ENDMDL
