MODEL 1
REMARK VINA RESULT:      -9.5      0.000      0.000
REMARK  8 active torsions:
REMARK  status: ('A' for Active; 'I' for Inactive)
REMARK    1  A    between atoms: C_4  and  N_5 
REMARK       I    between atoms: N_5  and  C_6 
REMARK    2  A    between atoms: C_6  and  C_7 
REMARK    3  A    between atoms: C_7  and  N_8 
REMARK       I    between atoms: N_8  and  C_9 
REMARK    4  A    between atoms: C_9  and  C_10 
REMARK    5  A    between atoms: C_10  and  S_11 
REMARK    6  A    between atoms: S_11  and  C_12 
REMARK    7  A    between atoms: C_14  and  C_15 
REMARK    8  A    between atoms: C_27  and  O_28 
ROOT
HETATM    1  N   UNL     1      26.116  44.590  51.069  1.00  0.00    -0.352 N 
HETATM    2  C   UNL     1      25.771  43.394  50.466  1.00  0.00     0.227 C 
HETATM    3  O   UNL     1      24.696  42.849  50.703  1.00  0.00    -0.273 OA
HETATM    4  H   UNL     1      26.882  45.135  50.690  1.00  0.00     0.162 HD
ENDROOT
BRANCH   2   5
HETATM    5  C   UNL     1      26.849  42.862  49.533  1.00  0.00     0.185 C 
BRANCH   5   6
HETATM    6  S   UNL     1      27.556  41.300  50.126  1.00  0.00    -0.081 SA
BRANCH   6   7
HETATM    7  C   UNL     1      27.905  41.734  51.750  1.00  0.00     0.185 A 
HETATM    8  N   UNL     1      28.637  42.724  52.187  1.00  0.00    -0.201 NA
HETATM    9  C   UNL     1      28.552  42.606  53.560  1.00  0.00     0.185 A 
HETATM   10  N   UNL     1      27.789  41.572  53.965  1.00  0.00    -0.152 NA
HETATM   11  N   UNL     1      27.397  41.039  52.795  1.00  0.00    -0.253 N 
HETATM   12  H   UNL     1      26.793  40.227  52.782  1.00  0.00     0.191 HD
BRANCH   9  13
HETATM   13  C   UNL     1      29.218  43.524  54.479  1.00  0.00     0.052 A 
HETATM   14  C   UNL     1      28.736  44.819  54.703  1.00  0.00     0.130 A 
HETATM   15  F   UNL     1      27.641  45.276  54.077  1.00  0.00    -0.205 F 
HETATM   16  C   UNL     1      29.380  45.688  55.586  1.00  0.00     0.043 A 
HETATM   17  C   UNL     1      30.524  45.274  56.265  1.00  0.00     0.003 A 
HETATM   18  C   UNL     1      31.021  43.990  56.057  1.00  0.00     0.001 A 
HETATM   19  C   UNL     1      30.374  43.122  55.171  1.00  0.00     0.018 A 
ENDBRANCH   9  13
ENDBRANCH   6   7
ENDBRANCH   5   6
ENDBRANCH   2   5
BRANCH   1  20
HETATM   20  C   UNL     1      25.202  45.256  51.978  1.00  0.00     0.225 C 
BRANCH  20  21
HETATM   21  C   UNL     1      25.007  46.719  51.576  1.00  0.00     0.239 C 
HETATM   22  N   UNL     1      24.692  46.864  50.240  1.00  0.00    -0.323 N 
HETATM   23  H   UNL     1      24.742  46.027  49.653  1.00  0.00     0.169 HD
HETATM   24  O   UNL     1      25.185  47.619  52.392  1.00  0.00    -0.271 OA
BRANCH  22  25
HETATM   25  C   UNL     1      24.387  48.049  49.533  1.00  0.00     0.069 A 
HETATM   26  C   UNL     1      23.084  48.517  49.343  1.00  0.00     0.039 A 
HETATM   27  C   UNL     1      22.845  49.699  48.626  1.00  0.00    -0.060 A 
HETATM   28  C   UNL     1      21.439  50.171  48.396  1.00  0.00     0.048 C 
HETATM   29  C   UNL     1      23.925  50.396  48.079  1.00  0.00     0.009 A 
HETATM   30  C   UNL     1      25.232  49.935  48.258  1.00  0.00     0.039 A 
HETATM   31  C   UNL     1      25.470  48.764  48.980  1.00  0.00     0.095 A 
BRANCH  31  32
HETATM   32  O   UNL     1      26.712  48.218  49.206  1.00  0.00    -0.354 OA
HETATM   33  C   UNL     1      27.832  49.088  49.119  1.00  0.00     0.210 C 
ENDBRANCH  31  32
ENDBRANCH  22  25
ENDBRANCH  20  21
ENDBRANCH   1  20
TORSDOF 8
ENDMDL
MODEL 2
REMARK VINA RESULT:      -9.4      2.900      9.548
REMARK  8 active torsions:
REMARK  status: ('A' for Active; 'I' for Inactive)
REMARK    1  A    between atoms: C_4  and  N_5 
REMARK       I    between atoms: N_5  and  C_6 
REMARK    2  A    between atoms: C_6  and  C_7 
REMARK    3  A    between atoms: C_7  and  N_8 
REMARK       I    between atoms: N_8  and  C_9 
REMARK    4  A    between atoms: C_9  and  C_10 
REMARK    5  A    between atoms: C_10  and  S_11 
REMARK    6  A    between atoms: S_11  and  C_12 
REMARK    7  A    between atoms: C_14  and  C_15 
REMARK    8  A    between atoms: C_27  and  O_28 
ROOT
HETATM    1  N   UNL     1      26.247  44.625  51.509  1.00  0.00    -0.352 N 
HETATM    2  C   UNL     1      26.441  45.270  50.302  1.00  0.00     0.227 C 
HETATM    3  O   UNL     1      27.299  44.891  49.509  1.00  0.00    -0.273 OA
HETATM    4  H   UNL     1      25.396  44.797  52.033  1.00  0.00     0.162 HD
ENDROOT
BRANCH   2   5
HETATM    5  C   UNL     1      25.513  46.459  50.103  1.00  0.00     0.185 C 
BRANCH   5   6
HETATM    6  S   UNL     1      26.428  47.998  49.808  1.00  0.00    -0.081 SA
BRANCH   6   7
HETATM    7  C   UNL     1      25.194  48.934  49.066  1.00  0.00     0.185 A 
HETATM    8  N   UNL     1      23.940  49.048  49.414  1.00  0.00    -0.201 NA
HETATM    9  C   UNL     1      23.427  49.933  48.487  1.00  0.00     0.185 A 
HETATM   10  N   UNL     1      24.336  50.358  47.588  1.00  0.00    -0.152 NA
HETATM   11  N   UNL     1      25.444  49.705  47.980  1.00  0.00    -0.253 N 
HETATM   12  H   UNL     1      26.315  49.833  47.481  1.00  0.00     0.191 HD
BRANCH   9  13
HETATM   13  C   UNL     1      22.035  50.372  48.493  1.00  0.00     0.052 A 
HETATM   14  C   UNL     1      21.464  50.992  49.610  1.00  0.00     0.130 A 
HETATM   15  F   UNL     1      22.172  51.206  50.730  1.00  0.00    -0.205 F 
HETATM   16  C   UNL     1      20.132  51.410  49.605  1.00  0.00     0.043 A 
HETATM   17  C   UNL     1      19.343  51.214  48.473  1.00  0.00     0.003 A 
HETATM   18  C   UNL     1      19.890  50.598  47.350  1.00  0.00     0.001 A 
HETATM   19  C   UNL     1      21.225  50.180  47.360  1.00  0.00     0.018 A 
ENDBRANCH   9  13
ENDBRANCH   6   7
ENDBRANCH   5   6
ENDBRANCH   2   5
BRANCH   1  20
HETATM   20  C   UNL     1      27.031  43.457  51.864  1.00  0.00     0.225 C 
BRANCH  20  21
HETATM   21  C   UNL     1      27.455  43.513  53.333  1.00  0.00     0.239 C 
HETATM   22  N   UNL     1      28.603  44.254  53.525  1.00  0.00    -0.323 N 
HETATM   23  H   UNL     1      29.102  44.571  52.689  1.00  0.00     0.169 HD
HETATM   24  O   UNL     1      26.827  42.893  54.187  1.00  0.00    -0.271 OA
BRANCH  22  25
HETATM   25  C   UNL     1      29.251  44.570  54.740  1.00  0.00     0.069 A 
HETATM   26  C   UNL     1      30.263  43.785  55.299  1.00  0.00     0.039 A 
HETATM   27  C   UNL     1      30.866  44.149  56.512  1.00  0.00    -0.060 A 
HETATM   28  C   UNL     1      31.923  43.277  57.122  1.00  0.00     0.048 C 
HETATM   29  C   UNL     1      30.426  45.298  57.174  1.00  0.00     0.009 A 
HETATM   30  C   UNL     1      29.411  46.089  56.628  1.00  0.00     0.039 A 
HETATM   31  C   UNL     1      28.820  45.731  55.415  1.00  0.00     0.095 A 
BRANCH  31  32
HETATM   32  O   UNL     1      27.810  46.430  54.796  1.00  0.00    -0.354 OA
HETATM   33  C   UNL     1      27.372  47.631  55.418  1.00  0.00     0.210 C 
ENDBRANCH  31  32
ENDBRANCH  22  25
ENDBRANCH  20  21
ENDBRANCH   1  20
TORSDOF 8
ENDMDL
MODEL 3
REMARK VINA RESULT:      -9.4      2.967      9.420
REMARK  8 active torsions:
REMARK  status: ('A' for Active; 'I' for Inactive)
REMARK    1  A    between atoms: C_4  and  N_5 
REMARK       I    between atoms: N_5  and  C_6 
REMARK    2  A    between atoms: C_6  and  C_7 
REMARK    3  A    between atoms: C_7  and  N_8 
REMARK       I    between atoms: N_8  and  C_9 
REMARK    4  A    between atoms: C_9  and  C_10 
REMARK    5  A    between atoms: C_10  and  S_11 
REMARK    6  A    between atoms: S_11  and  C_12 
REMARK    7  A    between atoms: C_14  and  C_15 
REMARK    8  A    between atoms: C_27  and  O_28 
ROOT
HETATM    1  N   UNL     1      25.737  47.291  52.206  1.00  0.00    -0.352 N 
HETATM    2  C   UNL     1      25.138  46.307  51.442  1.00  0.00     0.227 C 
HETATM    3  O   UNL     1      24.659  45.302  51.960  1.00  0.00    -0.273 OA
HETATM    4  H   UNL     1      25.907  48.203  51.797  1.00  0.00     0.162 HD
ENDROOT
BRANCH   2   5
HETATM    5  C   UNL     1      25.164  46.609  49.950  1.00  0.00     0.185 C 
BRANCH   5   6
HETATM    6  S   UNL     1      26.107  48.113  49.574  1.00  0.00    -0.081 SA
BRANCH   6   7
HETATM    7  C   UNL     1      24.846  49.104  48.961  1.00  0.00     0.185 A 
HETATM    8  N   UNL     1      23.604  49.178  49.361  1.00  0.00    -0.201 NA
HETATM    9  C   UNL     1      23.057  50.140  48.534  1.00  0.00     0.185 A 
HETATM   10  N   UNL     1      23.934  50.649  47.647  1.00  0.00    -0.152 NA
HETATM   11  N   UNL     1      25.056  49.971  47.942  1.00  0.00    -0.253 N 
HETATM   12  H   UNL     1      25.909  50.148  47.427  1.00  0.00     0.191 HD
BRANCH   9  13
HETATM   13  C   UNL     1      21.665  50.568  48.626  1.00  0.00     0.052 A 
HETATM   14  C   UNL     1      21.126  51.067  49.818  1.00  0.00     0.130 A 
HETATM   15  F   UNL     1      21.867  51.171  50.931  1.00  0.00    -0.205 F 
HETATM   16  C   UNL     1      19.793  51.476  49.894  1.00  0.00     0.043 A 
HETATM   17  C   UNL     1      18.971  51.391  48.773  1.00  0.00     0.003 A 
HETATM   18  C   UNL     1      19.485  50.896  47.577  1.00  0.00     0.001 A 
HETATM   19  C   UNL     1      20.821  50.488  47.504  1.00  0.00     0.018 A 
ENDBRANCH   9  13
ENDBRANCH   6   7
ENDBRANCH   5   6
ENDBRANCH   2   5
BRANCH   1  20
HETATM   20  C   UNL     1      25.790  47.182  53.652  1.00  0.00     0.225 C 
BRANCH  20  21
HETATM   21  C   UNL     1      27.127  46.592  54.103  1.00  0.00     0.239 C 
HETATM   22  N   UNL     1      27.299  45.288  53.686  1.00  0.00    -0.323 N 
HETATM   23  H   UNL     1      26.498  44.827  53.245  1.00  0.00     0.169 HD
HETATM   24  O   UNL     1      27.891  47.246  54.808  1.00  0.00    -0.271 OA
BRANCH  22  25
HETATM   25  C   UNL     1      28.422  44.450  53.864  1.00  0.00     0.069 A 
HETATM   26  C   UNL     1      29.184  44.422  55.036  1.00  0.00     0.039 A 
HETATM   27  C   UNL     1      30.293  43.571  55.150  1.00  0.00    -0.060 A 
HETATM   28  C   UNL     1      31.125  43.579  56.399  1.00  0.00     0.048 C 
HETATM   29  C   UNL     1      30.648  42.764  54.067  1.00  0.00     0.009 A 
HETATM   30  C   UNL     1      29.897  42.785  52.888  1.00  0.00     0.039 A 
HETATM   31  C   UNL     1      28.787  43.626  52.779  1.00  0.00     0.095 A 
BRANCH  31  32
HETATM   32  O   UNL     1      27.989  43.733  51.665  1.00  0.00    -0.354 OA
HETATM   33  C   UNL     1      27.101  42.657  51.392  1.00  0.00     0.210 C 
ENDBRANCH  31  32
ENDBRANCH  22  25
ENDBRANCH  20  21
ENDBRANCH   1  20
TORSDOF 8
ENDMDL
MODEL 4
REMARK VINA RESULT:      -9.0      2.055      3.427
REMARK  8 active torsions:
REMARK  status: ('A' for Active; 'I' for Inactive)
REMARK    1  A    between atoms: C_4  and  N_5 
REMARK       I    between atoms: N_5  and  C_6 
REMARK    2  A    between atoms: C_6  and  C_7 
REMARK    3  A    between atoms: C_7  and  N_8 
REMARK       I    between atoms: N_8  and  C_9 
REMARK    4  A    between atoms: C_9  and  C_10 
REMARK    5  A    between atoms: C_10  and  S_11 
REMARK    6  A    between atoms: S_11  and  C_12 
REMARK    7  A    between atoms: C_14  and  C_15 
REMARK    8  A    between atoms: C_27  and  O_28 
ROOT
HETATM    1  N   UNL     1      25.705  47.931  49.756  1.00  0.00    -0.352 N 
HETATM    2  C   UNL     1      26.487  46.792  49.727  1.00  0.00     0.227 C 
HETATM    3  O   UNL     1      27.471  46.714  48.996  1.00  0.00    -0.273 OA
HETATM    4  H   UNL     1      25.054  48.068  50.522  1.00  0.00     0.162 HD
ENDROOT
BRANCH   2   5
HETATM    5  C   UNL     1      25.983  45.697  50.656  1.00  0.00     0.185 C 
BRANCH   5   6
HETATM    6  S   UNL     1      26.904  44.147  50.448  1.00  0.00    -0.081 SA
BRANCH   6   7
HETATM    7  C   UNL     1      27.378  43.868  52.075  1.00  0.00     0.185 A 
HETATM    8  N   UNL     1      28.453  44.284  52.690  1.00  0.00    -0.201 NA
HETATM    9  C   UNL     1      28.305  43.786  53.970  1.00  0.00     0.185 A 
HETATM   10  N   UNL     1      27.170  43.079  54.144  1.00  0.00    -0.152 NA
HETATM   11  N   UNL     1      26.608  43.149  52.925  1.00  0.00    -0.253 N 
HETATM   12  H   UNL     1      25.718  42.700  52.748  1.00  0.00     0.191 HD
BRANCH   9  13
HETATM   13  C   UNL     1      29.282  44.015  55.029  1.00  0.00     0.052 A 
HETATM   14  C   UNL     1      29.280  45.190  55.789  1.00  0.00     0.130 A 
HETATM   15  F   UNL     1      28.381  46.162  55.572  1.00  0.00    -0.205 F 
HETATM   16  C   UNL     1      30.218  45.398  56.803  1.00  0.00     0.043 A 
HETATM   17  C   UNL     1      31.179  44.428  57.075  1.00  0.00     0.003 A 
HETATM   18  C   UNL     1      31.200  43.250  56.331  1.00  0.00     0.001 A 
HETATM   19  C   UNL     1      30.259  43.046  55.316  1.00  0.00     0.018 A 
ENDBRANCH   9  13
ENDBRANCH   6   7
ENDBRANCH   5   6
ENDBRANCH   2   5
BRANCH   1  20
HETATM   20  C   UNL     1      26.043  49.088  48.947  1.00  0.00     0.225 C 
BRANCH  20  21
HETATM   21  C   UNL     1      24.811  49.612  48.208  1.00  0.00     0.239 C 
HETATM   22  N   UNL     1      23.633  49.092  48.705  1.00  0.00    -0.323 N 
HETATM   23  H   UNL     1      23.708  48.347  49.403  1.00  0.00     0.169 HD
HETATM   24  O   UNL     1      24.935  50.366  47.246  1.00  0.00    -0.271 OA
BRANCH  22  25
HETATM   25  C   UNL     1      22.308  49.389  48.315  1.00  0.00     0.069 A 
HETATM   26  C   UNL     1      21.691  50.619  48.560  1.00  0.00     0.039 A 
HETATM   27  C   UNL     1      20.369  50.852  48.152  1.00  0.00    -0.060 A 
HETATM   28  C   UNL     1      19.705  52.163  48.456  1.00  0.00     0.048 C 
HETATM   29  C   UNL     1      19.661  49.829  47.517  1.00  0.00     0.009 A 
HETATM   30  C   UNL     1      20.265  48.593  47.270  1.00  0.00     0.039 A 
HETATM   31  C   UNL     1      21.585  48.365  47.668  1.00  0.00     0.095 A 
BRANCH  31  32
HETATM   32  O   UNL     1      22.269  47.187  47.484  1.00  0.00    -0.354 OA
HETATM   33  C   UNL     1      21.733  46.261  46.549  1.00  0.00     0.210 C 
ENDBRANCH  31  32
ENDBRANCH  22  25
ENDBRANCH  20  21
ENDBRANCH   1  20
TORSDOF 8
ENDMDL
MODEL 5
REMARK VINA RESULT:      -9.0      1.948      2.506
REMARK  8 active torsions:
REMARK  status: ('A' for Active; 'I' for Inactive)
REMARK    1  A    between atoms: C_4  and  N_5 
REMARK       I    between atoms: N_5  and  C_6 
REMARK    2  A    between atoms: C_6  and  C_7 
REMARK    3  A    between atoms: C_7  and  N_8 
REMARK       I    between atoms: N_8  and  C_9 
REMARK    4  A    between atoms: C_9  and  C_10 
REMARK    5  A    between atoms: C_10  and  S_11 
REMARK    6  A    between atoms: S_11  and  C_12 
REMARK    7  A    between atoms: C_14  and  C_15 
REMARK    8  A    between atoms: C_27  and  O_28 
ROOT
HETATM    1  N   UNL     1      24.256  44.747  48.795  1.00  0.00    -0.352 N 
HETATM    2  C   UNL     1      25.031  45.226  49.836  1.00  0.00     0.227 C 
HETATM    3  O   UNL     1      24.529  45.839  50.774  1.00  0.00    -0.273 OA
HETATM    4  H   UNL     1      24.643  44.052  48.166  1.00  0.00     0.162 HD
ENDROOT
BRANCH   2   5
HETATM    5  C   UNL     1      26.513  44.923  49.665  1.00  0.00     0.185 C 
BRANCH   5   6
HETATM    6  S   UNL     1      26.880  43.159  49.879  1.00  0.00    -0.081 SA
BRANCH   6   7
HETATM    7  C   UNL     1      27.338  43.153  51.533  1.00  0.00     0.185 A 
HETATM    8  N   UNL     1      28.311  43.809  52.109  1.00  0.00    -0.201 NA
HETATM    9  C   UNL     1      28.203  43.445  53.437  1.00  0.00     0.185 A 
HETATM   10  N   UNL     1      27.191  42.588  53.679  1.00  0.00    -0.152 NA
HETATM   11  N   UNL     1      26.665  42.422  52.453  1.00  0.00    -0.253 N 
HETATM   12  H   UNL     1      25.865  41.817  52.319  1.00  0.00     0.191 HD
BRANCH   9  13
HETATM   13  C   UNL     1      29.093  43.953  54.475  1.00  0.00     0.052 A 
HETATM   14  C   UNL     1      28.919  45.223  55.037  1.00  0.00     0.130 A 
HETATM   15  F   UNL     1      27.925  46.033  54.642  1.00  0.00    -0.205 F 
HETATM   16  C   UNL     1      29.776  45.698  56.032  1.00  0.00     0.043 A 
HETATM   17  C   UNL     1      30.830  44.906  56.483  1.00  0.00     0.003 A 
HETATM   18  C   UNL     1      31.023  43.639  55.937  1.00  0.00     0.001 A 
HETATM   19  C   UNL     1      30.162  43.167  54.941  1.00  0.00     0.018 A 
ENDBRANCH   9  13
ENDBRANCH   6   7
ENDBRANCH   5   6
ENDBRANCH   2   5
BRANCH   1  20
HETATM   20  C   UNL     1      22.816  44.927  48.796  1.00  0.00     0.225 C 
BRANCH  20  21
HETATM   21  C   UNL     1      22.436  46.266  48.162  1.00  0.00     0.239 C 
HETATM   22  N   UNL     1      22.180  47.243  49.102  1.00  0.00    -0.323 N 
HETATM   23  H   UNL     1      22.150  46.954  50.084  1.00  0.00     0.169 HD
HETATM   24  O   UNL     1      22.331  46.372  46.943  1.00  0.00    -0.271 OA
BRANCH  22  25
HETATM   25  C   UNL     1      21.861  48.604  48.890  1.00  0.00     0.069 A 
HETATM   26  C   UNL     1      20.619  49.038  48.419  1.00  0.00     0.039 A 
HETATM   27  C   UNL     1      20.364  50.403  48.224  1.00  0.00    -0.060 A 
HETATM   28  C   UNL     1      19.040  50.854  47.681  1.00  0.00     0.048 C 
HETATM   29  C   UNL     1      21.377  51.330  48.482  1.00  0.00     0.009 A 
HETATM   30  C   UNL     1      22.625  50.908  48.949  1.00  0.00     0.039 A 
HETATM   31  C   UNL     1      22.874  49.549  49.153  1.00  0.00     0.095 A 
BRANCH  31  32
HETATM   32  O   UNL     1      24.066  49.027  49.597  1.00  0.00    -0.354 OA
HETATM   33  C   UNL     1      25.223  49.280  48.811  1.00  0.00     0.210 C 
ENDBRANCH  31  32
ENDBRANCH  22  25
ENDBRANCH  20  21
ENDBRANCH   1  20
TORSDOF 8
ENDMDL
MODEL 6
REMARK VINA RESULT:      -9.0      2.844      9.183
REMARK  8 active torsions:
REMARK  status: ('A' for Active; 'I' for Inactive)
REMARK    1  A    between atoms: C_4  and  N_5 
REMARK       I    between atoms: N_5  and  C_6 
REMARK    2  A    between atoms: C_6  and  C_7 
REMARK    3  A    between atoms: C_7  and  N_8 
REMARK       I    between atoms: N_8  and  C_9 
REMARK    4  A    between atoms: C_9  and  C_10 
REMARK    5  A    between atoms: C_10  and  S_11 
REMARK    6  A    between atoms: S_11  and  C_12 
REMARK    7  A    between atoms: C_14  and  C_15 
REMARK    8  A    between atoms: C_27  and  O_28 
ROOT
HETATM    1  N   UNL     1      25.428  45.339  50.992  1.00  0.00    -0.352 N 
HETATM    2  C   UNL     1      25.944  46.620  50.933  1.00  0.00     0.227 C 
HETATM    3  O   UNL     1      25.763  47.422  51.846  1.00  0.00    -0.273 OA
HETATM    4  H   UNL     1      25.781  44.631  50.357  1.00  0.00     0.162 HD
ENDROOT
BRANCH   2   5
HETATM    5  C   UNL     1      26.712  46.897  49.649  1.00  0.00     0.185 C 
BRANCH   5   6
HETATM    6  S   UNL     1      27.179  48.643  49.495  1.00  0.00    -0.081 SA
BRANCH   6   7
HETATM    7  C   UNL     1      25.735  49.274  48.813  1.00  0.00     0.185 A 
HETATM    8  N   UNL     1      24.506  49.120  49.228  1.00  0.00    -0.201 NA
HETATM    9  C   UNL     1      23.765  49.853  48.322  1.00  0.00     0.185 A 
HETATM   10  N   UNL     1      24.514  50.447  47.371  1.00  0.00    -0.152 NA
HETATM   11  N   UNL     1      25.755  50.058  47.709  1.00  0.00    -0.253 N 
HETATM   12  H   UNL     1      26.551  50.362  47.162  1.00  0.00     0.191 HD
BRANCH   9  13
HETATM   13  C   UNL     1      22.314  49.980  48.399  1.00  0.00     0.052 A 
HETATM   14  C   UNL     1      21.468  48.885  48.186  1.00  0.00     0.130 A 
HETATM   15  F   UNL     1      21.956  47.670  47.896  1.00  0.00    -0.205 F 
HETATM   16  C   UNL     1      20.080  49.017  48.265  1.00  0.00     0.043 A 
HETATM   17  C   UNL     1      19.511  50.254  48.560  1.00  0.00     0.003 A 
HETATM   18  C   UNL     1      20.334  51.357  48.775  1.00  0.00     0.001 A 
HETATM   19  C   UNL     1      21.724  51.221  48.695  1.00  0.00     0.018 A 
ENDBRANCH   9  13
ENDBRANCH   6   7
ENDBRANCH   5   6
ENDBRANCH   2   5
BRANCH   1  20
HETATM   20  C   UNL     1      24.681  44.889  52.152  1.00  0.00     0.225 C 
BRANCH  20  21
HETATM   21  C   UNL     1      25.628  44.435  53.265  1.00  0.00     0.239 C 
HETATM   22  N   UNL     1      26.956  44.552  52.910  1.00  0.00    -0.323 N 
HETATM   23  H   UNL     1      27.163  44.800  51.939  1.00  0.00     0.169 HD
HETATM   24  O   UNL     1      25.183  43.973  54.312  1.00  0.00    -0.271 OA
BRANCH  22  25
HETATM   25  C   UNL     1      28.101  44.286  53.695  1.00  0.00     0.069 A 
HETATM   26  C   UNL     1      28.483  45.068  54.789  1.00  0.00     0.039 A 
HETATM   27  C   UNL     1      29.634  44.756  55.527  1.00  0.00    -0.060 A 
HETATM   28  C   UNL     1      30.054  45.626  56.675  1.00  0.00     0.048 C 
HETATM   29  C   UNL     1      30.416  43.665  55.141  1.00  0.00     0.009 A 
HETATM   30  C   UNL     1      30.048  42.878  54.046  1.00  0.00     0.039 A 
HETATM   31  C   UNL     1      28.896  43.183  53.319  1.00  0.00     0.095 A 
BRANCH  31  32
HETATM   32  O   UNL     1      28.450  42.484  52.222  1.00  0.00    -0.354 OA
HETATM   33  C   UNL     1      28.514  41.065  52.284  1.00  0.00     0.210 C 
ENDBRANCH  31  32
ENDBRANCH  22  25
ENDBRANCH  20  21
ENDBRANCH   1  20
TORSDOF 8
ENDMDL
MODEL 7
REMARK VINA RESULT:      -8.5      2.787      4.415
REMARK  8 active torsions:
REMARK  status: ('A' for Active; 'I' for Inactive)
REMARK    1  A    between atoms: C_4  and  N_5 
REMARK       I    between atoms: N_5  and  C_6 
REMARK    2  A    between atoms: C_6  and  C_7 
REMARK    3  A    between atoms: C_7  and  N_8 
REMARK       I    between atoms: N_8  and  C_9 
REMARK    4  A    between atoms: C_9  and  C_10 
REMARK    5  A    between atoms: C_10  and  S_11 
REMARK    6  A    between atoms: S_11  and  C_12 
REMARK    7  A    between atoms: C_14  and  C_15 
REMARK    8  A    between atoms: C_27  and  O_28 
ROOT
HETATM    1  N   UNL     1      24.169  47.263  50.139  1.00  0.00    -0.352 N 
HETATM    2  C   UNL     1      25.246  46.715  50.809  1.00  0.00     0.227 C 
HETATM    3  O   UNL     1      26.398  47.049  50.544  1.00  0.00    -0.273 OA
HETATM    4  H   UNL     1      23.237  47.157  50.526  1.00  0.00     0.162 HD
ENDROOT
BRANCH   2   5
HETATM    5  C   UNL     1      24.841  45.683  51.851  1.00  0.00     0.185 C 
BRANCH   5   6
HETATM    6  S   UNL     1      26.070  44.359  52.017  1.00  0.00    -0.081 SA
BRANCH   6   7
HETATM    7  C   UNL     1      27.015  44.996  53.302  1.00  0.00     0.185 A 
HETATM    8  N   UNL     1      27.867  44.371  54.070  1.00  0.00    -0.201 NA
HETATM    9  C   UNL     1      28.341  45.367  54.902  1.00  0.00     0.185 A 
HETATM   10  N   UNL     1      27.797  46.576  54.657  1.00  0.00    -0.152 NA
HETATM   11  N   UNL     1      26.961  46.306  53.640  1.00  0.00    -0.253 N 
HETATM   12  H   UNL     1      26.402  47.043  53.231  1.00  0.00     0.191 HD
BRANCH   9  13
HETATM   13  C   UNL     1      29.341  45.129  55.937  1.00  0.00     0.052 A 
HETATM   14  C   UNL     1      30.370  44.195  55.765  1.00  0.00     0.130 A 
HETATM   15  F   UNL     1      30.478  43.473  54.639  1.00  0.00    -0.205 F 
HETATM   16  C   UNL     1      31.324  43.977  56.761  1.00  0.00     0.043 A 
HETATM   17  C   UNL     1      31.264  44.693  57.954  1.00  0.00     0.003 A 
HETATM   18  C   UNL     1      30.249  45.627  58.148  1.00  0.00     0.001 A 
HETATM   19  C   UNL     1      29.295  45.842  57.148  1.00  0.00     0.018 A 
ENDBRANCH   9  13
ENDBRANCH   6   7
ENDBRANCH   5   6
ENDBRANCH   2   5
BRANCH   1  20
HETATM   20  C   UNL     1      24.363  48.279  49.121  1.00  0.00     0.225 C 
BRANCH  20  21
HETATM   21  C   UNL     1      23.018  48.809  48.619  1.00  0.00     0.239 C 
HETATM   22  N   UNL     1      22.001  48.622  49.533  1.00  0.00    -0.323 N 
HETATM   23  H   UNL     1      22.213  48.061  50.363  1.00  0.00     0.169 HD
HETATM   24  O   UNL     1      22.917  49.283  47.491  1.00  0.00    -0.271 OA
BRANCH  22  25
HETATM   25  C   UNL     1      20.652  49.032  49.440  1.00  0.00     0.069 A 
HETATM   26  C   UNL     1      20.228  50.343  49.677  1.00  0.00     0.039 A 
HETATM   27  C   UNL     1      18.872  50.687  49.575  1.00  0.00    -0.060 A 
HETATM   28  C   UNL     1      18.425  52.089  49.870  1.00  0.00     0.048 C 
HETATM   29  C   UNL     1      17.939  49.698  49.257  1.00  0.00     0.009 A 
HETATM   30  C   UNL     1      18.349  48.382  49.023  1.00  0.00     0.039 A 
HETATM   31  C   UNL     1      19.701  48.043  49.115  1.00  0.00     0.095 A 
BRANCH  31  32
HETATM   32  O   UNL     1      20.209  46.781  48.915  1.00  0.00    -0.354 OA
HETATM   33  C   UNL     1      20.198  46.276  47.586  1.00  0.00     0.210 C 
ENDBRANCH  31  32
ENDBRANCH  22  25
ENDBRANCH  20  21
ENDBRANCH   1  20
TORSDOF 8
ENDMDL
MODEL 8
REMARK VINA RESULT:      -8.4      1.966      2.397
REMARK  8 active torsions:
REMARK  status: ('A' for Active; 'I' for Inactive)
REMARK    1  A    between atoms: C_4  and  N_5 
REMARK       I    between atoms: N_5  and  C_6 
REMARK    2  A    between atoms: C_6  and  C_7 
REMARK    3  A    between atoms: C_7  and  N_8 
REMARK       I    between atoms: N_8  and  C_9 
REMARK    4  A    between atoms: C_9  and  C_10 
REMARK    5  A    between atoms: C_10  and  S_11 
REMARK    6  A    between atoms: S_11  and  C_12 
REMARK    7  A    between atoms: C_14  and  C_15 
REMARK    8  A    between atoms: C_27  and  O_28 
ROOT
HETATM    1  N   UNL     1      24.133  44.217  50.273  1.00  0.00    -0.352 N 
HETATM    2  C   UNL     1      25.240  43.596  49.724  1.00  0.00     0.227 C 
HETATM    3  O   UNL     1      25.185  43.054  48.623  1.00  0.00    -0.273 OA
HETATM    4  H   UNL     1      24.256  44.852  51.054  1.00  0.00     0.162 HD
ENDROOT
BRANCH   2   5
HETATM    5  C   UNL     1      26.466  43.654  50.624  1.00  0.00     0.185 C 
BRANCH   5   6
HETATM    6  S   UNL     1      26.148  44.578  52.153  1.00  0.00    -0.081 SA
BRANCH   6   7
HETATM    7  C   UNL     1      27.628  44.298  52.978  1.00  0.00     0.185 A 
HETATM    8  N   UNL     1      27.939  44.597  54.211  1.00  0.00    -0.201 NA
HETATM    9  C   UNL     1      29.232  44.129  54.338  1.00  0.00     0.185 A 
HETATM   10  N   UNL     1      29.710  43.556  53.216  1.00  0.00    -0.152 NA
HETATM   11  N   UNL     1      28.671  43.681  52.373  1.00  0.00    -0.253 N 
HETATM   12  H   UNL     1      28.736  43.327  51.427  1.00  0.00     0.191 HD
BRANCH   9  13
HETATM   13  C   UNL     1      29.998  44.238  55.576  1.00  0.00     0.052 A 
HETATM   14  C   UNL     1      29.881  45.349  56.418  1.00  0.00     0.130 A 
HETATM   15  F   UNL     1      29.061  46.369  56.121  1.00  0.00    -0.205 F 
HETATM   16  C   UNL     1      30.617  45.442  57.601  1.00  0.00     0.043 A 
HETATM   17  C   UNL     1      31.489  44.417  57.964  1.00  0.00     0.003 A 
HETATM   18  C   UNL     1      31.621  43.302  57.140  1.00  0.00     0.001 A 
HETATM   19  C   UNL     1      30.883  43.213  55.956  1.00  0.00     0.018 A 
ENDBRANCH   9  13
ENDBRANCH   6   7
ENDBRANCH   5   6
ENDBRANCH   2   5
BRANCH   1  20
HETATM   20  C   UNL     1      22.877  44.276  49.548  1.00  0.00     0.225 C 
BRANCH  20  21
HETATM   21  C   UNL     1      22.792  45.555  48.714  1.00  0.00     0.239 C 
HETATM   22  N   UNL     1      22.969  46.695  49.471  1.00  0.00    -0.323 N 
HETATM   23  H   UNL     1      23.012  46.580  50.488  1.00  0.00     0.169 HD
HETATM   24  O   UNL     1      22.532  45.501  47.515  1.00  0.00    -0.271 OA
BRANCH  22  25
HETATM   25  C   UNL     1      23.013  48.039  49.038  1.00  0.00     0.069 A 
HETATM   26  C   UNL     1      21.896  48.730  48.558  1.00  0.00     0.039 A 
HETATM   27  C   UNL     1      22.004  50.063  48.138  1.00  0.00    -0.060 A 
HETATM   28  C   UNL     1      20.806  50.781  47.588  1.00  0.00     0.048 C 
HETATM   29  C   UNL     1      23.250  50.693  48.179  1.00  0.00     0.009 A 
HETATM   30  C   UNL     1      24.376  50.012  48.652  1.00  0.00     0.039 A 
HETATM   31  C   UNL     1      24.265  48.687  49.080  1.00  0.00     0.095 A 
BRANCH  31  32
HETATM   32  O   UNL     1      25.306  47.924  49.552  1.00  0.00    -0.354 OA
HETATM   33  C   UNL     1      26.625  48.376  49.273  1.00  0.00     0.210 C 
ENDBRANCH  31  32
ENDBRANCH  22  25
ENDBRANCH  20  21
ENDBRANCH   1  20
TORSDOF 8
ENDMDL
MODEL 9
REMARK VINA RESULT:      -8.1      2.890      3.923
REMARK  8 active torsions:
REMARK  status: ('A' for Active; 'I' for Inactive)
REMARK    1  A    between atoms: C_4  and  N_5 
REMARK       I    between atoms: N_5  and  C_6 
REMARK    2  A    between atoms: C_6  and  C_7 
REMARK    3  A    between atoms: C_7  and  N_8 
REMARK       I    between atoms: N_8  and  C_9 
REMARK    4  A    between atoms: C_9  and  C_10 
REMARK    5  A    between atoms: C_10  and  S_11 
REMARK    6  A    between atoms: S_11  and  C_12 
REMARK    7  A    between atoms: C_14  and  C_15 
REMARK    8  A    between atoms: C_27  and  O_28 
ROOT
HETATM    1  N   UNL     1      21.614  44.906  49.199  1.00  0.00    -0.352 N 
HETATM    2  C   UNL     1      22.508  44.299  48.336  1.00  0.00     0.227 C 
HETATM    3  O   UNL     1      22.159  43.917  47.223  1.00  0.00    -0.273 OA
HETATM    4  H   UNL     1      21.967  45.420  49.999  1.00  0.00     0.162 HD
ENDROOT
BRANCH   2   5
HETATM    5  C   UNL     1      23.904  44.157  48.925  1.00  0.00     0.185 C 
BRANCH   5   6
HETATM    6  S   UNL     1      23.939  43.013  50.334  1.00  0.00    -0.081 SA
BRANCH   6   7
HETATM    7  C   UNL     1      25.257  43.673  51.214  1.00  0.00     0.185 A 
HETATM    8  N   UNL     1      26.212  43.040  51.842  1.00  0.00    -0.201 NA
HETATM    9  C   UNL     1      26.996  44.059  52.347  1.00  0.00     0.185 A 
HETATM   10  N   UNL     1      26.541  45.290  52.040  1.00  0.00    -0.152 NA
HETATM   11  N   UNL     1      25.438  45.011  51.324  1.00  0.00    -0.253 N 
HETATM   12  H   UNL     1      24.873  45.760  50.945  1.00  0.00     0.191 HD
BRANCH   9  13
HETATM   13  C   UNL     1      28.206  43.820  53.126  1.00  0.00     0.052 A 
HETATM   14  C   UNL     1      28.401  44.406  54.382  1.00  0.00     0.130 A 
HETATM   15  F   UNL     1      27.482  45.220  54.924  1.00  0.00    -0.205 F 
HETATM   16  C   UNL     1      29.562  44.168  55.120  1.00  0.00     0.043 A 
HETATM   17  C   UNL     1      30.555  43.334  54.611  1.00  0.00     0.003 A 
HETATM   18  C   UNL     1      30.383  42.741  53.362  1.00  0.00     0.001 A 
HETATM   19  C   UNL     1      29.219  42.982  52.626  1.00  0.00     0.018 A 
ENDBRANCH   9  13
ENDBRANCH   6   7
ENDBRANCH   5   6
ENDBRANCH   2   5
BRANCH   1  20
HETATM   20  C   UNL     1      20.239  45.142  48.801  1.00  0.00     0.225 C 
BRANCH  20  21
HETATM   21  C   UNL     1      20.056  46.578  48.304  1.00  0.00     0.239 C 
HETATM   22  N   UNL     1      20.473  47.515  49.227  1.00  0.00    -0.323 N 
HETATM   23  H   UNL     1      20.734  47.174  50.157  1.00  0.00     0.169 HD
HETATM   24  O   UNL     1      19.533  46.799  47.215  1.00  0.00    -0.271 OA
BRANCH  22  25
HETATM   25  C   UNL     1      20.510  48.921  49.096  1.00  0.00     0.069 A 
HETATM   26  C   UNL     1      19.453  49.757  49.468  1.00  0.00     0.039 A 
HETATM   27  C   UNL     1      19.548  51.147  49.308  1.00  0.00    -0.060 A 
HETATM   28  C   UNL     1      18.391  52.029  49.675  1.00  0.00     0.048 C 
HETATM   29  C   UNL     1      20.705  51.692  48.747  1.00  0.00     0.009 A 
HETATM   30  C   UNL     1      21.767  50.867  48.366  1.00  0.00     0.039 A 
HETATM   31  C   UNL     1      21.676  49.484  48.535  1.00  0.00     0.095 A 
BRANCH  31  32
HETATM   32  O   UNL     1      22.654  48.583  48.186  1.00  0.00    -0.354 OA
HETATM   33  C   UNL     1      23.876  48.633  48.911  1.00  0.00     0.210 C 
ENDBRANCH  31  32
ENDBRANCH  22  25
ENDBRANCH  20  21
ENDBRANCH   1  20
TORSDOF 8
ENDMDL
MODEL 10
REMARK VINA RESULT:      -8.1      2.774      4.025
REMARK  8 active torsions:
REMARK  status: ('A' for Active; 'I' for Inactive)
REMARK    1  A    between atoms: C_4  and  N_5 
REMARK       I    between atoms: N_5  and  C_6 
REMARK    2  A    between atoms: C_6  and  C_7 
REMARK    3  A    between atoms: C_7  and  N_8 
REMARK       I    between atoms: N_8  and  C_9 
REMARK    4  A    between atoms: C_9  and  C_10 
REMARK    5  A    between atoms: C_10  and  S_11 
REMARK    6  A    between atoms: S_11  and  C_12 
REMARK    7  A    between atoms: C_14  and  C_15 
REMARK    8  A    between atoms: C_27  and  O_28 
ROOT
HETATM    1  N   UNL     1      22.155  44.514  49.631  1.00  0.00    -0.352 N 
HETATM    2  C   UNL     1      23.499  44.242  49.459  1.00  0.00     0.227 C 
HETATM    3  O   UNL     1      23.982  44.102  48.338  1.00  0.00    -0.273 OA
HETATM    4  H   UNL     1      21.827  44.857  50.527  1.00  0.00     0.162 HD
ENDROOT
BRANCH   2   5
HETATM    5  C   UNL     1      24.259  44.128  50.773  1.00  0.00     0.185 C 
BRANCH   5   6
HETATM    6  S   UNL     1      25.980  43.612  50.524  1.00  0.00    -0.081 SA
BRANCH   6   7
HETATM    7  C   UNL     1      26.662  44.144  52.008  1.00  0.00     0.185 A 
HETATM    8  N   UNL     1      27.785  43.773  52.564  1.00  0.00    -0.201 NA
HETATM    9  C   UNL     1      27.837  44.529  53.719  1.00  0.00     0.185 A 
HETATM   10  N   UNL     1      26.776  45.347  53.874  1.00  0.00    -0.152 NA
HETATM   11  N   UNL     1      26.051  45.077  52.776  1.00  0.00    -0.253 N 
HETATM   12  H   UNL     1      25.175  45.557  52.612  1.00  0.00     0.191 HD
BRANCH   9  13
HETATM   13  C   UNL     1      28.942  44.455  54.669  1.00  0.00     0.052 A 
HETATM   14  C   UNL     1      29.731  43.305  54.790  1.00  0.00     0.130 A 
HETATM   15  F   UNL     1      29.503  42.218  54.038  1.00  0.00    -0.205 F 
HETATM   16  C   UNL     1      30.788  43.246  55.701  1.00  0.00     0.043 A 
HETATM   17  C   UNL     1      31.074  44.342  56.512  1.00  0.00     0.003 A 
HETATM   18  C   UNL     1      30.301  45.496  56.409  1.00  0.00     0.001 A 
HETATM   19  C   UNL     1      29.243  45.552  55.495  1.00  0.00     0.018 A 
ENDBRANCH   9  13
ENDBRANCH   6   7
ENDBRANCH   5   6
ENDBRANCH   2   5
BRANCH   1  20
HETATM   20  C   UNL     1      21.276  44.676  48.487  1.00  0.00     0.225 C 
BRANCH  20  21
HETATM   21  C   UNL     1      21.292  46.123  47.990  1.00  0.00     0.239 C 
HETATM   22  N   UNL     1      21.177  47.037  49.017  1.00  0.00    -0.323 N 
HETATM   23  H   UNL     1      20.975  46.670  49.951  1.00  0.00     0.169 HD
HETATM   24  O   UNL     1      21.345  46.368  46.788  1.00  0.00    -0.271 OA
BRANCH  22  25
HETATM   25  C   UNL     1      21.213  48.448  48.944  1.00  0.00     0.069 A 
HETATM   26  C   UNL     1      22.331  49.168  48.514  1.00  0.00     0.039 A 
HETATM   27  C   UNL     1      22.307  50.570  48.469  1.00  0.00    -0.060 A 
HETATM   28  C   UNL     1      23.527  51.332  48.042  1.00  0.00     0.048 C 
HETATM   29  C   UNL     1      21.158  51.246  48.885  1.00  0.00     0.009 A 
HETATM   30  C   UNL     1      20.035  50.537  49.322  1.00  0.00     0.039 A 
HETATM   31  C   UNL     1      20.056  49.142  49.357  1.00  0.00     0.095 A 
BRANCH  31  32
HETATM   32  O   UNL     1      19.014  48.350  49.778  1.00  0.00    -0.354 OA
HETATM   33  C   UNL     1      18.585  48.499  51.125  1.00  0.00     0.210 C 
ENDBRANCH  31  32
ENDBRANCH  22  25
ENDBRANCH  20  21
ENDBRANCH   1  20
TORSDOF 8
ENDMDL
