MODEL 1
REMARK VINA RESULT:      -9.2      0.000      0.000
REMARK  6 active torsions:
REMARK  status: ('A' for Active; 'I' for Inactive)
REMARK    1  A    between atoms: C_6  and  C_7 
REMARK    2  A    between atoms: C_7  and  N_8 
REMARK    3  A    between atoms: C_12  and  C_13 
REMARK    4  A    between atoms: C_13  and  C_14 
REMARK    5  A    between atoms: N_23  and  C_24 
REMARK    6  A    between atoms: C_24  and  C_25 
ROOT
HETATM    1  C   UNL     1      26.668  41.992  50.451  1.00  0.00     0.149 C 
HETATM    2  N   UNL     1      27.247  42.477  49.206  1.00  0.00    -0.220 NA
HETATM    3  C   UNL     1      27.542  41.433  48.353  1.00  0.00     0.304 C 
HETATM    4  O   UNL     1      28.180  41.588  47.327  1.00  0.00    -0.253 OA
HETATM    5  N   UNL     1      27.007  40.288  48.842  1.00  0.00    -0.270 N 
HETATM    6  C   UNL     1      26.426  40.517  50.055  1.00  0.00     0.257 C 
HETATM    7  O   UNL     1      25.808  39.700  50.724  1.00  0.00    -0.270 OA
HETATM    8  H   UNL     1      28.022  43.135  49.276  1.00  0.00     0.134 HD
ENDROOT
BRANCH   1   9
HETATM    9  C   UNL     1      25.332  42.716  50.815  1.00  0.00     0.028 C 
HETATM   10  C   UNL     1      24.681  43.480  49.641  1.00  0.00     0.035 C 
HETATM   11  C   UNL     1      25.318  44.829  49.317  1.00  0.00     0.235 C 
HETATM   12  N   UNL     1      25.421  45.681  50.558  1.00  0.00    -0.067 N 
HETATM   13  H   UNL     1      24.460  45.892  50.851  1.00  0.00     0.280 HD
HETATM   14  C   UNL     1      26.115  44.991  51.706  1.00  0.00     0.235 C 
HETATM   15  C   UNL     1      25.416  43.677  52.017  1.00  0.00     0.035 C 
BRANCH  12  16
HETATM   16  C   UNL     1      26.075  47.028  50.284  1.00  0.00     0.273 C 
BRANCH  16  17
HETATM   17  C   UNL     1      25.169  48.025  49.606  1.00  0.00    -0.027 A 
HETATM   18  C   UNL     1      25.659  49.147  48.906  1.00  0.00    -0.054 A 
HETATM   19  C   UNL     1      24.744  50.058  48.347  1.00  0.00     0.014 A 
HETATM   20  C   UNL     1      27.130  49.411  48.718  1.00  0.00     0.049 C 
HETATM   21  C   UNL     1      23.361  49.860  48.449  1.00  0.00    -0.061 A 
HETATM   22  C   UNL     1      22.400  50.852  47.863  1.00  0.00     0.048 C 
HETATM   23  C   UNL     1      22.886  48.747  49.141  1.00  0.00     0.007 A 
HETATM   24  C   UNL     1      23.777  47.837  49.707  1.00  0.00     0.010 A 
ENDBRANCH  16  17
ENDBRANCH  12  16
ENDBRANCH   1   9
BRANCH   1  25
HETATM   25  C   UNL     1      27.711  42.097  51.563  1.00  0.00     0.067 A 
HETATM   26  N   UNL     1      28.567  43.158  51.465  1.00  0.00    -0.263 NA
HETATM   27  C   UNL     1      29.524  43.277  52.415  1.00  0.00     0.117 A 
HETATM   28  C   UNL     1      29.649  42.417  53.490  1.00  0.00     0.019 A 
HETATM   29  C   UNL     1      28.744  41.368  53.602  1.00  0.00     0.003 A 
HETATM   30  C   UNL     1      27.759  41.203  52.632  1.00  0.00     0.030 A 
ENDBRANCH   1  25
BRANCH   5  31
HETATM   31  C   UNL     1      27.132  38.988  48.211  1.00  0.00     0.168 C 
BRANCH  31  32
HETATM   32  C   UNL     1      28.396  38.226  48.610  1.00  0.00     0.140 C 
HETATM   33  O   UNL     1      28.021  37.069  49.385  1.00  0.00    -0.384 OA
HETATM   34  C   UNL     1      28.783  37.060  50.599  1.00  0.00     0.168 C 
HETATM   35  C   UNL     1      29.971  37.961  50.351  1.00  0.00     0.029 C 
HETATM   36  C   UNL     1      29.365  39.027  49.472  1.00  0.00     0.036 C 
ENDBRANCH  31  32
ENDBRANCH   5  31
TORSDOF 6
ENDMDL
MODEL 2
REMARK VINA RESULT:      -9.0      2.774      7.336
REMARK  6 active torsions:
REMARK  status: ('A' for Active; 'I' for Inactive)
REMARK    1  A    between atoms: C_6  and  C_7 
REMARK    2  A    between atoms: C_7  and  N_8 
REMARK    3  A    between atoms: C_12  and  C_13 
REMARK    4  A    between atoms: C_13  and  C_14 
REMARK    5  A    between atoms: N_23  and  C_24 
REMARK    6  A    between atoms: C_24  and  C_25 
ROOT
HETATM    1  C   UNL     1      23.883  45.500  49.399  1.00  0.00     0.149 C 
HETATM    2  N   UNL     1      23.304  44.741  50.499  1.00  0.00    -0.220 NA
HETATM    3  C   UNL     1      22.763  43.551  50.055  1.00  0.00     0.304 C 
HETATM    4  O   UNL     1      22.085  42.835  50.769  1.00  0.00    -0.253 OA
HETATM    5  N   UNL     1      23.122  43.349  48.764  1.00  0.00    -0.270 N 
HETATM    6  C   UNL     1      23.828  44.418  48.295  1.00  0.00     0.257 C 
HETATM    7  O   UNL     1      24.340  44.514  47.188  1.00  0.00    -0.270 OA
HETATM    8  H   UNL     1      22.666  45.234  51.122  1.00  0.00     0.134 HD
ENDROOT
BRANCH   1   9
HETATM    9  C   UNL     1      25.350  45.953  49.688  1.00  0.00     0.028 C 
HETATM   10  C   UNL     1      26.384  44.806  49.680  1.00  0.00     0.035 C 
HETATM   11  C   UNL     1      26.406  43.949  50.944  1.00  0.00     0.235 C 
HETATM   12  N   UNL     1      26.531  44.815  52.173  1.00  0.00    -0.067 N 
HETATM   13  H   UNL     1      27.454  45.262  52.125  1.00  0.00     0.280 HD
HETATM   14  C   UNL     1      25.491  45.906  52.248  1.00  0.00     0.235 C 
HETATM   15  C   UNL     1      25.542  46.756  50.989  1.00  0.00     0.035 C 
BRANCH  12  16
HETATM   16  C   UNL     1      26.531  44.001  53.458  1.00  0.00     0.273 C 
BRANCH  16  17
HETATM   17  C   UNL     1      27.866  43.959  54.159  1.00  0.00    -0.027 A 
HETATM   18  C   UNL     1      28.709  42.829  54.126  1.00  0.00    -0.054 A 
HETATM   19  C   UNL     1      29.915  42.853  54.852  1.00  0.00     0.014 A 
HETATM   20  C   UNL     1      28.381  41.591  53.334  1.00  0.00     0.049 C 
HETATM   21  C   UNL     1      30.305  43.982  55.583  1.00  0.00    -0.061 A 
HETATM   22  C   UNL     1      31.586  43.982  56.366  1.00  0.00     0.048 C 
HETATM   23  C   UNL     1      29.467  45.096  55.608  1.00  0.00     0.007 A 
HETATM   24  C   UNL     1      28.265  45.088  54.901  1.00  0.00     0.010 A 
ENDBRANCH  16  17
ENDBRANCH  12  16
ENDBRANCH   1   9
BRANCH   1  25
HETATM   25  C   UNL     1      22.964  46.674  49.062  1.00  0.00     0.067 A 
HETATM   26  N   UNL     1      21.733  46.334  48.576  1.00  0.00    -0.263 NA
HETATM   27  C   UNL     1      20.895  47.343  48.241  1.00  0.00     0.117 A 
HETATM   28  C   UNL     1      21.201  48.681  48.406  1.00  0.00     0.019 A 
HETATM   29  C   UNL     1      22.439  49.012  48.943  1.00  0.00     0.003 A 
HETATM   30  C   UNL     1      23.334  48.000  49.280  1.00  0.00     0.030 A 
ENDBRANCH   1  25
BRANCH   5  31
HETATM   31  C   UNL     1      22.721  42.204  47.969  1.00  0.00     0.168 C 
BRANCH  31  32
HETATM   32  C   UNL     1      23.770  41.092  47.912  1.00  0.00     0.140 C 
HETATM   33  O   UNL     1      24.716  41.286  48.983  1.00  0.00    -0.384 OA
HETATM   34  C   UNL     1      26.041  41.256  48.438  1.00  0.00     0.168 C 
HETATM   35  C   UNL     1      25.924  40.570  47.097  1.00  0.00     0.029 C 
HETATM   36  C   UNL     1      24.579  41.061  46.621  1.00  0.00     0.036 C 
ENDBRANCH  31  32
ENDBRANCH   5  31
TORSDOF 6
ENDMDL
MODEL 3
REMARK VINA RESULT:      -8.9      3.267      8.294
REMARK  6 active torsions:
REMARK  status: ('A' for Active; 'I' for Inactive)
REMARK    1  A    between atoms: C_6  and  C_7 
REMARK    2  A    between atoms: C_7  and  N_8 
REMARK    3  A    between atoms: C_12  and  C_13 
REMARK    4  A    between atoms: C_13  and  C_14 
REMARK    5  A    between atoms: N_23  and  C_24 
REMARK    6  A    between atoms: C_24  and  C_25 
ROOT
HETATM    1  C   UNL     1      25.384  44.136  50.742  1.00  0.00     0.149 C 
HETATM    2  N   UNL     1      26.423  45.144  50.579  1.00  0.00    -0.220 NA
HETATM    3  C   UNL     1      25.988  46.184  49.782  1.00  0.00     0.304 C 
HETATM    4  O   UNL     1      26.738  47.054  49.377  1.00  0.00    -0.253 OA
HETATM    5  N   UNL     1      24.656  46.059  49.567  1.00  0.00    -0.270 N 
HETATM    6  C   UNL     1      24.190  44.908  50.133  1.00  0.00     0.257 C 
HETATM    7  O   UNL     1      23.024  44.541  50.164  1.00  0.00    -0.270 OA
HETATM    8  H   UNL     1      27.349  44.821  50.301  1.00  0.00     0.134 HD
ENDROOT
BRANCH   1   9
HETATM    9  C   UNL     1      25.130  43.773  52.240  1.00  0.00     0.028 C 
HETATM   10  C   UNL     1      24.738  44.973  53.130  1.00  0.00     0.035 C 
HETATM   11  C   UNL     1      25.900  45.870  53.549  1.00  0.00     0.235 C 
HETATM   12  N   UNL     1      27.011  45.052  54.161  1.00  0.00    -0.067 N 
HETATM   13  H   UNL     1      26.638  44.654  55.031  1.00  0.00     0.280 HD
HETATM   14  C   UNL     1      27.467  43.910  53.288  1.00  0.00     0.235 C 
HETATM   15  C   UNL     1      26.283  43.023  52.936  1.00  0.00     0.035 C 
BRANCH  12  16
HETATM   16  C   UNL     1      28.201  45.906  54.572  1.00  0.00     0.273 C 
BRANCH  16  17
HETATM   17  C   UNL     1      29.246  45.163  55.367  1.00  0.00    -0.027 A 
HETATM   18  C   UNL     1      29.518  45.448  56.722  1.00  0.00    -0.054 A 
HETATM   19  C   UNL     1      30.546  44.744  57.375  1.00  0.00     0.014 A 
HETATM   20  C   UNL     1      28.745  46.472  57.510  1.00  0.00     0.049 C 
HETATM   21  C   UNL     1      31.284  43.751  56.719  1.00  0.00    -0.061 A 
HETATM   22  C   UNL     1      32.390  43.024  57.427  1.00  0.00     0.048 C 
HETATM   23  C   UNL     1      31.006  43.475  55.381  1.00  0.00     0.007 A 
HETATM   24  C   UNL     1      29.996  44.166  54.714  1.00  0.00     0.010 A 
ENDBRANCH  16  17
ENDBRANCH  12  16
ENDBRANCH   1   9
BRANCH   1  25
HETATM   25  C   UNL     1      25.735  42.913  49.896  1.00  0.00     0.067 A 
HETATM   26  N   UNL     1      24.680  42.115  49.553  1.00  0.00    -0.263 NA
HETATM   27  C   UNL     1      24.947  41.006  48.825  1.00  0.00     0.117 A 
HETATM   28  C   UNL     1      26.211  40.668  48.378  1.00  0.00     0.019 A 
HETATM   29  C   UNL     1      27.269  41.512  48.696  1.00  0.00     0.003 A 
HETATM   30  C   UNL     1      27.033  42.651  49.461  1.00  0.00     0.030 A 
ENDBRANCH   1  25
BRANCH   5  31
HETATM   31  C   UNL     1      23.864  46.969  48.761  1.00  0.00     0.168 C 
BRANCH  31  32
HETATM   32  C   UNL     1      23.692  48.356  49.382  1.00  0.00     0.140 C 
HETATM   33  O   UNL     1      22.286  48.662  49.461  1.00  0.00    -0.384 OA
HETATM   34  C   UNL     1      22.061  49.949  48.870  1.00  0.00     0.168 C 
HETATM   35  C   UNL     1      23.405  50.639  48.854  1.00  0.00     0.029 C 
HETATM   36  C   UNL     1      24.337  49.484  48.586  1.00  0.00     0.036 C 
ENDBRANCH  31  32
ENDBRANCH   5  31
TORSDOF 6
ENDMDL
MODEL 4
REMARK VINA RESULT:      -8.8      6.881     11.588
REMARK  6 active torsions:
REMARK  status: ('A' for Active; 'I' for Inactive)
REMARK    1  A    between atoms: C_6  and  C_7 
REMARK    2  A    between atoms: C_7  and  N_8 
REMARK    3  A    between atoms: C_12  and  C_13 
REMARK    4  A    between atoms: C_13  and  C_14 
REMARK    5  A    between atoms: N_23  and  C_24 
REMARK    6  A    between atoms: C_24  and  C_25 
ROOT
HETATM    1  C   UNL     1      17.768  50.580  48.105  1.00  0.00     0.149 C 
HETATM    2  N   UNL     1      17.893  49.588  49.164  1.00  0.00    -0.220 NA
HETATM    3  C   UNL     1      17.299  48.395  48.803  1.00  0.00     0.304 C 
HETATM    4  O   UNL     1      17.139  47.480  49.591  1.00  0.00    -0.253 OA
HETATM    5  N   UNL     1      16.967  48.438  47.490  1.00  0.00    -0.270 N 
HETATM    6  C   UNL     1      17.247  49.668  46.970  1.00  0.00     0.257 C 
HETATM    7  O   UNL     1      17.116  50.003  45.801  1.00  0.00    -0.270 OA
HETATM    8  H   UNL     1      17.623  49.872  50.105  1.00  0.00     0.134 HD
ENDROOT
BRANCH   1   9
HETATM    9  C   UNL     1      19.136  51.237  47.733  1.00  0.00     0.028 C 
HETATM   10  C   UNL     1      19.981  50.424  46.727  1.00  0.00     0.035 C 
HETATM   11  C   UNL     1      20.722  49.231  47.324  1.00  0.00     0.235 C 
HETATM   12  N   UNL     1      21.528  49.652  48.528  1.00  0.00    -0.067 N 
HETATM   13  H   UNL     1      22.257  50.289  48.186  1.00  0.00     0.280 HD
HETATM   14  C   UNL     1      20.718  50.390  49.565  1.00  0.00     0.235 C 
HETATM   15  C   UNL     1      20.038  51.592  48.931  1.00  0.00     0.035 C 
BRANCH  12  16
HETATM   16  C   UNL     1      22.265  48.486  49.171  1.00  0.00     0.273 C 
BRANCH  16  17
HETATM   17  C   UNL     1      23.767  48.612  49.135  1.00  0.00    -0.027 A 
HETATM   18  C   UNL     1      24.628  47.637  49.681  1.00  0.00    -0.054 A 
HETATM   19  C   UNL     1      26.017  47.858  49.653  1.00  0.00     0.014 A 
HETATM   20  C   UNL     1      24.123  46.354  50.287  1.00  0.00     0.049 C 
HETATM   21  C   UNL     1      26.563  49.010  49.074  1.00  0.00    -0.061 A 
HETATM   22  C   UNL     1      28.046  49.238  49.070  1.00  0.00     0.048 C 
HETATM   23  C   UNL     1      25.705  49.968  48.534  1.00  0.00     0.007 A 
HETATM   24  C   UNL     1      24.325  49.770  48.558  1.00  0.00     0.010 A 
ENDBRANCH  16  17
ENDBRANCH  12  16
ENDBRANCH   1   9
BRANCH   1  25
HETATM   25  C   UNL     1      16.715  51.612  48.506  1.00  0.00     0.067 A 
HETATM   26  N   UNL     1      16.709  51.958  49.828  1.00  0.00    -0.263 NA
HETATM   27  C   UNL     1      15.776  52.852  50.235  1.00  0.00     0.117 A 
HETATM   28  C   UNL     1      14.870  53.456  49.383  1.00  0.00     0.019 A 
HETATM   29  C   UNL     1      14.917  53.127  48.033  1.00  0.00     0.003 A 
HETATM   30  C   UNL     1      15.849  52.197  47.583  1.00  0.00     0.030 A 
ENDBRANCH   1  25
BRANCH   5  31
HETATM   31  C   UNL     1      16.311  47.361  46.773  1.00  0.00     0.168 C 
BRANCH  31  32
HETATM   32  C   UNL     1      17.267  46.270  46.286  1.00  0.00     0.140 C 
HETATM   33  O   UNL     1      17.422  45.285  47.327  1.00  0.00    -0.384 OA
HETATM   34  C   UNL     1      18.821  45.073  47.558  1.00  0.00     0.168 C 
HETATM   35  C   UNL     1      19.527  45.586  46.324  1.00  0.00     0.029 C 
HETATM   36  C   UNL     1      18.668  46.768  45.951  1.00  0.00     0.036 C 
ENDBRANCH  31  32
ENDBRANCH   5  31
TORSDOF 6
ENDMDL
MODEL 5
REMARK VINA RESULT:      -8.8      8.306     13.357
REMARK  6 active torsions:
REMARK  status: ('A' for Active; 'I' for Inactive)
REMARK    1  A    between atoms: C_6  and  C_7 
REMARK    2  A    between atoms: C_7  and  N_8 
REMARK    3  A    between atoms: C_12  and  C_13 
REMARK    4  A    between atoms: C_13  and  C_14 
REMARK    5  A    between atoms: N_23  and  C_24 
REMARK    6  A    between atoms: C_24  and  C_25 
ROOT
HETATM    1  C   UNL     1      16.246  51.410  47.654  1.00  0.00     0.149 C 
HETATM    2  N   UNL     1      16.428  50.183  48.417  1.00  0.00    -0.220 NA
HETATM    3  C   UNL     1      15.627  49.170  47.930  1.00  0.00     0.304 C 
HETATM    4  O   UNL     1      15.492  48.107  48.511  1.00  0.00    -0.253 OA
HETATM    5  N   UNL     1      15.071  49.560  46.757  1.00  0.00    -0.270 N 
HETATM    6  C   UNL     1      15.412  50.852  46.478  1.00  0.00     0.257 C 
HETATM    7  O   UNL     1      15.118  51.472  45.465  1.00  0.00    -0.270 OA
HETATM    8  H   UNL     1      16.372  50.251  49.432  1.00  0.00     0.134 HD
ENDROOT
BRANCH   1   9
HETATM    9  C   UNL     1      17.599  52.019  47.163  1.00  0.00     0.028 C 
HETATM   10  C   UNL     1      18.332  51.168  46.102  1.00  0.00     0.035 C 
HETATM   11  C   UNL     1      19.082  49.958  46.654  1.00  0.00     0.235 C 
HETATM   12  N   UNL     1      19.997  50.367  47.782  1.00  0.00    -0.067 N 
HETATM   13  H   UNL     1      20.715  50.976  47.372  1.00  0.00     0.280 HD
HETATM   14  C   UNL     1      19.298  51.141  48.871  1.00  0.00     0.235 C 
HETATM   15  C   UNL     1      18.607  52.358  48.279  1.00  0.00     0.035 C 
BRANCH  12  16
HETATM   16  C   UNL     1      20.747  49.184  48.378  1.00  0.00     0.273 C 
BRANCH  16  17
HETATM   17  C   UNL     1      22.248  49.329  48.347  1.00  0.00    -0.027 A 
HETATM   18  C   UNL     1      23.123  48.271  48.672  1.00  0.00    -0.054 A 
HETATM   19  C   UNL     1      24.511  48.506  48.670  1.00  0.00     0.014 A 
HETATM   20  C   UNL     1      22.636  46.888  49.012  1.00  0.00     0.049 C 
HETATM   21  C   UNL     1      25.040  49.756  48.328  1.00  0.00    -0.061 A 
HETATM   22  C   UNL     1      26.522  49.993  48.349  1.00  0.00     0.048 C 
HETATM   23  C   UNL     1      24.168  50.796  48.006  1.00  0.00     0.007 A 
HETATM   24  C   UNL     1      22.790  50.584  48.009  1.00  0.00     0.010 A 
ENDBRANCH  16  17
ENDBRANCH  12  16
ENDBRANCH   1   9
BRANCH   1  25
HETATM   25  C   UNL     1      15.428  52.400  48.485  1.00  0.00     0.067 A 
HETATM   26  N   UNL     1      14.838  53.410  47.778  1.00  0.00    -0.263 NA
HETATM   27  C   UNL     1      14.124  54.324  48.476  1.00  0.00     0.117 A 
HETATM   28  C   UNL     1      13.928  54.263  49.843  1.00  0.00     0.019 A 
HETATM   29  C   UNL     1      14.497  53.206  50.543  1.00  0.00     0.003 A 
HETATM   30  C   UNL     1      15.255  52.258  49.860  1.00  0.00     0.030 A 
ENDBRANCH   1  25
BRANCH   5  31
HETATM   31  C   UNL     1      14.160  48.751  45.970  1.00  0.00     0.168 C 
BRANCH  31  32
HETATM   32  C   UNL     1      14.789  48.166  44.705  1.00  0.00     0.140 C 
HETATM   33  O   UNL     1      13.974  47.071  44.241  1.00  0.00    -0.384 OA
HETATM   34  C   UNL     1      14.813  45.927  44.036  1.00  0.00     0.168 C 
HETATM   35  C   UNL     1      16.222  46.459  43.924  1.00  0.00     0.029 C 
HETATM   36  C   UNL     1      16.193  47.606  44.903  1.00  0.00     0.036 C 
ENDBRANCH  31  32
ENDBRANCH   5  31
TORSDOF 6
ENDMDL
MODEL 6
REMARK VINA RESULT:      -8.7      3.633      6.315
REMARK  6 active torsions:
REMARK  status: ('A' for Active; 'I' for Inactive)
REMARK    1  A    between atoms: C_6  and  C_7 
REMARK    2  A    between atoms: C_7  and  N_8 
REMARK    3  A    between atoms: C_12  and  C_13 
REMARK    4  A    between atoms: C_13  and  C_14 
REMARK    5  A    between atoms: N_23  and  C_24 
REMARK    6  A    between atoms: C_24  and  C_25 
ROOT
HETATM    1  C   UNL     1      27.008  39.884  48.755  1.00  0.00     0.149 C 
HETATM    2  N   UNL     1      27.947  40.871  48.242  1.00  0.00    -0.220 NA
HETATM    3  C   UNL     1      28.066  40.780  46.869  1.00  0.00     0.304 C 
HETATM    4  O   UNL     1      28.914  41.394  46.244  1.00  0.00    -0.253 OA
HETATM    5  N   UNL     1      27.114  39.943  46.390  1.00  0.00    -0.270 N 
HETATM    6  C   UNL     1      26.402  39.397  47.419  1.00  0.00     0.257 C 
HETATM    7  O   UNL     1      25.439  38.651  47.312  1.00  0.00    -0.270 OA
HETATM    8  H   UNL     1      28.859  40.930  48.694  1.00  0.00     0.134 HD
ENDROOT
BRANCH   1   9
HETATM    9  C   UNL     1      25.921  40.515  49.684  1.00  0.00     0.028 C 
HETATM   10  C   UNL     1      25.421  41.903  49.228  1.00  0.00     0.035 C 
HETATM   11  C   UNL     1      26.361  43.063  49.547  1.00  0.00     0.235 C 
HETATM   12  N   UNL     1      26.744  43.052  51.007  1.00  0.00    -0.067 N 
HETATM   13  H   UNL     1      25.885  43.236  51.538  1.00  0.00     0.280 HD
HETATM   14  C   UNL     1      27.302  41.730  51.471  1.00  0.00     0.235 C 
HETATM   15  C   UNL     1      26.312  40.617  51.172  1.00  0.00     0.035 C 
BRANCH  12  16
HETATM   16  C   UNL     1      27.701  44.180  51.364  1.00  0.00     0.273 C 
BRANCH  16  17
HETATM   17  C   UNL     1      28.493  43.939  52.624  1.00  0.00    -0.027 A 
HETATM   18  C   UNL     1      28.151  44.522  53.863  1.00  0.00    -0.054 A 
HETATM   19  C   UNL     1      28.974  44.288  54.980  1.00  0.00     0.014 A 
HETATM   20  C   UNL     1      26.928  45.382  54.048  1.00  0.00     0.049 C 
HETATM   21  C   UNL     1      30.107  43.470  54.894  1.00  0.00    -0.061 A 
HETATM   22  C   UNL     1      30.983  43.246  56.092  1.00  0.00     0.048 C 
HETATM   23  C   UNL     1      30.436  42.895  53.667  1.00  0.00     0.007 A 
HETATM   24  C   UNL     1      29.636  43.121  52.547  1.00  0.00     0.010 A 
ENDBRANCH  16  17
ENDBRANCH  12  16
ENDBRANCH   1   9
BRANCH   1  25
HETATM   25  C   UNL     1      27.787  38.764  49.445  1.00  0.00     0.067 A 
HETATM   26  N   UNL     1      27.098  37.597  49.623  1.00  0.00    -0.263 NA
HETATM   27  C   UNL     1      27.740  36.584  50.253  1.00  0.00     0.117 A 
HETATM   28  C   UNL     1      29.054  36.656  50.678  1.00  0.00     0.019 A 
HETATM   29  C   UNL     1      29.756  37.833  50.450  1.00  0.00     0.003 A 
HETATM   30  C   UNL     1      29.121  38.902  49.824  1.00  0.00     0.030 A 
ENDBRANCH   1  25
BRANCH   5  31
HETATM   31  C   UNL     1      26.950  39.600  44.990  1.00  0.00     0.168 C 
BRANCH  31  32
HETATM   32  C   UNL     1      26.244  40.679  44.169  1.00  0.00     0.140 C 
HETATM   33  O   UNL     1      24.829  40.402  44.151  1.00  0.00    -0.384 OA
HETATM   34  C   UNL     1      24.372  40.418  42.792  1.00  0.00     0.168 C 
HETATM   35  C   UNL     1      25.422  41.173  42.010  1.00  0.00     0.029 C 
HETATM   36  C   UNL     1      26.688  40.749  42.712  1.00  0.00     0.036 C 
ENDBRANCH  31  32
ENDBRANCH   5  31
TORSDOF 6
ENDMDL
MODEL 7
REMARK VINA RESULT:      -8.7      6.884     10.899
REMARK  6 active torsions:
REMARK  status: ('A' for Active; 'I' for Inactive)
REMARK    1  A    between atoms: C_6  and  C_7 
REMARK    2  A    between atoms: C_7  and  N_8 
REMARK    3  A    between atoms: C_12  and  C_13 
REMARK    4  A    between atoms: C_13  and  C_14 
REMARK    5  A    between atoms: N_23  and  C_24 
REMARK    6  A    between atoms: C_24  and  C_25 
ROOT
HETATM    1  C   UNL     1      20.234  49.505  48.507  1.00  0.00     0.149 C 
HETATM    2  N   UNL     1      19.727  49.809  47.176  1.00  0.00    -0.220 NA
HETATM    3  C   UNL     1      19.228  48.678  46.562  1.00  0.00     0.304 C 
HETATM    4  O   UNL     1      18.904  48.662  45.387  1.00  0.00    -0.253 OA
HETATM    5  N   UNL     1      19.164  47.668  47.463  1.00  0.00    -0.270 N 
HETATM    6  C   UNL     1      19.688  48.066  48.658  1.00  0.00     0.257 C 
HETATM    7  O   UNL     1      19.721  47.404  49.686  1.00  0.00    -0.270 OA
HETATM    8  H   UNL     1      20.337  50.337  46.553  1.00  0.00     0.134 HD
ENDROOT
BRANCH   1   9
HETATM    9  C   UNL     1      19.655  50.457  49.603  1.00  0.00     0.028 C 
HETATM   10  C   UNL     1      18.244  50.073  50.100  1.00  0.00     0.035 C 
HETATM   11  C   UNL     1      17.103  50.463  49.165  1.00  0.00     0.235 C 
HETATM   12  N   UNL     1      17.193  51.923  48.794  1.00  0.00    -0.067 N 
HETATM   13  H   UNL     1      17.039  52.456  49.657  1.00  0.00     0.280 HD
HETATM   14  C   UNL     1      18.538  52.320  48.238  1.00  0.00     0.235 C 
HETATM   15  C   UNL     1      19.634  51.951  49.224  1.00  0.00     0.035 C 
BRANCH  12  16
HETATM   16  C   UNL     1      16.085  52.349  47.841  1.00  0.00     0.273 C 
BRANCH  16  17
HETATM   17  C   UNL     1      14.956  53.096  48.504  1.00  0.00    -0.027 A 
HETATM   18  C   UNL     1      14.125  53.998  47.808  1.00  0.00    -0.054 A 
HETATM   19  C   UNL     1      13.127  54.695  48.515  1.00  0.00     0.014 A 
HETATM   20  C   UNL     1      14.251  54.244  46.328  1.00  0.00     0.049 C 
HETATM   21  C   UNL     1      12.925  54.491  49.885  1.00  0.00    -0.061 A 
HETATM   22  C   UNL     1      11.868  55.257  50.626  1.00  0.00     0.048 C 
HETATM   23  C   UNL     1      13.750  53.595  50.565  1.00  0.00     0.007 A 
HETATM   24  C   UNL     1      14.748  52.902  49.884  1.00  0.00     0.010 A 
ENDBRANCH  16  17
ENDBRANCH  12  16
ENDBRANCH   1   9
BRANCH   1  25
HETATM   25  C   UNL     1      21.762  49.512  48.475  1.00  0.00     0.067 A 
HETATM   26  N   UNL     1      22.365  48.463  49.110  1.00  0.00    -0.263 NA
HETATM   27  C   UNL     1      23.719  48.440  49.129  1.00  0.00     0.117 A 
HETATM   28  C   UNL     1      24.510  49.389  48.509  1.00  0.00     0.019 A 
HETATM   29  C   UNL     1      23.883  50.426  47.829  1.00  0.00     0.003 A 
HETATM   30  C   UNL     1      22.493  50.492  47.806  1.00  0.00     0.030 A 
ENDBRANCH   1  25
BRANCH   5  31
HETATM   31  C   UNL     1      18.700  46.327  47.162  1.00  0.00     0.168 C 
BRANCH  31  32
HETATM   32  C   UNL     1      19.826  45.334  46.872  1.00  0.00     0.140 C 
HETATM   33  O   UNL     1      20.120  44.595  48.074  1.00  0.00    -0.384 OA
HETATM   34  C   UNL     1      21.530  44.657  48.321  1.00  0.00     0.168 C 
HETATM   35  C   UNL     1      22.166  45.041  47.005  1.00  0.00     0.029 C 
HETATM   36  C   UNL     1      21.135  45.982  46.432  1.00  0.00     0.036 C 
ENDBRANCH  31  32
ENDBRANCH   5  31
TORSDOF 6
ENDMDL
MODEL 8
REMARK VINA RESULT:      -8.6      7.722     11.918
REMARK  6 active torsions:
REMARK  status: ('A' for Active; 'I' for Inactive)
REMARK    1  A    between atoms: C_6  and  C_7 
REMARK    2  A    between atoms: C_7  and  N_8 
REMARK    3  A    between atoms: C_12  and  C_13 
REMARK    4  A    between atoms: C_13  and  C_14 
REMARK    5  A    between atoms: N_23  and  C_24 
REMARK    6  A    between atoms: C_24  and  C_25 
ROOT
HETATM    1  C   UNL     1      20.428  49.875  48.453  1.00  0.00     0.149 C 
HETATM    2  N   UNL     1      20.011  49.927  47.059  1.00  0.00    -0.220 NA
HETATM    3  C   UNL     1      19.326  48.783  46.700  1.00  0.00     0.304 C 
HETATM    4  O   UNL     1      19.026  48.536  45.545  1.00  0.00    -0.253 OA
HETATM    5  N   UNL     1      19.062  48.051  47.809  1.00  0.00    -0.270 N 
HETATM    6  C   UNL     1      19.628  48.633  48.907  1.00  0.00     0.257 C 
HETATM    7  O   UNL     1      19.521  48.247  50.063  1.00  0.00    -0.270 OA
HETATM    8  H   UNL     1      20.718  50.173  46.367  1.00  0.00     0.134 HD
ENDROOT
BRANCH   1   9
HETATM    9  C   UNL     1      20.012  51.152  49.252  1.00  0.00     0.028 C 
HETATM   10  C   UNL     1      18.825  50.940  50.218  1.00  0.00     0.035 C 
HETATM   11  C   UNL     1      17.451  50.914  49.553  1.00  0.00     0.235 C 
HETATM   12  N   UNL     1      17.258  52.129  48.679  1.00  0.00    -0.067 N 
HETATM   13  H   UNL     1      17.249  52.942  49.305  1.00  0.00     0.280 HD
HETATM   14  C   UNL     1      18.366  52.328  47.675  1.00  0.00     0.235 C 
HETATM   15  C   UNL     1      19.706  52.392  48.390  1.00  0.00     0.035 C 
BRANCH  12  16
HETATM   16  C   UNL     1      15.908  52.130  47.977  1.00  0.00     0.273 C 
BRANCH  16  17
HETATM   17  C   UNL     1      14.866  52.986  48.650  1.00  0.00    -0.027 A 
HETATM   18  C   UNL     1      14.101  53.946  47.954  1.00  0.00    -0.054 A 
HETATM   19  C   UNL     1      13.186  54.742  48.668  1.00  0.00     0.014 A 
HETATM   20  C   UNL     1      14.213  54.152  46.466  1.00  0.00     0.049 C 
HETATM   21  C   UNL     1      13.000  54.582  50.046  1.00  0.00    -0.061 A 
HETATM   22  C   UNL     1      12.032  55.452  50.795  1.00  0.00     0.048 C 
HETATM   23  C   UNL     1      13.757  53.629  50.727  1.00  0.00     0.007 A 
HETATM   24  C   UNL     1      14.674  52.837  50.037  1.00  0.00     0.010 A 
ENDBRANCH  16  17
ENDBRANCH  12  16
ENDBRANCH   1   9
BRANCH   1  25
HETATM   25  C   UNL     1      21.933  49.612  48.516  1.00  0.00     0.067 A 
HETATM   26  N   UNL     1      22.299  48.458  49.151  1.00  0.00    -0.263 NA
HETATM   27  C   UNL     1      23.623  48.196  49.252  1.00  0.00     0.117 A 
HETATM   28  C   UNL     1      24.608  49.004  48.715  1.00  0.00     0.019 A 
HETATM   29  C   UNL     1      24.220  50.150  48.033  1.00  0.00     0.003 A 
HETATM   30  C   UNL     1      22.867  50.462  47.927  1.00  0.00     0.030 A 
ENDBRANCH   1  25
BRANCH   5  31
HETATM   31  C   UNL     1      18.368  46.777  47.808  1.00  0.00     0.168 C 
BRANCH  31  32
HETATM   32  C   UNL     1      16.852  46.900  47.653  1.00  0.00     0.140 C 
HETATM   33  O   UNL     1      16.513  46.789  46.256  1.00  0.00    -0.384 OA
HETATM   34  C   UNL     1      15.681  47.898  45.893  1.00  0.00     0.168 C 
HETATM   35  C   UNL     1      15.119  48.437  47.189  1.00  0.00     0.029 C 
HETATM   36  C   UNL     1      16.278  48.229  48.132  1.00  0.00     0.036 C 
ENDBRANCH  31  32
ENDBRANCH   5  31
TORSDOF 6
ENDMDL
MODEL 9
REMARK VINA RESULT:      -8.5      9.692     12.200
REMARK  6 active torsions:
REMARK  status: ('A' for Active; 'I' for Inactive)
REMARK    1  A    between atoms: C_6  and  C_7 
REMARK    2  A    between atoms: C_7  and  N_8 
REMARK    3  A    between atoms: C_12  and  C_13 
REMARK    4  A    between atoms: C_13  and  C_14 
REMARK    5  A    between atoms: N_23  and  C_24 
REMARK    6  A    between atoms: C_24  and  C_25 
ROOT
HETATM    1  C   UNL     1      27.982  48.039  39.992  1.00  0.00     0.149 C 
HETATM    2  N   UNL     1      28.176  47.767  38.574  1.00  0.00    -0.220 NA
HETATM    3  C   UNL     1      28.005  46.425  38.297  1.00  0.00     0.304 C 
HETATM    4  O   UNL     1      28.277  45.943  37.212  1.00  0.00    -0.253 OA
HETATM    5  N   UNL     1      27.499  45.801  39.388  1.00  0.00    -0.270 N 
HETATM    6  C   UNL     1      27.401  46.675  40.431  1.00  0.00     0.257 C 
HETATM    7  O   UNL     1      26.928  46.432  41.533  1.00  0.00    -0.270 OA
HETATM    8  H   UNL     1      29.019  48.136  38.137  1.00  0.00     0.134 HD
ENDROOT
BRANCH   1   9
HETATM    9  C   UNL     1      26.973  49.204  40.247  1.00  0.00     0.028 C 
HETATM   10  C   UNL     1      26.449  49.886  38.965  1.00  0.00     0.035 C 
HETATM   11  C   UNL     1      27.417  50.874  38.318  1.00  0.00     0.235 C 
HETATM   12  N   UNL     1      27.909  51.878  39.332  1.00  0.00    -0.067 N 
HETATM   13  H   UNL     1      27.094  52.433  39.615  1.00  0.00     0.280 HD
HETATM   14  C   UNL     1      28.492  51.245  40.570  1.00  0.00     0.235 C 
HETATM   15  C   UNL     1      27.475  50.307  41.200  1.00  0.00     0.035 C 
BRANCH  12  16
HETATM   16  C   UNL     1      28.898  52.868  38.734  1.00  0.00     0.273 C 
BRANCH  16  17
HETATM   17  C   UNL     1      30.343  52.473  38.904  1.00  0.00    -0.027 A 
HETATM   18  C   UNL     1      31.163  53.001  39.923  1.00  0.00    -0.054 A 
HETATM   19  C   UNL     1      32.516  52.620  39.979  1.00  0.00     0.014 A 
HETATM   20  C   UNL     1      30.649  53.955  40.969  1.00  0.00     0.049 C 
HETATM   21  C   UNL     1      33.057  51.709  39.063  1.00  0.00    -0.061 A 
HETATM   22  C   UNL     1      34.507  51.328  39.127  1.00  0.00     0.048 C 
HETATM   23  C   UNL     1      32.239  51.190  38.060  1.00  0.00     0.007 A 
HETATM   24  C   UNL     1      30.897  51.562  37.985  1.00  0.00     0.010 A 
ENDBRANCH  16  17
ENDBRANCH  12  16
ENDBRANCH   1   9
BRANCH   1  25
HETATM   25  C   UNL     1      29.342  48.292  40.643  1.00  0.00     0.067 A 
HETATM   26  N   UNL     1      29.336  48.343  42.009  1.00  0.00    -0.263 NA
HETATM   27  C   UNL     1      30.514  48.589  42.629  1.00  0.00     0.117 A 
HETATM   28  C   UNL     1      31.715  48.745  41.960  1.00  0.00     0.019 A 
HETATM   29  C   UNL     1      31.713  48.646  40.574  1.00  0.00     0.003 A 
HETATM   30  C   UNL     1      30.516  48.414  39.902  1.00  0.00     0.030 A 
ENDBRANCH   1  25
BRANCH   5  31
HETATM   31  C   UNL     1      27.207  44.382  39.461  1.00  0.00     0.168 C 
BRANCH  31  32
HETATM   32  C   UNL     1      27.985  43.646  40.553  1.00  0.00     0.140 C 
HETATM   33  O   UNL     1      28.726  42.565  39.951  1.00  0.00    -0.384 OA
HETATM   34  C   UNL     1      28.445  41.357  40.671  1.00  0.00     0.168 C 
HETATM   35  C   UNL     1      27.896  41.790  42.010  1.00  0.00     0.029 C 
HETATM   36  C   UNL     1      27.111  43.022  41.634  1.00  0.00     0.036 C 
ENDBRANCH  31  32
ENDBRANCH   5  31
TORSDOF 6
ENDMDL
MODEL 10
REMARK VINA RESULT:      -8.5      4.196      9.154
REMARK  6 active torsions:
REMARK  status: ('A' for Active; 'I' for Inactive)
REMARK    1  A    between atoms: C_6  and  C_7 
REMARK    2  A    between atoms: C_7  and  N_8 
REMARK    3  A    between atoms: C_12  and  C_13 
REMARK    4  A    between atoms: C_13  and  C_14 
REMARK    5  A    between atoms: N_23  and  C_24 
REMARK    6  A    between atoms: C_24  and  C_25 
ROOT
HETATM    1  C   UNL     1      22.227  44.450  48.132  1.00  0.00     0.149 C 
HETATM    2  N   UNL     1      23.107  45.606  48.026  1.00  0.00    -0.220 NA
HETATM    3  C   UNL     1      22.384  46.781  47.992  1.00  0.00     0.304 C 
HETATM    4  O   UNL     1      22.898  47.857  47.742  1.00  0.00    -0.253 OA
HETATM    5  N   UNL     1      21.086  46.520  48.281  1.00  0.00    -0.270 N 
HETATM    6  C   UNL     1      20.895  45.177  48.430  1.00  0.00     0.257 C 
HETATM    7  O   UNL     1      19.850  44.629  48.751  1.00  0.00    -0.270 OA
HETATM    8  H   UNL     1      23.823  45.584  47.302  1.00  0.00     0.134 HD
ENDROOT
BRANCH   1   9
HETATM    9  C   UNL     1      22.632  43.491  49.297  1.00  0.00     0.028 C 
HETATM   10  C   UNL     1      22.828  44.191  50.660  1.00  0.00     0.035 C 
HETATM   11  C   UNL     1      24.153  44.934  50.818  1.00  0.00     0.235 C 
HETATM   12  N   UNL     1      25.314  44.034  50.473  1.00  0.00    -0.067 N 
HETATM   13  H   UNL     1      25.328  43.289  51.178  1.00  0.00     0.280 HD
HETATM   14  C   UNL     1      25.189  43.386  49.116  1.00  0.00     0.235 C 
HETATM   15  C   UNL     1      23.877  42.623  49.026  1.00  0.00     0.035 C 
BRANCH  12  16
HETATM   16  C   UNL     1      26.654  44.744  50.593  1.00  0.00     0.273 C 
BRANCH  16  17
HETATM   17  C   UNL     1      27.479  44.304  51.776  1.00  0.00    -0.027 A 
HETATM   18  C   UNL     1      27.398  44.931  53.038  1.00  0.00    -0.054 A 
HETATM   19  C   UNL     1      28.242  44.493  54.075  1.00  0.00     0.014 A 
HETATM   20  C   UNL     1      26.434  46.050  53.330  1.00  0.00     0.049 C 
HETATM   21  C   UNL     1      29.138  43.433  53.889  1.00  0.00    -0.061 A 
HETATM   22  C   UNL     1      30.044  42.992  55.002  1.00  0.00     0.048 C 
HETATM   23  C   UNL     1      29.210  42.818  52.640  1.00  0.00     0.007 A 
HETATM   24  C   UNL     1      28.387  43.242  51.598  1.00  0.00     0.010 A 
ENDBRANCH  16  17
ENDBRANCH  12  16
ENDBRANCH   1   9
BRANCH   1  25
HETATM   25  C   UNL     1      22.173  43.737  46.781  1.00  0.00     0.067 A 
HETATM   26  N   UNL     1      21.225  42.759  46.673  1.00  0.00    -0.263 NA
HETATM   27  C   UNL     1      21.157  42.083  45.502  1.00  0.00     0.117 A 
HETATM   28  C   UNL     1      21.957  42.359  44.409  1.00  0.00     0.019 A 
HETATM   29  C   UNL     1      22.887  43.387  44.518  1.00  0.00     0.003 A 
HETATM   30  C   UNL     1      22.998  44.089  45.714  1.00  0.00     0.030 A 
ENDBRANCH   1  25
BRANCH   5  31
HETATM   31  C   UNL     1      20.036  47.519  48.320  1.00  0.00     0.168 C 
BRANCH  31  32
HETATM   32  C   UNL     1      20.188  48.531  49.457  1.00  0.00     0.140 C 
HETATM   33  O   UNL     1      18.970  48.556  50.228  1.00  0.00    -0.384 OA
HETATM   34  C   UNL     1      18.533  49.915  50.357  1.00  0.00     0.168 C 
HETATM   35  C   UNL     1      19.743  50.770  50.063  1.00  0.00     0.029 C 
HETATM   36  C   UNL     1      20.434  49.962  48.992  1.00  0.00     0.036 C 
ENDBRANCH  31  32
ENDBRANCH   5  31
TORSDOF 6
ENDMDL
