MODEL 1
REMARK VINA RESULT:      -7.6      0.000      0.000
REMARK  6 active torsions:
REMARK  status: ('A' for Active; 'I' for Inactive)
REMARK    1  A    between atoms: C_2  and  O_3 
REMARK    2  A    between atoms: O_3  and  C_4 
REMARK    3  A    between atoms: C_4  and  C_5 
REMARK    4  A    between atoms: C_6  and  O_7 
REMARK    5  A    between atoms: C_12  and  O_13 
REMARK    6  A    between atoms: C_17  and  C_18 
ROOT
HETATM    1  C   UNL     1      28.473  49.940  40.684  1.00  0.00     0.133 C 
HETATM    2  C   UNL     1      27.627  51.103  40.059  1.00  0.00     0.073 C 
HETATM    3  C   UNL     1      27.775  52.391  40.887  1.00  0.00     0.047 C 
HETATM    4  C   UNL     1      27.966  51.399  38.570  1.00  0.00     0.097 C 
HETATM    5  C   UNL     1      29.426  51.296  38.348  1.00  0.00     0.042 A 
HETATM    6  C   UNL     1      30.356  50.686  39.163  1.00  0.00     0.030 A 
HETATM    7  C   UNL     1      31.557  50.844  38.454  1.00  0.00     0.190 A 
HETATM    8  N   UNL     1      31.419  51.502  37.310  1.00  0.00    -0.149 NA
HETATM    9  N   UNL     1      30.101  51.765  37.258  1.00  0.00    -0.279 N 
HETATM   10  H   UNL     1      29.740  52.258  36.447  1.00  0.00     0.189 HD
HETATM   11  C   UNL     1      30.010  49.994  40.438  1.00  0.00     0.074 C 
ENDROOT
BRANCH  11  12
HETATM   12  C   UNL     1      30.786  50.623  41.592  1.00  0.00    -0.048 A 
HETATM   13  C   UNL     1      30.728  51.980  41.956  1.00  0.00     0.011 A 
HETATM   14  C   UNL     1      31.472  52.469  43.035  1.00  0.00     0.043 A 
HETATM   15  C   UNL     1      32.279  51.604  43.762  1.00  0.00     0.116 A 
HETATM   16  F   UNL     1      32.991  52.075  44.794  1.00  0.00    -0.206 F 
HETATM   17  C   UNL     1      32.355  50.259  43.433  1.00  0.00     0.043 A 
HETATM   18  C   UNL     1      31.612  49.771  42.356  1.00  0.00     0.011 A 
ENDBRANCH  11  12
BRANCH   1  19
HETATM   19  C   UNL     1      27.987  48.596  40.165  1.00  0.00     0.267 C 
HETATM   20  O   UNL     1      28.405  48.041  39.159  1.00  0.00    -0.265 OA
BRANCH  19  21
HETATM   21  O   UNL     1      26.995  48.121  40.970  1.00  0.00    -0.316 OA
BRANCH  21  22
HETATM   22  C   UNL     1      26.182  47.052  40.446  1.00  0.00     0.123 C 
HETATM   23  C   UNL     1      24.725  47.436  40.670  1.00  0.00     0.040 C 
HETATM   24  C   UNL     1      26.539  45.778  41.197  1.00  0.00     0.040 C 
ENDBRANCH  21  22
ENDBRANCH  19  21
ENDBRANCH   1  19
BRANCH   2  25
HETATM   25  O   UNL     1      26.224  50.784  40.162  1.00  0.00    -0.389 OA
HETATM   26  H   UNL     1      25.734  51.405  39.584  1.00  0.00     0.210 HD
ENDBRANCH   2  25
BRANCH   7  27
HETATM   27  O   UNL     1      32.793  50.453  38.772  1.00  0.00    -0.343 OA
HETATM   28  H   UNL     1      32.963  49.575  38.399  1.00  0.00     0.219 HD
ENDBRANCH   7  27
TORSDOF 6
ENDMDL
MODEL 2
REMARK VINA RESULT:      -7.5      3.339      6.250
REMARK  6 active torsions:
REMARK  status: ('A' for Active; 'I' for Inactive)
REMARK    1  A    between atoms: C_2  and  O_3 
REMARK    2  A    between atoms: O_3  and  C_4 
REMARK    3  A    between atoms: C_4  and  C_5 
REMARK    4  A    between atoms: C_6  and  O_7 
REMARK    5  A    between atoms: C_12  and  O_13 
REMARK    6  A    between atoms: C_17  and  C_18 
ROOT
HETATM    1  C   UNL     1      31.857  51.113  40.947  1.00  0.00     0.133 C 
HETATM    2  C   UNL     1      31.761  52.365  40.006  1.00  0.00     0.073 C 
HETATM    3  C   UNL     1      31.594  51.933  38.539  1.00  0.00     0.047 C 
HETATM    4  C   UNL     1      30.624  53.355  40.390  1.00  0.00     0.097 C 
HETATM    5  C   UNL     1      29.418  52.609  40.814  1.00  0.00     0.042 A 
HETATM    6  C   UNL     1      29.343  51.285  41.194  1.00  0.00     0.030 A 
HETATM    7  C   UNL     1      27.990  51.126  41.535  1.00  0.00     0.190 A 
HETATM    8  N   UNL     1      27.266  52.226  41.375  1.00  0.00    -0.149 NA
HETATM    9  N   UNL     1      28.162  53.129  40.939  1.00  0.00    -0.279 N 
HETATM   10  H   UNL     1      27.842  54.076  40.758  1.00  0.00     0.189 HD
HETATM   11  C   UNL     1      30.521  50.374  41.251  1.00  0.00     0.074 C 
ENDROOT
BRANCH  11  12
HETATM   12  C   UNL     1      30.280  49.163  40.353  1.00  0.00    -0.048 A 
HETATM   13  C   UNL     1      29.387  49.132  39.268  1.00  0.00     0.011 A 
HETATM   14  C   UNL     1      29.233  47.977  38.495  1.00  0.00     0.043 A 
HETATM   15  C   UNL     1      29.976  46.844  38.796  1.00  0.00     0.116 A 
HETATM   16  F   UNL     1      29.827  45.738  38.054  1.00  0.00    -0.206 F 
HETATM   17  C   UNL     1      30.870  46.843  39.856  1.00  0.00     0.043 A 
HETATM   18  C   UNL     1      31.023  47.995  40.629  1.00  0.00     0.011 A 
ENDBRANCH  11  12
BRANCH   1  19
HETATM   19  C   UNL     1      32.465  51.505  42.284  1.00  0.00     0.267 C 
HETATM   20  O   UNL     1      31.878  51.469  43.356  1.00  0.00    -0.265 OA
BRANCH  19  21
HETATM   21  O   UNL     1      33.748  51.929  42.103  1.00  0.00    -0.316 OA
BRANCH  21  22
HETATM   22  C   UNL     1      34.794  51.096  42.639  1.00  0.00     0.123 C 
HETATM   23  C   UNL     1      35.853  52.017  43.231  1.00  0.00     0.040 C 
HETATM   24  C   UNL     1      35.362  50.262  41.499  1.00  0.00     0.040 C 
ENDBRANCH  21  22
ENDBRANCH  19  21
ENDBRANCH   1  19
BRANCH   2  25
HETATM   25  O   UNL     1      33.018  53.072  40.019  1.00  0.00    -0.389 OA
HETATM   26  H   UNL     1      33.671  52.510  40.484  1.00  0.00     0.210 HD
ENDBRANCH   2  25
BRANCH   7  27
HETATM   27  O   UNL     1      27.342  50.042  41.967  1.00  0.00    -0.343 OA
HETATM   28  H   UNL     1      27.761  49.711  42.774  1.00  0.00     0.219 HD
ENDBRANCH   7  27
TORSDOF 6
ENDMDL
MODEL 3
REMARK VINA RESULT:      -7.1     11.491     13.695
REMARK  6 active torsions:
REMARK  status: ('A' for Active; 'I' for Inactive)
REMARK    1  A    between atoms: C_2  and  O_3 
REMARK    2  A    between atoms: O_3  and  C_4 
REMARK    3  A    between atoms: C_4  and  C_5 
REMARK    4  A    between atoms: C_6  and  O_7 
REMARK    5  A    between atoms: C_12  and  O_13 
REMARK    6  A    between atoms: C_17  and  C_18 
ROOT
HETATM    1  C   UNL     1      26.233  45.952  51.716  1.00  0.00     0.133 C 
HETATM    2  C   UNL     1      26.218  46.877  50.449  1.00  0.00     0.073 C 
HETATM    3  C   UNL     1      27.147  46.321  49.356  1.00  0.00     0.047 C 
HETATM    4  C   UNL     1      24.797  47.109  49.856  1.00  0.00     0.097 C 
HETATM    5  C   UNL     1      24.010  45.857  49.913  1.00  0.00     0.042 A 
HETATM    6  C   UNL     1      24.268  44.738  50.678  1.00  0.00     0.030 A 
HETATM    7  C   UNL     1      23.190  43.890  50.379  1.00  0.00     0.190 A 
HETATM    8  N   UNL     1      22.335  44.401  49.502  1.00  0.00    -0.149 NA
HETATM    9  N   UNL     1      22.851  45.613  49.233  1.00  0.00    -0.279 N 
HETATM   10  H   UNL     1      22.352  46.215  48.585  1.00  0.00     0.189 HD
HETATM   11  C   UNL     1      25.423  44.626  51.613  1.00  0.00     0.074 C 
ENDROOT
BRANCH  11  12
HETATM   12  C   UNL     1      26.279  43.421  51.233  1.00  0.00    -0.048 A 
HETATM   13  C   UNL     1      26.406  42.902  49.933  1.00  0.00     0.011 A 
HETATM   14  C   UNL     1      27.219  41.794  49.676  1.00  0.00     0.043 A 
HETATM   15  C   UNL     1      27.917  41.196  50.716  1.00  0.00     0.116 A 
HETATM   16  F   UNL     1      28.694  40.135  50.467  1.00  0.00    -0.206 F 
HETATM   17  C   UNL     1      27.818  41.687  52.009  1.00  0.00     0.043 A 
HETATM   18  C   UNL     1      27.006  42.792  52.267  1.00  0.00     0.011 A 
ENDBRANCH  11  12
BRANCH   1  19
HETATM   19  C   UNL     1      25.704  46.706  52.925  1.00  0.00     0.267 C 
HETATM   20  O   UNL     1      25.046  47.735  52.874  1.00  0.00    -0.265 OA
BRANCH  19  21
HETATM   21  O   UNL     1      26.098  46.080  54.070  1.00  0.00    -0.316 OA
BRANCH  21  22
HETATM   22  C   UNL     1      27.506  46.104  54.377  1.00  0.00     0.123 C 
HETATM   23  C   UNL     1      27.814  44.861  55.203  1.00  0.00     0.040 C 
HETATM   24  C   UNL     1      27.794  47.375  55.163  1.00  0.00     0.040 C 
ENDBRANCH  21  22
ENDBRANCH  19  21
ENDBRANCH   1  19
BRANCH   2  25
HETATM   25  O   UNL     1      26.797  48.155  50.781  1.00  0.00    -0.389 OA
HETATM   26  H   UNL     1      26.763  48.715  49.978  1.00  0.00     0.210 HD
ENDBRANCH   2  25
BRANCH   7  27
HETATM   27  O   UNL     1      22.922  42.662  50.829  1.00  0.00    -0.343 OA
HETATM   28  H   UNL     1      22.115  42.330  50.409  1.00  0.00     0.219 HD
ENDBRANCH   7  27
TORSDOF 6
ENDMDL
MODEL 4
REMARK VINA RESULT:      -7.1     10.824     12.867
REMARK  6 active torsions:
REMARK  status: ('A' for Active; 'I' for Inactive)
REMARK    1  A    between atoms: C_2  and  O_3 
REMARK    2  A    between atoms: O_3  and  C_4 
REMARK    3  A    between atoms: C_4  and  C_5 
REMARK    4  A    between atoms: C_6  and  O_7 
REMARK    5  A    between atoms: C_12  and  O_13 
REMARK    6  A    between atoms: C_17  and  C_18 
ROOT
HETATM    1  C   UNL     1      19.925  48.340  46.901  1.00  0.00     0.133 C 
HETATM    2  C   UNL     1      19.419  46.916  47.321  1.00  0.00     0.073 C 
HETATM    3  C   UNL     1      20.599  46.009  47.706  1.00  0.00     0.047 C 
HETATM    4  C   UNL     1      18.376  46.935  48.476  1.00  0.00     0.097 C 
HETATM    5  C   UNL     1      18.747  47.955  49.482  1.00  0.00     0.042 A 
HETATM    6  C   UNL     1      19.628  49.004  49.326  1.00  0.00     0.030 A 
HETATM    7  C   UNL     1      19.559  49.667  50.562  1.00  0.00     0.190 A 
HETATM    8  N   UNL     1      18.734  49.095  51.430  1.00  0.00    -0.149 NA
HETATM    9  N   UNL     1      18.238  48.049  50.746  1.00  0.00    -0.279 N 
HETATM   10  H   UNL     1      17.555  47.454  51.205  1.00  0.00     0.189 HD
HETATM   11  C   UNL     1      20.357  49.289  48.057  1.00  0.00     0.074 C 
ENDROOT
BRANCH  11  12
HETATM   12  C   UNL     1      21.861  49.284  48.316  1.00  0.00    -0.048 A 
HETATM   13  C   UNL     1      22.537  48.347  49.118  1.00  0.00     0.011 A 
HETATM   14  C   UNL     1      23.922  48.417  49.295  1.00  0.00     0.043 A 
HETATM   15  C   UNL     1      24.646  49.421  48.668  1.00  0.00     0.116 A 
HETATM   16  F   UNL     1      25.973  49.487  48.840  1.00  0.00    -0.206 F 
HETATM   17  C   UNL     1      24.012  50.358  47.866  1.00  0.00     0.043 A 
HETATM   18  C   UNL     1      22.629  50.289  47.689  1.00  0.00     0.011 A 
ENDBRANCH  11  12
BRANCH   1  19
HETATM   19  C   UNL     1      18.854  49.067  46.104  1.00  0.00     0.267 C 
HETATM   20  O   UNL     1      18.370  48.668  45.055  1.00  0.00    -0.265 OA
BRANCH  19  21
HETATM   21  O   UNL     1      18.537  50.242  46.719  1.00  0.00    -0.316 OA
BRANCH  21  22
HETATM   22  C   UNL     1      17.169  50.684  46.620  1.00  0.00     0.123 C 
HETATM   23  C   UNL     1      17.186  52.097  46.051  1.00  0.00     0.040 C 
HETATM   24  C   UNL     1      16.564  50.658  48.016  1.00  0.00     0.040 C 
ENDBRANCH  21  22
ENDBRANCH  19  21
ENDBRANCH   1  19
BRANCH   2  25
HETATM   25  O   UNL     1      18.834  46.259  46.178  1.00  0.00    -0.389 OA
HETATM   26  H   UNL     1      17.904  46.048  46.399  1.00  0.00     0.210 HD
ENDBRANCH   2  25
BRANCH   7  27
HETATM   27  O   UNL     1      20.209  50.754  50.983  1.00  0.00    -0.343 OA
HETATM   28  H   UNL     1      20.001  50.918  51.915  1.00  0.00     0.219 HD
ENDBRANCH   7  27
TORSDOF 6
ENDMDL
MODEL 5
REMARK VINA RESULT:      -7.1     10.564     12.472
REMARK  6 active torsions:
REMARK  status: ('A' for Active; 'I' for Inactive)
REMARK    1  A    between atoms: C_2  and  O_3 
REMARK    2  A    between atoms: O_3  and  C_4 
REMARK    3  A    between atoms: C_4  and  C_5 
REMARK    4  A    between atoms: C_6  and  O_7 
REMARK    5  A    between atoms: C_12  and  O_13 
REMARK    6  A    between atoms: C_17  and  C_18 
ROOT
HETATM    1  C   UNL     1      24.697  44.802  49.971  1.00  0.00     0.133 C 
HETATM    2  C   UNL     1      25.836  43.752  50.216  1.00  0.00     0.073 C 
HETATM    3  C   UNL     1      27.144  44.197  49.541  1.00  0.00     0.047 C 
HETATM    4  C   UNL     1      26.102  43.452  51.720  1.00  0.00     0.097 C 
HETATM    5  C   UNL     1      26.011  44.698  52.513  1.00  0.00     0.042 A 
HETATM    6  C   UNL     1      25.431  45.891  52.136  1.00  0.00     0.030 A 
HETATM    7  C   UNL     1      25.587  46.698  53.274  1.00  0.00     0.190 A 
HETATM    8  N   UNL     1      26.217  46.094  54.274  1.00  0.00    -0.149 NA
HETATM    9  N   UNL     1      26.463  44.864  53.791  1.00  0.00    -0.279 N 
HETATM   10  H   UNL     1      26.934  44.196  54.394  1.00  0.00     0.189 HD
HETATM   11  C   UNL     1      24.764  46.105  50.819  1.00  0.00     0.074 C 
ENDROOT
BRANCH  11  12
HETATM   12  C   UNL     1      25.428  47.270  50.090  1.00  0.00    -0.048 A 
HETATM   13  C   UNL     1      26.816  47.454  49.963  1.00  0.00     0.011 A 
HETATM   14  C   UNL     1      27.337  48.551  49.270  1.00  0.00     0.043 A 
HETATM   15  C   UNL     1      26.475  49.473  48.694  1.00  0.00     0.116 A 
HETATM   16  F   UNL     1      26.975  50.525  48.032  1.00  0.00    -0.206 F 
HETATM   17  C   UNL     1      25.100  49.319  48.796  1.00  0.00     0.043 A 
HETATM   18  C   UNL     1      24.580  48.224  49.488  1.00  0.00     0.011 A 
ENDBRANCH  11  12
BRANCH   1  19
HETATM   19  C   UNL     1      23.337  44.173  50.226  1.00  0.00     0.267 C 
HETATM   20  O   UNL     1      23.128  43.243  50.993  1.00  0.00    -0.265 OA
BRANCH  19  21
HETATM   21  O   UNL     1      22.394  44.780  49.451  1.00  0.00    -0.316 OA
BRANCH  21  22
HETATM   22  C   UNL     1      22.690  44.919  48.047  1.00  0.00     0.123 C 
HETATM   23  C   UNL     1      22.048  46.216  47.572  1.00  0.00     0.040 C 
HETATM   24  C   UNL     1      22.108  43.715  47.322  1.00  0.00     0.040 C 
ENDBRANCH  21  22
ENDBRANCH  19  21
ENDBRANCH   1  19
BRANCH   2  25
HETATM   25  O   UNL     1      25.503  42.518  49.548  1.00  0.00    -0.389 OA
HETATM   26  H   UNL     1      25.876  41.783  50.077  1.00  0.00     0.210 HD
ENDBRANCH   2  25
BRANCH   7  27
HETATM   27  O   UNL     1      25.217  47.964  53.479  1.00  0.00    -0.343 OA
HETATM   28  H   UNL     1      25.812  48.559  52.999  1.00  0.00     0.219 HD
ENDBRANCH   7  27
TORSDOF 6
ENDMDL
MODEL 6
REMARK VINA RESULT:      -7.0      3.650      5.930
REMARK  6 active torsions:
REMARK  status: ('A' for Active; 'I' for Inactive)
REMARK    1  A    between atoms: C_2  and  O_3 
REMARK    2  A    between atoms: O_3  and  C_4 
REMARK    3  A    between atoms: C_4  and  C_5 
REMARK    4  A    between atoms: C_6  and  O_7 
REMARK    5  A    between atoms: C_12  and  O_13 
REMARK    6  A    between atoms: C_17  and  C_18 
ROOT
HETATM    1  C   UNL     1      28.289  49.236  39.123  1.00  0.00     0.133 C 
HETATM    2  C   UNL     1      27.565  49.661  40.448  1.00  0.00     0.073 C 
HETATM    3  C   UNL     1      26.732  48.499  41.013  1.00  0.00     0.047 C 
HETATM    4  C   UNL     1      28.529  50.194  41.548  1.00  0.00     0.097 C 
HETATM    5  C   UNL     1      29.775  49.396  41.567  1.00  0.00     0.042 A 
HETATM    6  C   UNL     1      30.246  48.556  40.579  1.00  0.00     0.030 A 
HETATM    7  C   UNL     1      31.471  48.106  41.098  1.00  0.00     0.190 A 
HETATM    8  N   UNL     1      31.752  48.592  42.301  1.00  0.00    -0.149 NA
HETATM    9  N   UNL     1      30.702  49.389  42.569  1.00  0.00    -0.279 N 
HETATM   10  H   UNL     1      30.696  49.897  43.448  1.00  0.00     0.189 HD
HETATM   11  C   UNL     1      29.546  48.330  39.283  1.00  0.00     0.074 C 
ENDROOT
BRANCH  11  12
HETATM   12  C   UNL     1      29.248  46.843  39.110  1.00  0.00    -0.048 A 
HETATM   13  C   UNL     1      28.616  46.033  40.069  1.00  0.00     0.011 A 
HETATM   14  C   UNL     1      28.378  44.677  39.822  1.00  0.00     0.043 A 
HETATM   15  C   UNL     1      28.765  44.120  38.611  1.00  0.00     0.116 A 
HETATM   16  F   UNL     1      28.537  42.821  38.377  1.00  0.00    -0.206 F 
HETATM   17  C   UNL     1      29.385  44.893  37.641  1.00  0.00     0.043 A 
HETATM   18  C   UNL     1      29.624  46.246  37.887  1.00  0.00     0.011 A 
ENDBRANCH  11  12
BRANCH   1  19
HETATM   19  C   UNL     1      28.721  50.465  38.341  1.00  0.00     0.267 C 
HETATM   20  O   UNL     1      27.975  51.366  37.984  1.00  0.00    -0.265 OA
BRANCH  19  21
HETATM   21  O   UNL     1      30.056  50.396  38.071  1.00  0.00    -0.316 OA
BRANCH  21  22
HETATM   22  C   UNL     1      30.804  51.626  38.151  1.00  0.00     0.123 C 
HETATM   23  C   UNL     1      32.276  51.276  37.981  1.00  0.00     0.040 C 
HETATM   24  C   UNL     1      30.537  52.250  39.513  1.00  0.00     0.040 C 
ENDBRANCH  21  22
ENDBRANCH  19  21
ENDBRANCH   1  19
BRANCH   2  25
HETATM   25  O   UNL     1      26.587  50.680  40.155  1.00  0.00    -0.389 OA
HETATM   26  H   UNL     1      26.670  51.378  40.836  1.00  0.00     0.210 HD
ENDBRANCH   2  25
BRANCH   7  27
HETATM   27  O   UNL     1      32.361  47.262  40.573  1.00  0.00    -0.343 OA
HETATM   28  H   UNL     1      31.985  46.371  40.538  1.00  0.00     0.219 HD
ENDBRANCH   7  27
TORSDOF 6
ENDMDL
MODEL 7
REMARK VINA RESULT:      -7.0      2.106      2.759
REMARK  6 active torsions:
REMARK  status: ('A' for Active; 'I' for Inactive)
REMARK    1  A    between atoms: C_2  and  O_3 
REMARK    2  A    between atoms: O_3  and  C_4 
REMARK    3  A    between atoms: C_4  and  C_5 
REMARK    4  A    between atoms: C_6  and  O_7 
REMARK    5  A    between atoms: C_12  and  O_13 
REMARK    6  A    between atoms: C_17  and  C_18 
ROOT
HETATM    1  C   UNL     1      28.393  48.383  39.792  1.00  0.00     0.133 C 
HETATM    2  C   UNL     1      27.411  49.348  40.545  1.00  0.00     0.073 C 
HETATM    3  C   UNL     1      28.031  49.835  41.866  1.00  0.00     0.047 C 
HETATM    4  C   UNL     1      26.960  50.573  39.698  1.00  0.00     0.097 C 
HETATM    5  C   UNL     1      28.096  51.089  38.901  1.00  0.00     0.042 A 
HETATM    6  C   UNL     1      29.276  50.439  38.607  1.00  0.00     0.030 A 
HETATM    7  C   UNL     1      29.955  51.360  37.794  1.00  0.00     0.190 A 
HETATM    8  N   UNL     1      29.290  52.492  37.598  1.00  0.00    -0.149 NA
HETATM    9  N   UNL     1      28.146  52.303  38.279  1.00  0.00    -0.279 N 
HETATM   10  H   UNL     1      27.450  53.043  38.265  1.00  0.00     0.189 HD
HETATM   11  C   UNL     1      29.590  49.053  39.056  1.00  0.00     0.074 C 
ENDROOT
BRANCH  11  12
HETATM   12  C   UNL     1      30.879  49.056  39.874  1.00  0.00    -0.048 A 
HETATM   13  C   UNL     1      31.567  47.905  40.296  1.00  0.00     0.011 A 
HETATM   14  C   UNL     1      32.747  48.004  41.040  1.00  0.00     0.043 A 
HETATM   15  C   UNL     1      33.254  49.254  41.363  1.00  0.00     0.116 A 
HETATM   16  F   UNL     1      34.384  49.347  42.076  1.00  0.00    -0.206 F 
HETATM   17  C   UNL     1      32.603  50.410  40.957  1.00  0.00     0.043 A 
HETATM   18  C   UNL     1      31.425  50.312  40.215  1.00  0.00     0.011 A 
ENDBRANCH  11  12
BRANCH   1  19
HETATM   19  C   UNL     1      27.637  47.563  38.760  1.00  0.00     0.267 C 
HETATM   20  O   UNL     1      27.399  47.925  37.616  1.00  0.00    -0.265 OA
BRANCH  19  21
HETATM   21  O   UNL     1      27.239  46.380  39.309  1.00  0.00    -0.316 OA
BRANCH  21  22
HETATM   22  C   UNL     1      28.242  45.609  39.999  1.00  0.00     0.123 C 
HETATM   23  C   UNL     1      29.173  45.025  38.945  1.00  0.00     0.040 C 
HETATM   24  C   UNL     1      27.535  44.512  40.782  1.00  0.00     0.040 C 
ENDBRANCH  21  22
ENDBRANCH  19  21
ENDBRANCH   1  19
BRANCH   2  25
HETATM   25  O   UNL     1      26.241  48.614  40.960  1.00  0.00    -0.389 OA
HETATM   26  H   UNL     1      25.639  48.553  40.190  1.00  0.00     0.210 HD
ENDBRANCH   2  25
BRANCH   7  27
HETATM   27  O   UNL     1      31.157  51.267  37.220  1.00  0.00    -0.343 OA
HETATM   28  H   UNL     1      31.668  50.563  37.645  1.00  0.00     0.219 HD
ENDBRANCH   7  27
TORSDOF 6
ENDMDL
MODEL 8
REMARK VINA RESULT:      -7.0     12.766     15.150
REMARK  6 active torsions:
REMARK  status: ('A' for Active; 'I' for Inactive)
REMARK    1  A    between atoms: C_2  and  O_3 
REMARK    2  A    between atoms: O_3  and  C_4 
REMARK    3  A    between atoms: C_4  and  C_5 
REMARK    4  A    between atoms: C_6  and  O_7 
REMARK    5  A    between atoms: C_12  and  O_13 
REMARK    6  A    between atoms: C_17  and  C_18 
ROOT
HETATM    1  C   UNL     1      16.992  52.180  48.589  1.00  0.00     0.133 C 
HETATM    2  C   UNL     1      16.432  52.080  47.127  1.00  0.00     0.073 C 
HETATM    3  C   UNL     1      17.577  52.120  46.101  1.00  0.00     0.047 C 
HETATM    4  C   UNL     1      15.550  50.823  46.876  1.00  0.00     0.097 C 
HETATM    5  C   UNL     1      16.125  49.648  47.569  1.00  0.00     0.042 A 
HETATM    6  C   UNL     1      17.059  49.649  48.584  1.00  0.00     0.030 A 
HETATM    7  C   UNL     1      17.201  48.286  48.890  1.00  0.00     0.190 A 
HETATM    8  N   UNL     1      16.450  47.489  48.139  1.00  0.00    -0.149 NA
HETATM    9  N   UNL     1      15.790  48.345  47.338  1.00  0.00    -0.279 N 
HETATM   10  H   UNL     1      15.126  47.964  46.671  1.00  0.00     0.189 HD
HETATM   11  C   UNL     1      17.641  50.890  49.170  1.00  0.00     0.074 C 
ENDROOT
BRANCH  11  12
HETATM   12  C   UNL     1      19.161  50.860  49.033  1.00  0.00    -0.048 A 
HETATM   13  C   UNL     1      19.856  50.637  47.831  1.00  0.00     0.011 A 
HETATM   14  C   UNL     1      21.254  50.632  47.798  1.00  0.00     0.043 A 
HETATM   15  C   UNL     1      21.970  50.856  48.965  1.00  0.00     0.116 A 
HETATM   16  F   UNL     1      23.309  50.851  48.931  1.00  0.00    -0.206 F 
HETATM   17  C   UNL     1      21.316  51.085  50.166  1.00  0.00     0.043 A 
HETATM   18  C   UNL     1      19.921  51.089  50.200  1.00  0.00     0.011 A 
ENDBRANCH  11  12
BRANCH   1  19
HETATM   19  C   UNL     1      15.889  52.595  49.549  1.00  0.00     0.267 C 
HETATM   20  O   UNL     1      15.007  51.856  49.963  1.00  0.00    -0.265 OA
BRANCH  19  21
HETATM   21  O   UNL     1      16.013  53.919  49.852  1.00  0.00    -0.316 OA
BRANCH  21  22
HETATM   22  C   UNL     1      14.820  54.607  50.276  1.00  0.00     0.123 C 
HETATM   23  C   UNL     1      14.352  55.469  49.111  1.00  0.00     0.040 C 
HETATM   24  C   UNL     1      15.174  55.459  51.487  1.00  0.00     0.040 C 
ENDBRANCH  21  22
ENDBRANCH  19  21
ENDBRANCH   1  19
BRANCH   2  25
HETATM   25  O   UNL     1      15.657  53.259  46.829  1.00  0.00    -0.389 OA
HETATM   26  H   UNL     1      14.712  53.030  46.943  1.00  0.00     0.210 HD
ENDBRANCH   2  25
BRANCH   7  27
HETATM   27  O   UNL     1      17.982  47.692  49.794  1.00  0.00    -0.343 OA
HETATM   28  H   UNL     1      18.907  47.748  49.513  1.00  0.00     0.219 HD
ENDBRANCH   7  27
TORSDOF 6
ENDMDL
MODEL 9
REMARK VINA RESULT:      -6.8     11.954     14.081
REMARK  6 active torsions:
REMARK  status: ('A' for Active; 'I' for Inactive)
REMARK    1  A    between atoms: C_2  and  O_3 
REMARK    2  A    between atoms: O_3  and  C_4 
REMARK    3  A    between atoms: C_4  and  C_5 
REMARK    4  A    between atoms: C_6  and  O_7 
REMARK    5  A    between atoms: C_12  and  O_13 
REMARK    6  A    between atoms: C_17  and  C_18 
ROOT
HETATM    1  C   UNL     1      26.043  43.939  51.796  1.00  0.00     0.133 C 
HETATM    2  C   UNL     1      26.097  45.365  51.143  1.00  0.00     0.073 C 
HETATM    3  C   UNL     1      27.012  45.366  49.908  1.00  0.00     0.047 C 
HETATM    4  C   UNL     1      24.700  45.934  50.758  1.00  0.00     0.097 C 
HETATM    5  C   UNL     1      23.846  44.859  50.205  1.00  0.00     0.042 A 
HETATM    6  C   UNL     1      24.032  43.498  50.321  1.00  0.00     0.030 A 
HETATM    7  C   UNL     1      22.915  42.963  49.659  1.00  0.00     0.190 A 
HETATM    8  N   UNL     1      22.103  43.884  49.155  1.00  0.00    -0.149 NA
HETATM    9  N   UNL     1      22.687  45.043  49.507  1.00  0.00    -0.279 N 
HETATM   10  H   UNL     1      22.231  45.911  49.242  1.00  0.00     0.189 HD
HETATM   11  C   UNL     1      25.165  42.879  51.068  1.00  0.00     0.074 C 
ENDROOT
BRANCH  11  12
HETATM   12  C   UNL     1      25.961  41.969  50.136  1.00  0.00    -0.048 A 
HETATM   13  C   UNL     1      26.203  42.226  48.776  1.00  0.00     0.011 A 
HETATM   14  C   UNL     1      26.950  41.336  47.997  1.00  0.00     0.043 A 
HETATM   15  C   UNL     1      27.465  40.183  48.573  1.00  0.00     0.116 A 
HETATM   16  F   UNL     1      28.179  39.331  47.826  1.00  0.00    -0.206 F 
HETATM   17  C   UNL     1      27.249  39.903  49.914  1.00  0.00     0.043 A 
HETATM   18  C   UNL     1      26.503  40.791  50.692  1.00  0.00     0.011 A 
ENDBRANCH  11  12
BRANCH   1  19
HETATM   19  C   UNL     1      25.535  44.033  53.226  1.00  0.00     0.267 C 
HETATM   20  O   UNL     1      24.503  44.594  53.567  1.00  0.00    -0.265 OA
BRANCH  19  21
HETATM   21  O   UNL     1      26.417  43.427  54.070  1.00  0.00    -0.316 OA
BRANCH  21  22
HETATM   22  C   UNL     1      27.792  43.358  53.643  1.00  0.00     0.123 C 
HETATM   23  C   UNL     1      28.259  41.921  53.837  1.00  0.00     0.040 C 
HETATM   24  C   UNL     1      28.599  44.322  54.501  1.00  0.00     0.040 C 
ENDBRANCH  21  22
ENDBRANCH  19  21
ENDBRANCH   1  19
BRANCH   2  25
HETATM   25  O   UNL     1      26.738  46.284  52.051  1.00  0.00    -0.389 OA
HETATM   26  H   UNL     1      26.523  46.000  52.964  1.00  0.00     0.210 HD
ENDBRANCH   2  25
BRANCH   7  27
HETATM   27  O   UNL     1      22.575  41.689  49.454  1.00  0.00    -0.343 OA
HETATM   28  H   UNL     1      21.714  41.512  49.859  1.00  0.00     0.219 HD
ENDBRANCH   7  27
TORSDOF 6
ENDMDL
MODEL 10
REMARK VINA RESULT:      -6.7     25.694     26.983
REMARK  6 active torsions:
REMARK  status: ('A' for Active; 'I' for Inactive)
REMARK    1  A    between atoms: C_2  and  O_3 
REMARK    2  A    between atoms: O_3  and  C_4 
REMARK    3  A    between atoms: C_4  and  C_5 
REMARK    4  A    between atoms: C_6  and  O_7 
REMARK    5  A    between atoms: C_12  and  O_13 
REMARK    6  A    between atoms: C_17  and  C_18 
ROOT
HETATM    1  C   UNL     1      38.281  44.829  65.202  1.00  0.00     0.133 C 
HETATM    2  C   UNL     1      37.783  44.988  66.681  1.00  0.00     0.073 C 
HETATM    3  C   UNL     1      38.964  44.919  67.664  1.00  0.00     0.047 C 
HETATM    4  C   UNL     1      36.969  46.290  66.935  1.00  0.00     0.097 C 
HETATM    5  C   UNL     1      37.570  47.421  66.192  1.00  0.00     0.042 A 
HETATM    6  C   UNL     1      38.462  47.354  65.143  1.00  0.00     0.030 A 
HETATM    7  C   UNL     1      38.654  48.702  64.799  1.00  0.00     0.190 A 
HETATM    8  N   UNL     1      37.970  49.549  65.558  1.00  0.00    -0.149 NA
HETATM    9  N   UNL     1      37.304  48.743  66.403  1.00  0.00    -0.279 N 
HETATM   10  H   UNL     1      36.685  49.169  67.086  1.00  0.00     0.189 HD
HETATM   11  C   UNL     1      38.964  46.075  64.565  1.00  0.00     0.074 C 
ENDROOT
BRANCH  11  12
HETATM   12  C   UNL     1      40.488  46.037  64.645  1.00  0.00    -0.048 A 
HETATM   13  C   UNL     1      41.270  46.846  65.487  1.00  0.00     0.011 A 
HETATM   14  C   UNL     1      42.665  46.739  65.497  1.00  0.00     0.043 A 
HETATM   15  C   UNL     1      43.290  45.818  64.669  1.00  0.00     0.116 A 
HETATM   16  F   UNL     1      44.625  45.717  64.679  1.00  0.00    -0.206 F 
HETATM   17  C   UNL     1      42.548  45.000  63.830  1.00  0.00     0.043 A 
HETATM   18  C   UNL     1      41.156  45.107  63.819  1.00  0.00     0.011 A 
ENDBRANCH  11  12
BRANCH   1  19
HETATM   19  C   UNL     1      37.123  44.444  64.295  1.00  0.00     0.267 C 
HETATM   20  O   UNL     1      36.324  45.231  63.808  1.00  0.00    -0.265 OA
BRANCH  19  21
HETATM   21  O   UNL     1      37.092  43.091  64.133  1.00  0.00    -0.316 OA
BRANCH  21  22
HETATM   22  C   UNL     1      38.355  42.398  64.173  1.00  0.00     0.123 C 
HETATM   23  C   UNL     1      38.859  42.284  62.740  1.00  0.00     0.040 C 
HETATM   24  C   UNL     1      38.120  41.026  64.787  1.00  0.00     0.040 C 
ENDBRANCH  21  22
ENDBRANCH  19  21
ENDBRANCH   1  19
BRANCH   2  25
HETATM   25  O   UNL     1      36.967  43.853  67.037  1.00  0.00    -0.389 OA
HETATM   26  H   UNL     1      36.441  43.606  66.249  1.00  0.00     0.210 HD
ENDBRANCH   2  25
BRANCH   7  27
HETATM   27  O   UNL     1      39.426  49.238  63.851  1.00  0.00    -0.343 OA
HETATM   28  H   UNL     1      40.352  49.007  64.015  1.00  0.00     0.219 HD
ENDBRANCH   7  27
TORSDOF 6
ENDMDL
