MODEL 1
REMARK VINA RESULT:     -10.3      0.000      0.000
REMARK  5 active torsions:
REMARK  status: ('A' for Active; 'I' for Inactive)
REMARK    1  A    between atoms: C_2  and  N_3 
REMARK    2  A    between atoms: N_7  and  C_8 
REMARK    3  A    between atoms: N_14  and  C_15 
REMARK    4  A    between atoms: C_19  and  C_20 
REMARK       I    between atoms: C_20  and  N_21 
REMARK    5  A    between atoms: N_21  and  C_22 
ROOT
HETATM    1  C   UNL     1      19.797  47.031  48.224  1.00  0.00     0.071 A 
HETATM    2  C   UNL     1      19.984  45.637  48.313  1.00  0.00     0.143 A 
HETATM    3  F   UNL     1      18.944  44.797  48.195  1.00  0.00    -0.204 F 
HETATM    4  C   UNL     1      21.223  45.062  48.583  1.00  0.00     0.062 A 
HETATM    5  C   UNL     1      22.332  45.882  48.781  1.00  0.00     0.045 A 
HETATM    6  C   UNL     1      22.224  47.277  48.681  1.00  0.00     0.051 A 
HETATM    7  N   UNL     1      23.378  48.081  48.895  1.00  0.00    -0.350 N 
HETATM    8  C   UNL     1      24.523  47.487  49.404  1.00  0.00     0.113 C 
HETATM    9  C   UNL     1      24.736  46.171  49.551  1.00  0.00     0.099 C 
HETATM   10  C   UNL     1      23.637  45.269  49.126  1.00  0.00     0.201 C 
HETATM   11  O   UNL     1      23.782  44.049  49.091  1.00  0.00    -0.286 OA
HETATM   12  C   UNL     1      20.958  47.821  48.384  1.00  0.00     0.063 A 
ENDROOT
BRANCH   9  13
HETATM   13  C   UNL     1      26.021  45.707  50.160  1.00  0.00     0.275 C 
HETATM   14  N   UNL     1      25.857  45.097  51.383  1.00  0.00    -0.153 N 
HETATM   15  H   UNL     1      24.914  44.956  51.737  1.00  0.00     0.187 HD
HETATM   16  O   UNL     1      27.074  45.891  49.558  1.00  0.00    -0.267 OA
BRANCH  14  17
HETATM   17  C   UNL     1      26.915  44.750  52.185  1.00  0.00     0.708 A 
HETATM   18  N   UNL     1      27.200  45.160  53.397  1.00  0.00    -0.062 NA
HETATM   19  C   UNL     1      28.323  44.469  53.775  1.00  0.00     0.103 A 
HETATM   20  C   UNL     1      28.751  43.626  52.757  1.00  0.00     0.078 A 
HETATM   21  C   UNL     1      29.038  44.503  54.981  1.00  0.00     0.034 A 
HETATM   22  N   UNL     1      27.835  43.826  51.756  1.00  0.00    -0.187 N 
HETATM   23  C   UNL     1      29.876  42.806  52.857  1.00  0.00     0.032 A 
HETATM   24  H   UNL     1      27.838  43.372  50.857  1.00  0.00     0.184 HD
HETATM   25  C   UNL     1      30.578  42.854  54.067  1.00  0.00     0.002 A 
HETATM   26  C   UNL     1      30.168  43.684  55.114  1.00  0.00     0.002 A 
ENDBRANCH  14  17
ENDBRANCH   9  13
BRANCH   7  27
HETATM   27  C   UNL     1      23.323  49.556  48.871  1.00  0.00     0.090 A 
HETATM   28  C   UNL     1      24.276  50.377  48.036  1.00  0.00     0.028 A 
HETATM   29  C   UNL     1      22.829  50.311  47.662  1.00  0.00     0.028 A 
ENDBRANCH   7  27
BRANCH   1  30
HETATM   30  N   UNL     1      18.567  47.652  47.953  1.00  0.00    -0.375 N 
HETATM   31  C   UNL     1      18.505  48.590  46.811  1.00  0.00     0.150 C 
HETATM   32  C   UNL     1      18.811  50.033  47.269  1.00  0.00     0.254 C 
HETATM   33  N   UNL     1      17.865  50.459  48.399  1.00  0.00    -0.068 N 
HETATM   34  H   UNL     1      16.905  50.416  48.031  1.00  0.00     0.280 HD
HETATM   35  C   UNL     1      17.929  49.451  49.563  1.00  0.00     0.254 C 
HETATM   36  C   UNL     1      17.653  48.017  49.055  1.00  0.00     0.150 C 
BRANCH  33  37
HETATM   37  C   UNL     1      18.118  51.865  48.889  1.00  0.00     0.230 C 
HETATM   38  C   UNL     1      19.458  52.377  48.395  1.00  0.00     0.034 C 
ENDBRANCH  33  37
ENDBRANCH   1  30
TORSDOF 5
ENDMDL
MODEL 2
REMARK VINA RESULT:      -9.9      2.744     10.349
REMARK  5 active torsions:
REMARK  status: ('A' for Active; 'I' for Inactive)
REMARK    1  A    between atoms: C_2  and  N_3 
REMARK    2  A    between atoms: N_7  and  C_8 
REMARK    3  A    between atoms: N_14  and  C_15 
REMARK    4  A    between atoms: C_19  and  C_20 
REMARK       I    between atoms: C_20  and  N_21 
REMARK    5  A    between atoms: N_21  and  C_22 
ROOT
HETATM    1  C   UNL     1      26.804  43.776  51.950  1.00  0.00     0.071 A 
HETATM    2  C   UNL     1      26.972  45.106  52.387  1.00  0.00     0.143 A 
HETATM    3  F   UNL     1      27.755  45.388  53.441  1.00  0.00    -0.204 F 
HETATM    4  C   UNL     1      26.304  46.178  51.802  1.00  0.00     0.062 A 
HETATM    5  C   UNL     1      25.426  45.946  50.745  1.00  0.00     0.045 A 
HETATM    6  C   UNL     1      25.230  44.651  50.243  1.00  0.00     0.051 A 
HETATM    7  N   UNL     1      24.322  44.452  49.165  1.00  0.00    -0.350 N 
HETATM    8  C   UNL     1      23.497  45.500  48.784  1.00  0.00     0.113 C 
HETATM    9  C   UNL     1      23.585  46.772  49.201  1.00  0.00     0.099 C 
HETATM   10  C   UNL     1      24.672  47.082  50.163  1.00  0.00     0.201 C 
HETATM   11  O   UNL     1      24.924  48.236  50.500  1.00  0.00    -0.286 OA
HETATM   12  C   UNL     1      25.941  43.594  50.846  1.00  0.00     0.063 A 
ENDROOT
BRANCH   9  13
HETATM   13  C   UNL     1      22.580  47.768  48.715  1.00  0.00     0.275 C 
HETATM   14  N   UNL     1      22.294  48.750  49.636  1.00  0.00    -0.153 N 
HETATM   15  H   UNL     1      22.809  48.763  50.513  1.00  0.00     0.187 HD
HETATM   16  O   UNL     1      22.107  47.646  47.589  1.00  0.00    -0.267 OA
BRANCH  14  17
HETATM   17  C   UNL     1      21.282  49.659  49.458  1.00  0.00     0.708 A 
HETATM   18  N   UNL     1      21.269  50.743  48.720  1.00  0.00    -0.062 NA
HETATM   19  C   UNL     1      20.004  51.264  48.838  1.00  0.00     0.103 A 
HETATM   20  C   UNL     1      19.227  50.487  49.689  1.00  0.00     0.078 A 
HETATM   21  C   UNL     1      19.440  52.400  48.242  1.00  0.00     0.034 A 
HETATM   22  N   UNL     1      20.067  49.472  50.069  1.00  0.00    -0.187 N 
HETATM   23  C   UNL     1      17.899  50.782  50.002  1.00  0.00     0.032 A 
HETATM   24  H   UNL     1      19.832  48.717  50.692  1.00  0.00     0.184 HD
HETATM   25  C   UNL     1      17.352  51.920  49.398  1.00  0.00     0.002 A 
HETATM   26  C   UNL     1      18.105  52.716  48.530  1.00  0.00     0.002 A 
ENDBRANCH  14  17
ENDBRANCH   9  13
BRANCH   7  27
HETATM   27  C   UNL     1      24.017  43.111  48.632  1.00  0.00     0.090 A 
HETATM   28  C   UNL     1      22.949  42.234  49.240  1.00  0.00     0.028 A 
HETATM   29  C   UNL     1      22.739  42.828  47.882  1.00  0.00     0.028 A 
ENDBRANCH   7  27
BRANCH   1  30
HETATM   30  N   UNL     1      27.458  42.667  52.511  1.00  0.00    -0.375 N 
HETATM   31  C   UNL     1      27.256  42.405  53.953  1.00  0.00     0.150 C 
HETATM   32  C   UNL     1      28.338  43.114  54.796  1.00  0.00     0.254 C 
HETATM   33  N   UNL     1      29.743  42.699  54.340  1.00  0.00    -0.068 N 
HETATM   34  H   UNL     1      29.822  41.682  54.471  1.00  0.00     0.280 HD
HETATM   35  C   UNL     1      29.917  42.957  52.831  1.00  0.00     0.254 C 
HETATM   36  C   UNL     1      28.794  42.261  52.029  1.00  0.00     0.150 C 
BRANCH  33  37
HETATM   37  C   UNL     1      30.846  43.362  55.131  1.00  0.00     0.230 C 
HETATM   38  C   UNL     1      30.319  44.568  55.886  1.00  0.00     0.034 C 
ENDBRANCH  33  37
ENDBRANCH   1  30
TORSDOF 5
ENDMDL
MODEL 3
REMARK VINA RESULT:      -9.7      2.086      3.524
REMARK  5 active torsions:
REMARK  status: ('A' for Active; 'I' for Inactive)
REMARK    1  A    between atoms: C_2  and  N_3 
REMARK    2  A    between atoms: N_7  and  C_8 
REMARK    3  A    between atoms: N_14  and  C_15 
REMARK    4  A    between atoms: C_19  and  C_20 
REMARK       I    between atoms: C_20  and  N_21 
REMARK    5  A    between atoms: N_21  and  C_22 
ROOT
HETATM    1  C   UNL     1      21.778  47.891  47.825  1.00  0.00     0.071 A 
HETATM    2  C   UNL     1      22.610  48.884  48.384  1.00  0.00     0.143 A 
HETATM    3  F   UNL     1      22.500  50.165  48.000  1.00  0.00    -0.204 F 
HETATM    4  C   UNL     1      23.614  48.591  49.301  1.00  0.00     0.062 A 
HETATM    5  C   UNL     1      23.824  47.270  49.692  1.00  0.00     0.045 A 
HETATM    6  C   UNL     1      23.017  46.235  49.197  1.00  0.00     0.051 A 
HETATM    7  N   UNL     1      23.265  44.898  49.616  1.00  0.00    -0.350 N 
HETATM    8  C   UNL     1      24.423  44.624  50.328  1.00  0.00     0.113 C 
HETATM    9  C   UNL     1      25.271  45.527  50.842  1.00  0.00     0.099 C 
HETATM   10  C   UNL     1      24.933  46.955  50.625  1.00  0.00     0.201 C 
HETATM   11  O   UNL     1      25.566  47.857  51.169  1.00  0.00    -0.286 OA
HETATM   12  C   UNL     1      21.996  46.573  48.286  1.00  0.00     0.063 A 
ENDROOT
BRANCH   9  13
HETATM   13  C   UNL     1      26.500  45.049  51.549  1.00  0.00     0.275 C 
HETATM   14  N   UNL     1      26.451  45.231  52.913  1.00  0.00    -0.153 N 
HETATM   15  H   UNL     1      25.600  45.601  53.327  1.00  0.00     0.187 HD
HETATM   16  O   UNL     1      27.415  44.553  50.899  1.00  0.00    -0.267 OA
BRANCH  14  17
HETATM   17  C   UNL     1      27.535  45.018  53.727  1.00  0.00     0.708 A 
HETATM   18  N   UNL     1      28.012  45.779  54.682  1.00  0.00    -0.062 NA
HETATM   19  C   UNL     1      29.063  45.086  55.228  1.00  0.00     0.103 A 
HETATM   20  C   UNL     1      29.248  43.873  54.575  1.00  0.00     0.078 A 
HETATM   21  C   UNL     1      29.908  45.426  56.293  1.00  0.00     0.034 A 
HETATM   22  N   UNL     1      28.261  43.857  53.623  1.00  0.00    -0.187 N 
HETATM   23  C   UNL     1      30.251  42.963  54.912  1.00  0.00     0.032 A 
HETATM   24  H   UNL     1      28.096  43.117  52.959  1.00  0.00     0.184 HD
HETATM   25  C   UNL     1      31.086  43.319  55.977  1.00  0.00     0.002 A 
HETATM   26  C   UNL     1      30.919  44.527  56.660  1.00  0.00     0.002 A 
ENDBRANCH  14  17
ENDBRANCH   9  13
BRANCH   7  27
HETATM   27  C   UNL     1      22.499  43.754  49.085  1.00  0.00     0.090 A 
HETATM   28  C   UNL     1      22.897  43.051  47.809  1.00  0.00     0.028 A 
HETATM   29  C   UNL     1      23.046  42.349  49.122  1.00  0.00     0.028 A 
ENDBRANCH   7  27
BRANCH   1  30
HETATM   30  N   UNL     1      20.754  48.142  46.898  1.00  0.00    -0.375 N 
HETATM   31  C   UNL     1      19.978  49.393  47.050  1.00  0.00     0.150 C 
HETATM   32  C   UNL     1      18.734  49.161  47.935  1.00  0.00     0.254 C 
HETATM   33  N   UNL     1      17.868  48.026  47.373  1.00  0.00    -0.068 N 
HETATM   34  H   UNL     1      17.567  48.306  46.430  1.00  0.00     0.280 HD
HETATM   35  C   UNL     1      18.707  46.746  47.198  1.00  0.00     0.254 C 
HETATM   36  C   UNL     1      19.959  47.030  46.338  1.00  0.00     0.150 C 
BRANCH  33  37
HETATM   37  C   UNL     1      16.634  47.754  48.199  1.00  0.00     0.230 C 
HETATM   38  C   UNL     1      15.433  48.490  47.635  1.00  0.00     0.034 C 
ENDBRANCH  33  37
ENDBRANCH   1  30
TORSDOF 5
ENDMDL
MODEL 4
REMARK VINA RESULT:      -9.1      4.807      8.415
REMARK  5 active torsions:
REMARK  status: ('A' for Active; 'I' for Inactive)
REMARK    1  A    between atoms: C_2  and  N_3 
REMARK    2  A    between atoms: N_7  and  C_8 
REMARK    3  A    between atoms: N_14  and  C_15 
REMARK    4  A    between atoms: C_19  and  C_20 
REMARK       I    between atoms: C_20  and  N_21 
REMARK    5  A    between atoms: N_21  and  C_22 
ROOT
HETATM    1  C   UNL     1      14.526  53.860  48.915  1.00  0.00     0.071 A 
HETATM    2  C   UNL     1      15.021  53.455  50.172  1.00  0.00     0.143 A 
HETATM    3  F   UNL     1      14.566  54.018  51.302  1.00  0.00    -0.204 F 
HETATM    4  C   UNL     1      16.034  52.510  50.309  1.00  0.00     0.062 A 
HETATM    5  C   UNL     1      16.596  51.935  49.171  1.00  0.00     0.045 A 
HETATM    6  C   UNL     1      16.134  52.272  47.890  1.00  0.00     0.051 A 
HETATM    7  N   UNL     1      16.736  51.668  46.751  1.00  0.00    -0.350 N 
HETATM    8  C   UNL     1      17.898  50.930  46.921  1.00  0.00     0.113 C 
HETATM    9  C   UNL     1      18.436  50.555  48.091  1.00  0.00     0.099 C 
HETATM   10  C   UNL     1      17.714  50.973  49.319  1.00  0.00     0.201 C 
HETATM   11  O   UNL     1      18.046  50.567  50.430  1.00  0.00    -0.286 OA
HETATM   12  C   UNL     1      15.092  53.216  47.792  1.00  0.00     0.063 A 
ENDROOT
BRANCH   9  13
HETATM   13  C   UNL     1      19.724  49.794  48.087  1.00  0.00     0.275 C 
HETATM   14  N   UNL     1      20.674  50.324  48.932  1.00  0.00    -0.153 N 
HETATM   15  H   UNL     1      20.422  51.117  49.515  1.00  0.00     0.187 HD
HETATM   16  O   UNL     1      19.837  48.803  47.372  1.00  0.00    -0.267 OA
BRANCH  14  17
HETATM   17  C   UNL     1      21.972  49.881  48.954  1.00  0.00     0.708 A 
HETATM   18  N   UNL     1      23.042  50.435  48.435  1.00  0.00    -0.062 NA
HETATM   19  C   UNL     1      24.094  49.629  48.790  1.00  0.00     0.103 A 
HETATM   20  C   UNL     1      23.655  48.539  49.530  1.00  0.00     0.078 A 
HETATM   21  C   UNL     1      25.463  49.766  48.520  1.00  0.00     0.034 A 
HETATM   22  N   UNL     1      22.299  48.725  49.619  1.00  0.00    -0.187 N 
HETATM   23  C   UNL     1      24.506  47.547  50.019  1.00  0.00     0.032 A 
HETATM   24  H   UNL     1      21.651  48.116  50.093  1.00  0.00     0.184 HD
HETATM   25  C   UNL     1      25.869  47.699  49.740  1.00  0.00     0.002 A 
HETATM   26  C   UNL     1      26.343  48.790  49.005  1.00  0.00     0.002 A 
ENDBRANCH  14  17
ENDBRANCH   9  13
BRANCH   7  27
HETATM   27  C   UNL     1      16.346  52.025  45.374  1.00  0.00     0.090 A 
HETATM   28  C   UNL     1      16.968  53.192  44.645  1.00  0.00     0.028 A 
HETATM   29  C   UNL     1      17.269  51.794  44.203  1.00  0.00     0.028 A 
ENDBRANCH   7  27
BRANCH   1  30
HETATM   30  N   UNL     1      13.507  54.808  48.732  1.00  0.00    -0.375 N 
HETATM   31  C   UNL     1      13.831  56.228  48.992  1.00  0.00     0.150 C 
HETATM   32  C   UNL     1      13.526  56.600  50.460  1.00  0.00     0.254 C 
HETATM   33  N   UNL     1      12.067  56.283  50.811  1.00  0.00    -0.068 N 
HETATM   34  H   UNL     1      11.471  56.844  50.187  1.00  0.00     0.280 HD
HETATM   35  C   UNL     1      11.748  54.807  50.504  1.00  0.00     0.254 C 
HETATM   36  C   UNL     1      12.102  54.469  49.038  1.00  0.00     0.150 C 
BRANCH  33  37
HETATM   37  C   UNL     1      11.709  56.627  52.237  1.00  0.00     0.230 C 
HETATM   38  C   UNL     1      12.761  56.107  53.199  1.00  0.00     0.034 C 
ENDBRANCH  33  37
ENDBRANCH   1  30
TORSDOF 5
ENDMDL
MODEL 5
REMARK VINA RESULT:      -9.1      3.480     10.117
REMARK  5 active torsions:
REMARK  status: ('A' for Active; 'I' for Inactive)
REMARK    1  A    between atoms: C_2  and  N_3 
REMARK    2  A    between atoms: N_7  and  C_8 
REMARK    3  A    between atoms: N_14  and  C_15 
REMARK    4  A    between atoms: C_19  and  C_20 
REMARK       I    between atoms: C_20  and  N_21 
REMARK    5  A    between atoms: N_21  and  C_22 
ROOT
HETATM    1  C   UNL     1      26.507  42.517  51.094  1.00  0.00     0.071 A 
HETATM    2  C   UNL     1      26.881  43.540  51.990  1.00  0.00     0.143 A 
HETATM    3  F   UNL     1      27.626  43.264  53.072  1.00  0.00    -0.204 F 
HETATM    4  C   UNL     1      26.458  44.857  51.843  1.00  0.00     0.062 A 
HETATM    5  C   UNL     1      25.628  45.197  50.777  1.00  0.00     0.045 A 
HETATM    6  C   UNL     1      25.238  44.237  49.833  1.00  0.00     0.051 A 
HETATM    7  N   UNL     1      24.386  44.621  48.760  1.00  0.00    -0.350 N 
HETATM    8  C   UNL     1      23.791  45.873  48.793  1.00  0.00     0.113 C 
HETATM    9  C   UNL     1      24.077  46.865  49.651  1.00  0.00     0.099 C 
HETATM   10  C   UNL     1      25.132  46.590  50.657  1.00  0.00     0.201 C 
HETATM   11  O   UNL     1      25.563  47.472  51.396  1.00  0.00    -0.286 OA
HETATM   12  C   UNL     1      25.705  42.918  50.002  1.00  0.00     0.063 A 
ENDROOT
BRANCH   9  13
HETATM   13  C   UNL     1      23.302  48.143  49.568  1.00  0.00     0.275 C 
HETATM   14  N   UNL     1      21.974  47.956  49.259  1.00  0.00    -0.153 N 
HETATM   15  H   UNL     1      21.619  47.007  49.176  1.00  0.00     0.187 HD
HETATM   16  O   UNL     1      23.874  49.209  49.772  1.00  0.00    -0.267 OA
BRANCH  14  17
HETATM   17  C   UNL     1      21.128  48.998  48.972  1.00  0.00     0.708 A 
HETATM   18  N   UNL     1      20.609  49.344  47.819  1.00  0.00    -0.062 NA
HETATM   19  C   UNL     1      19.787  50.412  48.080  1.00  0.00     0.103 A 
HETATM   20  C   UNL     1      19.820  50.742  49.430  1.00  0.00     0.078 A 
HETATM   21  C   UNL     1      18.972  51.154  47.214  1.00  0.00     0.034 A 
HETATM   22  N   UNL     1      20.682  49.825  49.973  1.00  0.00    -0.187 N 
HETATM   23  C   UNL     1      19.088  51.793  49.983  1.00  0.00     0.032 A 
HETATM   24  H   UNL     1      20.945  49.767  50.944  1.00  0.00     0.184 HD
HETATM   25  C   UNL     1      18.280  52.524  49.103  1.00  0.00     0.002 A 
HETATM   26  C   UNL     1      18.218  52.210  47.742  1.00  0.00     0.002 A 
ENDBRANCH  14  17
ENDBRANCH   9  13
BRANCH   7  27
HETATM   27  C   UNL     1      23.883  43.650  47.769  1.00  0.00     0.090 A 
HETATM   28  C   UNL     1      22.700  42.757  48.056  1.00  0.00     0.028 A 
HETATM   29  C   UNL     1      22.574  43.857  47.050  1.00  0.00     0.028 A 
ENDBRANCH   7  27
BRANCH   1  30
HETATM   30  N   UNL     1      26.911  41.177  51.205  1.00  0.00    -0.375 N 
HETATM   31  C   UNL     1      28.352  40.877  51.052  1.00  0.00     0.150 C 
HETATM   32  C   UNL     1      28.694  40.564  49.579  1.00  0.00     0.254 C 
HETATM   33  N   UNL     1      27.821  39.419  49.048  1.00  0.00    -0.068 N 
HETATM   34  H   UNL     1      28.015  38.590  49.625  1.00  0.00     0.280 HD
HETATM   35  C   UNL     1      26.328  39.745  49.244  1.00  0.00     0.254 C 
HETATM   36  C   UNL     1      26.037  40.088  50.723  1.00  0.00     0.150 C 
BRANCH  33  37
HETATM   37  C   UNL     1      28.111  39.068  47.608  1.00  0.00     0.230 C 
HETATM   38  C   UNL     1      27.806  40.239  46.693  1.00  0.00     0.034 C 
ENDBRANCH  33  37
ENDBRANCH   1  30
TORSDOF 5
ENDMDL
MODEL 6
REMARK VINA RESULT:      -8.6      1.743      2.277
REMARK  5 active torsions:
REMARK  status: ('A' for Active; 'I' for Inactive)
REMARK    1  A    between atoms: C_2  and  N_3 
REMARK    2  A    between atoms: N_7  and  C_8 
REMARK    3  A    between atoms: N_14  and  C_15 
REMARK    4  A    between atoms: C_19  and  C_20 
REMARK       I    between atoms: C_20  and  N_21 
REMARK    5  A    between atoms: N_21  and  C_22 
ROOT
HETATM    1  C   UNL     1      19.045  48.391  46.498  1.00  0.00     0.071 A 
HETATM    2  C   UNL     1      19.262  47.089  46.003  1.00  0.00     0.143 A 
HETATM    3  F   UNL     1      18.374  46.511  45.180  1.00  0.00    -0.204 F 
HETATM    4  C   UNL     1      20.358  46.318  46.380  1.00  0.00     0.062 A 
HETATM    5  C   UNL     1      21.284  46.834  47.283  1.00  0.00     0.045 A 
HETATM    6  C   UNL     1      21.144  48.132  47.795  1.00  0.00     0.051 A 
HETATM    7  N   UNL     1      22.108  48.624  48.720  1.00  0.00    -0.350 N 
HETATM    8  C   UNL     1      23.034  47.741  49.253  1.00  0.00     0.113 C 
HETATM    9  C   UNL     1      23.252  46.479  48.851  1.00  0.00     0.099 C 
HETATM   10  C   UNL     1      22.418  45.988  47.726  1.00  0.00     0.201 C 
HETATM   11  O   UNL     1      22.631  44.901  47.194  1.00  0.00    -0.286 OA
HETATM   12  C   UNL     1      20.034  48.892  47.374  1.00  0.00     0.063 A 
ENDROOT
BRANCH   9  13
HETATM   13  C   UNL     1      24.268  45.652  49.574  1.00  0.00     0.275 C 
HETATM   14  N   UNL     1      24.204  45.782  50.943  1.00  0.00    -0.153 N 
HETATM   15  H   UNL     1      23.466  46.353  51.346  1.00  0.00     0.187 HD
HETATM   16  O   UNL     1      25.043  44.952  48.930  1.00  0.00    -0.267 OA
BRANCH  14  17
HETATM   17  C   UNL     1      25.147  45.243  51.781  1.00  0.00     0.708 A 
HETATM   18  N   UNL     1      25.563  44.002  51.865  1.00  0.00    -0.062 NA
HETATM   19  C   UNL     1      26.555  44.001  52.814  1.00  0.00     0.103 A 
HETATM   20  C   UNL     1      26.737  45.273  53.341  1.00  0.00     0.078 A 
HETATM   21  C   UNL     1      27.354  42.947  53.279  1.00  0.00     0.034 A 
HETATM   22  N   UNL     1      25.827  46.044  52.665  1.00  0.00    -0.187 N 
HETATM   23  C   UNL     1      27.674  45.569  54.332  1.00  0.00     0.032 A 
HETATM   24  H   UNL     1      25.681  47.032  52.795  1.00  0.00     0.184 HD
HETATM   25  C   UNL     1      28.463  44.504  54.785  1.00  0.00     0.002 A 
HETATM   26  C   UNL     1      28.310  43.215  54.267  1.00  0.00     0.002 A 
ENDBRANCH  14  17
ENDBRANCH   9  13
BRANCH   7  27
HETATM   27  C   UNL     1      21.987  49.954  49.348  1.00  0.00     0.090 A 
HETATM   28  C   UNL     1      23.039  51.021  49.166  1.00  0.00     0.028 A 
HETATM   29  C   UNL     1      21.693  51.190  48.536  1.00  0.00     0.028 A 
ENDBRANCH   7  27
BRANCH   1  30
HETATM   30  N   UNL     1      17.954  49.203  46.145  1.00  0.00    -0.375 N 
HETATM   31  C   UNL     1      18.219  50.633  45.876  1.00  0.00     0.150 C 
HETATM   32  C   UNL     1      18.064  51.471  47.164  1.00  0.00     0.254 C 
HETATM   33  N   UNL     1      16.678  51.263  47.787  1.00  0.00    -0.068 N 
HETATM   34  H   UNL     1      15.980  51.570  47.095  1.00  0.00     0.280 HD
HETATM   35  C   UNL     1      16.417  49.764  48.031  1.00  0.00     0.254 C 
HETATM   36  C   UNL     1      16.618  48.959  46.726  1.00  0.00     0.150 C 
BRANCH  33  37
HETATM   37  C   UNL     1      16.467  52.060  49.052  1.00  0.00     0.230 C 
HETATM   38  C   UNL     1      17.795  52.492  49.645  1.00  0.00     0.034 C 
ENDBRANCH  33  37
ENDBRANCH   1  30
TORSDOF 5
ENDMDL
MODEL 7
REMARK VINA RESULT:      -8.6     11.420     12.802
REMARK  5 active torsions:
REMARK  status: ('A' for Active; 'I' for Inactive)
REMARK    1  A    between atoms: C_2  and  N_3 
REMARK    2  A    between atoms: N_7  and  C_8 
REMARK    3  A    between atoms: N_14  and  C_15 
REMARK    4  A    between atoms: C_19  and  C_20 
REMARK       I    between atoms: C_20  and  N_21 
REMARK    5  A    between atoms: N_21  and  C_22 
ROOT
HETATM    1  C   UNL     1      28.133  47.266  39.030  1.00  0.00     0.071 A 
HETATM    2  C   UNL     1      29.215  46.405  39.307  1.00  0.00     0.143 A 
HETATM    3  F   UNL     1      29.120  45.088  39.070  1.00  0.00    -0.204 F 
HETATM    4  C   UNL     1      30.398  46.851  39.889  1.00  0.00     0.062 A 
HETATM    5  C   UNL     1      30.535  48.197  40.221  1.00  0.00     0.045 A 
HETATM    6  C   UNL     1      29.510  49.115  39.949  1.00  0.00     0.051 A 
HETATM    7  N   UNL     1      29.685  50.481  40.307  1.00  0.00    -0.350 N 
HETATM    8  C   UNL     1      30.765  50.831  41.104  1.00  0.00     0.113 C 
HETATM    9  C   UNL     1      31.796  50.039  41.435  1.00  0.00     0.099 C 
HETATM   10  C   UNL     1      31.774  48.658  40.894  1.00  0.00     0.201 C 
HETATM   11  O   UNL     1      32.732  47.900  41.023  1.00  0.00    -0.286 OA
HETATM   12  C   UNL     1      28.335  48.630  39.339  1.00  0.00     0.063 A 
ENDROOT
BRANCH   9  13
HETATM   13  C   UNL     1      32.858  50.573  42.344  1.00  0.00     0.275 C 
HETATM   14  N   UNL     1      34.060  50.792  41.709  1.00  0.00    -0.153 N 
HETATM   15  H   UNL     1      34.118  50.642  40.705  1.00  0.00     0.187 HD
HETATM   16  O   UNL     1      32.597  50.768  43.527  1.00  0.00    -0.267 OA
BRANCH  14  17
HETATM   17  C   UNL     1      35.207  51.118  42.389  1.00  0.00     0.708 A 
HETATM   18  N   UNL     1      36.389  50.554  42.330  1.00  0.00    -0.062 NA
HETATM   19  C   UNL     1      37.201  51.292  43.154  1.00  0.00     0.103 A 
HETATM   20  C   UNL     1      36.490  52.327  43.750  1.00  0.00     0.078 A 
HETATM   21  C   UNL     1      38.565  51.144  43.441  1.00  0.00     0.034 A 
HETATM   22  N   UNL     1      35.223  52.191  43.245  1.00  0.00    -0.187 N 
HETATM   23  C   UNL     1      37.058  53.236  44.644  1.00  0.00     0.032 A 
HETATM   24  H   UNL     1      34.436  52.780  43.465  1.00  0.00     0.184 HD
HETATM   25  C   UNL     1      38.421  53.073  44.920  1.00  0.00     0.002 A 
HETATM   26  C   UNL     1      39.165  52.047  44.329  1.00  0.00     0.002 A 
ENDBRANCH  14  17
ENDBRANCH   9  13
BRANCH   7  27
HETATM   27  C   UNL     1      28.623  51.487  40.112  1.00  0.00     0.090 A 
HETATM   28  C   UNL     1      27.732  51.938  41.245  1.00  0.00     0.028 A 
HETATM   29  C   UNL     1      28.741  52.883  40.671  1.00  0.00     0.028 A 
ENDBRANCH   7  27
BRANCH   1  30
HETATM   30  N   UNL     1      26.923  46.859  38.445  1.00  0.00    -0.375 N 
HETATM   31  C   UNL     1      26.595  47.388  37.102  1.00  0.00     0.150 C 
HETATM   32  C   UNL     1      25.776  48.693  37.213  1.00  0.00     0.254 C 
HETATM   33  N   UNL     1      24.513  48.474  38.057  1.00  0.00    -0.068 N 
HETATM   34  H   UNL     1      23.947  47.756  37.584  1.00  0.00     0.280 HD
HETATM   35  C   UNL     1      24.881  47.898  39.437  1.00  0.00     0.254 C 
HETATM   36  C   UNL     1      25.730  46.615  39.281  1.00  0.00     0.150 C 
BRANCH  33  37
HETATM   37  C   UNL     1      23.670  49.719  38.199  1.00  0.00     0.230 C 
HETATM   38  C   UNL     1      22.677  49.572  39.337  1.00  0.00     0.034 C 
ENDBRANCH  33  37
ENDBRANCH   1  30
TORSDOF 5
ENDMDL
MODEL 8
REMARK VINA RESULT:      -8.5      4.412     10.372
REMARK  5 active torsions:
REMARK  status: ('A' for Active; 'I' for Inactive)
REMARK    1  A    between atoms: C_2  and  N_3 
REMARK    2  A    between atoms: N_7  and  C_8 
REMARK    3  A    between atoms: N_14  and  C_15 
REMARK    4  A    between atoms: C_19  and  C_20 
REMARK       I    between atoms: C_20  and  N_21 
REMARK    5  A    between atoms: N_21  and  C_22 
ROOT
HETATM    1  C   UNL     1      26.741  41.529  49.442  1.00  0.00     0.071 A 
HETATM    2  C   UNL     1      27.032  42.693  50.182  1.00  0.00     0.143 A 
HETATM    3  F   UNL     1      28.045  42.710  51.063  1.00  0.00    -0.204 F 
HETATM    4  C   UNL     1      26.265  43.851  50.090  1.00  0.00     0.062 A 
HETATM    5  C   UNL     1      25.160  43.878  49.243  1.00  0.00     0.045 A 
HETATM    6  C   UNL     1      24.827  42.764  48.458  1.00  0.00     0.051 A 
HETATM    7  N   UNL     1      23.687  42.827  47.608  1.00  0.00    -0.350 N 
HETATM    8  C   UNL     1      22.816  43.899  47.735  1.00  0.00     0.113 C 
HETATM    9  C   UNL     1      23.024  45.009  48.459  1.00  0.00     0.099 C 
HETATM   10  C   UNL     1      24.311  45.093  49.192  1.00  0.00     0.201 C 
HETATM   11  O   UNL     1      24.657  46.120  49.771  1.00  0.00    -0.286 OA
HETATM   12  C   UNL     1      25.640  41.618  48.561  1.00  0.00     0.063 A 
ENDROOT
BRANCH   9  13
HETATM   13  C   UNL     1      21.951  46.050  48.516  1.00  0.00     0.275 C 
HETATM   14  N   UNL     1      22.439  47.338  48.510  1.00  0.00    -0.153 N 
HETATM   15  H   UNL     1      23.440  47.481  48.408  1.00  0.00     0.187 HD
HETATM   16  O   UNL     1      20.775  45.703  48.560  1.00  0.00    -0.267 OA
BRANCH  14  17
HETATM   17  C   UNL     1      21.640  48.432  48.723  1.00  0.00     0.708 A 
HETATM   18  N   UNL     1      21.706  49.621  48.175  1.00  0.00    -0.062 NA
HETATM   19  C   UNL     1      20.645  50.330  48.680  1.00  0.00     0.103 A 
HETATM   20  C   UNL     1      19.919  49.560  49.581  1.00  0.00     0.078 A 
HETATM   21  C   UNL     1      20.230  51.642  48.413  1.00  0.00     0.034 A 
HETATM   22  N   UNL     1      20.576  48.356  49.589  1.00  0.00    -0.187 N 
HETATM   23  C   UNL     1      18.791  50.024  50.257  1.00  0.00     0.032 A 
HETATM   24  H   UNL     1      20.321  47.550  50.137  1.00  0.00     0.184 HD
HETATM   25  C   UNL     1      18.392  51.337  49.979  1.00  0.00     0.002 A 
HETATM   26  C   UNL     1      19.095  52.134  49.071  1.00  0.00     0.002 A 
ENDBRANCH  14  17
ENDBRANCH   9  13
BRANCH   7  27
HETATM   27  C   UNL     1      23.241  41.672  46.805  1.00  0.00     0.090 A 
HETATM   28  C   UNL     1      22.308  40.625  47.365  1.00  0.00     0.028 A 
HETATM   29  C   UNL     1      21.824  41.559  46.300  1.00  0.00     0.028 A 
ENDBRANCH   7  27
BRANCH   1  30
HETATM   30  N   UNL     1      27.487  40.341  49.504  1.00  0.00    -0.375 N 
HETATM   31  C   UNL     1      28.681  40.232  48.637  1.00  0.00     0.150 C 
HETATM   32  C   UNL     1      28.315  39.599  47.277  1.00  0.00     0.254 C 
HETATM   33  N   UNL     1      27.636  38.237  47.475  1.00  0.00    -0.068 N 
HETATM   34  H   UNL     1      28.304  37.627  47.964  1.00  0.00     0.280 HD
HETATM   35  C   UNL     1      26.414  38.374  48.402  1.00  0.00     0.254 C 
HETATM   36  C   UNL     1      26.817  39.045  49.735  1.00  0.00     0.150 C 
BRANCH  33  37
HETATM   37  C   UNL     1      27.254  37.568  46.175  1.00  0.00     0.230 C 
HETATM   38  C   UNL     1      28.488  37.106  45.423  1.00  0.00     0.034 C 
ENDBRANCH  33  37
ENDBRANCH   1  30
TORSDOF 5
ENDMDL
MODEL 9
REMARK VINA RESULT:      -8.3     10.254     14.710
REMARK  5 active torsions:
REMARK  status: ('A' for Active; 'I' for Inactive)
REMARK    1  A    between atoms: C_2  and  N_3 
REMARK    2  A    between atoms: N_7  and  C_8 
REMARK    3  A    between atoms: N_14  and  C_15 
REMARK    4  A    between atoms: C_19  and  C_20 
REMARK       I    between atoms: C_20  and  N_21 
REMARK    5  A    between atoms: N_21  and  C_22 
ROOT
HETATM    1  C   UNL     1      30.752  49.658  39.799  1.00  0.00     0.071 A 
HETATM    2  C   UNL     1      30.308  50.732  39.001  1.00  0.00     0.143 A 
HETATM    3  F   UNL     1      31.136  51.739  38.685  1.00  0.00    -0.204 F 
HETATM    4  C   UNL     1      28.994  50.840  38.554  1.00  0.00     0.062 A 
HETATM    5  C   UNL     1      28.067  49.861  38.902  1.00  0.00     0.045 A 
HETATM    6  C   UNL     1      28.446  48.751  39.672  1.00  0.00     0.051 A 
HETATM    7  N   UNL     1      27.469  47.773  40.012  1.00  0.00    -0.350 N 
HETATM    8  C   UNL     1      26.133  48.047  39.761  1.00  0.00     0.113 C 
HETATM    9  C   UNL     1      25.654  49.077  39.047  1.00  0.00     0.099 C 
HETATM   10  C   UNL     1      26.656  50.010  38.473  1.00  0.00     0.201 C 
HETATM   11  O   UNL     1      26.332  50.903  37.693  1.00  0.00    -0.286 OA
HETATM   12  C   UNL     1      29.789  48.665  40.088  1.00  0.00     0.063 A 
ENDROOT
BRANCH   9  13
HETATM   13  C   UNL     1      24.173  49.241  38.913  1.00  0.00     0.275 C 
HETATM   14  N   UNL     1      23.720  50.471  39.336  1.00  0.00    -0.153 N 
HETATM   15  H   UNL     1      24.398  51.166  39.636  1.00  0.00     0.187 HD
HETATM   16  O   UNL     1      23.503  48.320  38.457  1.00  0.00    -0.267 OA
BRANCH  14  17
HETATM   17  C   UNL     1      22.385  50.765  39.455  1.00  0.00     0.708 A 
HETATM   18  N   UNL     1      21.479  50.876  38.514  1.00  0.00    -0.062 NA
HETATM   19  C   UNL     1      20.293  51.121  39.159  1.00  0.00     0.103 A 
HETATM   20  C   UNL     1      20.481  51.182  40.535  1.00  0.00     0.078 A 
HETATM   21  C   UNL     1      19.004  51.298  38.638  1.00  0.00     0.034 A 
HETATM   22  N   UNL     1      21.824  50.953  40.694  1.00  0.00    -0.187 N 
HETATM   23  C   UNL     1      19.451  51.427  41.443  1.00  0.00     0.032 A 
HETATM   24  H   UNL     1      22.316  50.926  41.572  1.00  0.00     0.184 HD
HETATM   25  C   UNL     1      18.171  51.602  40.904  1.00  0.00     0.002 A 
HETATM   26  C   UNL     1      17.947  51.536  39.526  1.00  0.00     0.002 A 
ENDBRANCH  14  17
ENDBRANCH   9  13
BRANCH   7  27
HETATM   27  C   UNL     1      27.782  46.617  40.873  1.00  0.00     0.090 A 
HETATM   28  C   UNL     1      26.796  45.494  41.091  1.00  0.00     0.028 A 
HETATM   29  C   UNL     1      28.040  45.247  40.297  1.00  0.00     0.028 A 
ENDBRANCH   7  27
BRANCH   1  30
HETATM   30  N   UNL     1      32.066  49.510  40.271  1.00  0.00    -0.375 N 
HETATM   31  C   UNL     1      32.271  48.710  41.500  1.00  0.00     0.150 C 
HETATM   32  C   UNL     1      32.222  49.610  42.754  1.00  0.00     0.254 C 
HETATM   33  N   UNL     1      33.244  50.751  42.647  1.00  0.00    -0.068 N 
HETATM   34  H   UNL     1      34.176  50.323  42.572  1.00  0.00     0.280 HD
HETATM   35  C   UNL     1      33.026  51.548  41.348  1.00  0.00     0.254 C 
HETATM   36  C   UNL     1      33.045  50.606  40.122  1.00  0.00     0.150 C 
BRANCH  33  37
HETATM   37  C   UNL     1      33.242  51.666  43.849  1.00  0.00     0.230 C 
HETATM   38  C   UNL     1      31.827  52.074  44.215  1.00  0.00     0.034 C 
ENDBRANCH  33  37
ENDBRANCH   1  30
TORSDOF 5
ENDMDL
MODEL 10
REMARK VINA RESULT:      -8.3      3.555      5.295
REMARK  5 active torsions:
REMARK  status: ('A' for Active; 'I' for Inactive)
REMARK    1  A    between atoms: C_2  and  N_3 
REMARK    2  A    between atoms: N_7  and  C_8 
REMARK    3  A    between atoms: N_14  and  C_15 
REMARK    4  A    between atoms: C_19  and  C_20 
REMARK       I    between atoms: C_20  and  N_21 
REMARK    5  A    between atoms: N_21  and  C_22 
ROOT
HETATM    1  C   UNL     1      22.418  43.125  47.124  1.00  0.00     0.071 A 
HETATM    2  C   UNL     1      22.097  43.954  48.218  1.00  0.00     0.143 A 
HETATM    3  F   UNL     1      21.119  44.868  48.122  1.00  0.00    -0.204 F 
HETATM    4  C   UNL     1      22.801  43.918  49.418  1.00  0.00     0.062 A 
HETATM    5  C   UNL     1      23.871  43.037  49.561  1.00  0.00     0.045 A 
HETATM    6  C   UNL     1      24.229  42.165  48.523  1.00  0.00     0.051 A 
HETATM    7  N   UNL     1      25.331  41.282  48.704  1.00  0.00    -0.350 N 
HETATM    8  C   UNL     1      26.151  41.455  49.808  1.00  0.00     0.113 C 
HETATM    9  C   UNL     1      25.916  42.262  50.854  1.00  0.00     0.099 C 
HETATM   10  C   UNL     1      24.655  43.043  50.819  1.00  0.00     0.201 C 
HETATM   11  O   UNL     1      24.280  43.704  51.785  1.00  0.00    -0.286 OA
HETATM   12  C   UNL     1      23.479  42.215  47.331  1.00  0.00     0.063 A 
ENDROOT
BRANCH   9  13
HETATM   13  C   UNL     1      26.937  42.355  51.943  1.00  0.00     0.275 C 
HETATM   14  N   UNL     1      26.888  43.543  52.638  1.00  0.00    -0.153 N 
HETATM   15  H   UNL     1      26.156  44.211  52.413  1.00  0.00     0.187 HD
HETATM   16  O   UNL     1      27.704  41.416  52.132  1.00  0.00    -0.267 OA
BRANCH  14  17
HETATM   17  C   UNL     1      27.838  43.899  53.561  1.00  0.00     0.708 A 
HETATM   18  N   UNL     1      27.955  45.020  54.232  1.00  0.00    -0.062 NA
HETATM   19  C   UNL     1      29.031  44.848  55.067  1.00  0.00     0.103 A 
HETATM   20  C   UNL     1      29.602  43.594  54.887  1.00  0.00     0.078 A 
HETATM   21  C   UNL     1      29.582  45.721  56.016  1.00  0.00     0.034 A 
HETATM   22  N   UNL     1      28.821  43.012  53.922  1.00  0.00    -0.187 N 
HETATM   23  C   UNL     1      30.718  43.147  55.596  1.00  0.00     0.032 A 
HETATM   24  H   UNL     1      28.949  42.088  53.540  1.00  0.00     0.184 HD
HETATM   25  C   UNL     1      31.255  44.032  56.539  1.00  0.00     0.002 A 
HETATM   26  C   UNL     1      30.698  45.296  56.750  1.00  0.00     0.002 A 
ENDBRANCH  14  17
ENDBRANCH   9  13
BRANCH   7  27
HETATM   27  C   UNL     1      25.803  40.386  47.631  1.00  0.00     0.090 A 
HETATM   28  C   UNL     1      26.958  40.757  46.732  1.00  0.00     0.028 A 
HETATM   29  C   UNL     1      27.119  39.655  47.732  1.00  0.00     0.028 A 
ENDBRANCH   7  27
BRANCH   1  30
HETATM   30  N   UNL     1      21.734  43.129  45.898  1.00  0.00    -0.375 N 
HETATM   31  C   UNL     1      22.050  44.208  44.936  1.00  0.00     0.150 C 
HETATM   32  C   UNL     1      21.112  45.417  45.142  1.00  0.00     0.254 C 
HETATM   33  N   UNL     1      19.642  44.989  45.044  1.00  0.00    -0.068 N 
HETATM   34  H   UNL     1      19.496  44.601  44.102  1.00  0.00     0.280 HD
HETATM   35  C   UNL     1      19.347  43.847  46.034  1.00  0.00     0.254 C 
HETATM   36  C   UNL     1      20.331  42.674  45.819  1.00  0.00     0.150 C 
BRANCH  33  37
HETATM   37  C   UNL     1      18.674  46.133  45.236  1.00  0.00     0.230 C 
HETATM   38  C   UNL     1      18.631  46.565  46.690  1.00  0.00     0.034 C 
ENDBRANCH  33  37
ENDBRANCH   1  30
TORSDOF 5
ENDMDL
