MODEL 1
REMARK VINA RESULT:      -9.0      0.000      0.000
REMARK  6 active torsions:
REMARK  status: ('A' for Active; 'I' for Inactive)
REMARK    1  A    between atoms: C_5  and  C_6 
REMARK    2  A    between atoms: C_6  and  O_7 
REMARK    3  A    between atoms: C_6  and  C_8 
REMARK    4  A    between atoms: C_8  and  N_9 
REMARK       I    between atoms: N_9  and  C_10 
REMARK    5  A    between atoms: C_10  and  C_11 
REMARK    6  A    between atoms: C_11  and  C_12 
ROOT
HETATM    1  N   UNL     1      27.721  42.930  51.236  1.00  0.00    -0.358 N 
HETATM    2  C   UNL     1      28.243  42.116  52.215  1.00  0.00     0.222 C 
HETATM    3  O   UNL     1      27.653  41.134  52.656  1.00  0.00    -0.273 OA
HETATM    4  H   UNL     1      28.303  43.649  50.828  1.00  0.00     0.162 HD
ENDROOT
BRANCH   1   5
HETATM    5  C   UNL     1      26.459  42.629  50.575  1.00  0.00     0.159 C 
BRANCH   5   6
HETATM    6  C   UNL     1      25.488  43.816  50.401  1.00  0.00     0.169 C 
BRANCH   6   7
HETATM    7  C   UNL     1      25.612  44.866  51.488  1.00  0.00    -0.028 A 
HETATM    8  C   UNL     1      26.097  46.144  51.178  1.00  0.00     0.010 A 
HETATM    9  C   UNL     1      26.236  47.114  52.175  1.00  0.00     0.007 A 
HETATM   10  C   UNL     1      25.898  46.822  53.501  1.00  0.00    -0.062 A 
HETATM   11  C   UNL     1      26.037  47.858  54.576  1.00  0.00     0.048 C 
HETATM   12  C   UNL     1      25.397  45.553  53.810  1.00  0.00     0.007 A 
HETATM   13  C   UNL     1      25.258  44.584  52.814  1.00  0.00     0.010 A 
ENDBRANCH   6   7
BRANCH   6  14
HETATM   14  O   UNL     1      25.744  44.438  49.134  1.00  0.00    -0.389 OA
HETATM   15  H   UNL     1      25.801  45.395  49.306  1.00  0.00     0.210 HD
ENDBRANCH   6  14
ENDBRANCH   5   6
ENDBRANCH   1   5
BRANCH   2  16
HETATM   16  C   UNL     1      29.627  42.511  52.697  1.00  0.00     0.142 C 
BRANCH  16  17
HETATM   17  C   UNL     1      29.630  43.382  53.926  1.00  0.00    -0.031 A 
HETATM   18  C   UNL     1      28.803  44.490  54.063  1.00  0.00     0.125 A 
HETATM   19  N   UNL     1      28.807  45.319  55.133  1.00  0.00    -0.260 NA
HETATM   20  C   UNL     1      29.685  45.079  56.121  1.00  0.00     0.066 A 
HETATM   21  C   UNL     1      30.588  43.998  56.076  1.00  0.00    -0.007 A 
HETATM   22  C   UNL     1      29.720  45.921  57.224  1.00  0.00     0.032 A 
HETATM   23  C   UNL     1      30.546  43.152  54.957  1.00  0.00     0.022 A 
HETATM   24  C   UNL     1      31.500  43.797  57.127  1.00  0.00     0.014 A 
HETATM   25  C   UNL     1      31.517  44.660  58.222  1.00  0.00     0.001 A 
HETATM   26  C   UNL     1      30.625  45.724  58.271  1.00  0.00     0.002 A 
ENDBRANCH  16  17
ENDBRANCH   2  16
TORSDOF 6
ENDMDL
MODEL 2
REMARK VINA RESULT:      -8.7      2.510      6.868
REMARK  6 active torsions:
REMARK  status: ('A' for Active; 'I' for Inactive)
REMARK    1  A    between atoms: C_5  and  C_6 
REMARK    2  A    between atoms: C_6  and  O_7 
REMARK    3  A    between atoms: C_6  and  C_8 
REMARK    4  A    between atoms: C_8  and  N_9 
REMARK       I    between atoms: N_9  and  C_10 
REMARK    5  A    between atoms: C_10  and  C_11 
REMARK    6  A    between atoms: C_11  and  C_12 
ROOT
HETATM    1  N   UNL     1      26.957  42.671  52.131  1.00  0.00    -0.358 N 
HETATM    2  C   UNL     1      26.081  43.732  52.133  1.00  0.00     0.222 C 
HETATM    3  O   UNL     1      25.934  44.477  53.097  1.00  0.00    -0.273 OA
HETATM    4  H   UNL     1      27.123  42.168  51.268  1.00  0.00     0.162 HD
ENDROOT
BRANCH   1   5
HETATM    5  C   UNL     1      27.855  42.409  53.247  1.00  0.00     0.159 C 
BRANCH   5   6
HETATM    6  C   UNL     1      29.222  43.121  53.195  1.00  0.00     0.169 C 
BRANCH   6   7
HETATM    7  C   UNL     1      29.578  43.849  54.477  1.00  0.00    -0.028 A 
HETATM    8  C   UNL     1      30.641  43.396  55.270  1.00  0.00     0.010 A 
HETATM    9  C   UNL     1      30.965  44.045  56.465  1.00  0.00     0.007 A 
HETATM   10  C   UNL     1      30.228  45.154  56.892  1.00  0.00    -0.062 A 
HETATM   11  C   UNL     1      30.571  45.861  58.169  1.00  0.00     0.048 C 
HETATM   12  C   UNL     1      29.176  45.618  56.095  1.00  0.00     0.007 A 
HETATM   13  C   UNL     1      28.852  44.970  54.901  1.00  0.00     0.010 A 
ENDBRANCH   6   7
BRANCH   6  14
HETATM   14  O   UNL     1      30.240  42.147  52.926  1.00  0.00    -0.389 OA
HETATM   15  H   UNL     1      30.437  42.214  51.975  1.00  0.00     0.210 HD
ENDBRANCH   6  14
ENDBRANCH   5   6
ENDBRANCH   1   5
BRANCH   2  16
HETATM   16  C   UNL     1      25.319  43.928  50.835  1.00  0.00     0.142 C 
BRANCH  16  17
HETATM   17  C   UNL     1      25.264  45.356  50.358  1.00  0.00    -0.031 A 
HETATM   18  C   UNL     1      24.069  46.011  50.085  1.00  0.00     0.125 A 
HETATM   19  N   UNL     1      23.983  47.277  49.615  1.00  0.00    -0.260 NA
HETATM   20  C   UNL     1      25.122  47.944  49.367  1.00  0.00     0.066 A 
HETATM   21  C   UNL     1      26.390  47.369  49.584  1.00  0.00    -0.007 A 
HETATM   22  C   UNL     1      25.063  49.240  48.873  1.00  0.00     0.032 A 
HETATM   23  C   UNL     1      26.441  46.058  50.084  1.00  0.00     0.022 A 
HETATM   24  C   UNL     1      27.556  48.101  49.294  1.00  0.00     0.014 A 
HETATM   25  C   UNL     1      27.468  49.399  48.795  1.00  0.00     0.001 A 
HETATM   26  C   UNL     1      26.218  49.970  48.584  1.00  0.00     0.002 A 
ENDBRANCH  16  17
ENDBRANCH   2  16
TORSDOF 6
ENDMDL
MODEL 3
REMARK VINA RESULT:      -8.7     13.196     14.901
REMARK  6 active torsions:
REMARK  status: ('A' for Active; 'I' for Inactive)
REMARK    1  A    between atoms: C_5  and  C_6 
REMARK    2  A    between atoms: C_6  and  O_7 
REMARK    3  A    between atoms: C_6  and  C_8 
REMARK    4  A    between atoms: C_8  and  N_9 
REMARK       I    between atoms: N_9  and  C_10 
REMARK    5  A    between atoms: C_10  and  C_11 
REMARK    6  A    between atoms: C_11  and  C_12 
ROOT
HETATM    1  N   UNL     1      28.122  51.258  39.419  1.00  0.00    -0.358 N 
HETATM    2  C   UNL     1      28.151  52.166  40.453  1.00  0.00     0.222 C 
HETATM    3  O   UNL     1      27.300  52.203  41.336  1.00  0.00    -0.273 OA
HETATM    4  H   UNL     1      28.914  51.198  38.792  1.00  0.00     0.162 HD
ENDROOT
BRANCH   1   5
HETATM    5  C   UNL     1      27.124  50.201  39.349  1.00  0.00     0.159 C 
BRANCH   5   6
HETATM    6  C   UNL     1      27.371  48.978  40.256  1.00  0.00     0.169 C 
BRANCH   6   7
HETATM    7  C   UNL     1      28.836  48.731  40.558  1.00  0.00    -0.028 A 
HETATM    8  C   UNL     1      29.688  48.250  39.555  1.00  0.00     0.010 A 
HETATM    9  C   UNL     1      31.036  47.997  39.825  1.00  0.00     0.007 A 
HETATM   10  C   UNL     1      31.555  48.215  41.106  1.00  0.00    -0.062 A 
HETATM   11  C   UNL     1      33.001  47.954  41.405  1.00  0.00     0.048 C 
HETATM   12  C   UNL     1      30.711  48.711  42.105  1.00  0.00     0.007 A 
HETATM   13  C   UNL     1      29.364  48.963  41.835  1.00  0.00     0.010 A 
ENDBRANCH   6   7
BRANCH   6  14
HETATM   14  O   UNL     1      26.676  49.176  41.496  1.00  0.00    -0.389 OA
HETATM   15  H   UNL     1      27.361  49.318  42.173  1.00  0.00     0.210 HD
ENDBRANCH   6  14
ENDBRANCH   5   6
ENDBRANCH   1   5
BRANCH   2  16
HETATM   16  C   UNL     1      29.338  53.113  40.433  1.00  0.00     0.142 C 
BRANCH  16  17
HETATM   17  C   UNL     1      30.581  52.563  41.081  1.00  0.00    -0.031 A 
HETATM   18  C   UNL     1      30.742  52.492  42.459  1.00  0.00     0.125 A 
HETATM   19  N   UNL     1      31.860  52.043  43.076  1.00  0.00    -0.260 NA
HETATM   20  C   UNL     1      32.899  51.665  42.314  1.00  0.00     0.066 A 
HETATM   21  C   UNL     1      32.856  51.719  40.907  1.00  0.00    -0.007 A 
HETATM   22  C   UNL     1      34.063  51.214  42.921  1.00  0.00     0.032 A 
HETATM   23  C   UNL     1      31.676  52.177  40.302  1.00  0.00     0.022 A 
HETATM   24  C   UNL     1      33.976  51.328  40.151  1.00  0.00     0.014 A 
HETATM   25  C   UNL     1      35.135  50.881  40.786  1.00  0.00     0.001 A 
HETATM   26  C   UNL     1      35.178  50.824  42.174  1.00  0.00     0.002 A 
ENDBRANCH  16  17
ENDBRANCH   2  16
TORSDOF 6
ENDMDL
MODEL 4
REMARK VINA RESULT:      -8.6     13.095     14.968
REMARK  6 active torsions:
REMARK  status: ('A' for Active; 'I' for Inactive)
REMARK    1  A    between atoms: C_5  and  C_6 
REMARK    2  A    between atoms: C_6  and  O_7 
REMARK    3  A    between atoms: C_6  and  C_8 
REMARK    4  A    between atoms: C_8  and  N_9 
REMARK       I    between atoms: N_9  and  C_10 
REMARK    5  A    between atoms: C_10  and  C_11 
REMARK    6  A    between atoms: C_11  and  C_12 
ROOT
HETATM    1  N   UNL     1      27.379  51.056  39.852  1.00  0.00    -0.358 N 
HETATM    2  C   UNL     1      28.178  51.557  38.850  1.00  0.00     0.222 C 
HETATM    3  O   UNL     1      28.224  51.071  37.724  1.00  0.00    -0.273 OA
HETATM    4  H   UNL     1      27.292  51.570  40.719  1.00  0.00     0.162 HD
ENDROOT
BRANCH   1   5
HETATM    5  C   UNL     1      26.447  49.961  39.622  1.00  0.00     0.159 C 
BRANCH   5   6
HETATM    6  C   UNL     1      26.869  48.587  40.184  1.00  0.00     0.169 C 
BRANCH   6   7
HETATM    7  C   UNL     1      28.338  48.503  40.547  1.00  0.00    -0.028 A 
HETATM    8  C   UNL     1      29.281  48.128  39.580  1.00  0.00     0.010 A 
HETATM    9  C   UNL     1      30.635  48.026  39.908  1.00  0.00     0.007 A 
HETATM   10  C   UNL     1      31.072  48.292  41.210  1.00  0.00    -0.062 A 
HETATM   11  C   UNL     1      32.524  48.192  41.571  1.00  0.00     0.048 C 
HETATM   12  C   UNL     1      30.136  48.683  42.173  1.00  0.00     0.007 A 
HETATM   13  C   UNL     1      28.782  48.784  41.846  1.00  0.00     0.010 A 
ENDBRANCH   6   7
BRANCH   6  14
HETATM   14  O   UNL     1      26.091  48.311  41.357  1.00  0.00    -0.389 OA
HETATM   15  H   UNL     1      25.952  49.167  41.800  1.00  0.00     0.210 HD
ENDBRANCH   6  14
ENDBRANCH   5   6
ENDBRANCH   1   5
BRANCH   2  16
HETATM   16  C   UNL     1      28.988  52.780  39.236  1.00  0.00     0.142 C 
BRANCH  16  17
HETATM   17  C   UNL     1      30.303  52.469  39.901  1.00  0.00    -0.031 A 
HETATM   18  C   UNL     1      31.448  52.142  39.184  1.00  0.00     0.125 A 
HETATM   19  N   UNL     1      32.635  51.816  39.748  1.00  0.00    -0.260 NA
HETATM   20  C   UNL     1      32.714  51.775  41.088  1.00  0.00     0.066 A 
HETATM   21  C   UNL     1      31.609  52.064  41.914  1.00  0.00    -0.007 A 
HETATM   22  C   UNL     1      33.915  51.431  41.692  1.00  0.00     0.032 A 
HETATM   23  C   UNL     1      30.398  52.411  41.295  1.00  0.00     0.022 A 
HETATM   24  C   UNL     1      31.736  51.993  43.313  1.00  0.00     0.014 A 
HETATM   25  C   UNL     1      32.954  51.640  43.894  1.00  0.00     0.001 A 
HETATM   26  C   UNL     1      34.046  51.359  43.081  1.00  0.00     0.002 A 
ENDBRANCH  16  17
ENDBRANCH   2  16
TORSDOF 6
ENDMDL
MODEL 5
REMARK VINA RESULT:      -8.6      2.081      2.701
REMARK  6 active torsions:
REMARK  status: ('A' for Active; 'I' for Inactive)
REMARK    1  A    between atoms: C_5  and  C_6 
REMARK    2  A    between atoms: C_6  and  O_7 
REMARK    3  A    between atoms: C_6  and  C_8 
REMARK    4  A    between atoms: C_8  and  N_9 
REMARK       I    between atoms: N_9  and  C_10 
REMARK    5  A    between atoms: C_10  and  C_11 
REMARK    6  A    between atoms: C_11  and  C_12 
ROOT
HETATM    1  N   UNL     1      27.386  44.242  51.158  1.00  0.00    -0.358 N 
HETATM    2  C   UNL     1      27.677  43.117  51.896  1.00  0.00     0.222 C 
HETATM    3  O   UNL     1      26.862  42.225  52.108  1.00  0.00    -0.273 OA
HETATM    4  H   UNL     1      28.131  44.882  50.917  1.00  0.00     0.162 HD
ENDROOT
BRANCH   1   5
HETATM    5  C   UNL     1      26.106  44.413  50.486  1.00  0.00     0.159 C 
BRANCH   5   6
HETATM    6  C   UNL     1      25.150  45.453  51.107  1.00  0.00     0.169 C 
BRANCH   6   7
HETATM    7  C   UNL     1      24.991  46.708  50.271  1.00  0.00    -0.028 A 
HETATM    8  C   UNL     1      26.094  47.540  50.036  1.00  0.00     0.010 A 
HETATM    9  C   UNL     1      25.957  48.711  49.286  1.00  0.00     0.007 A 
HETATM   10  C   UNL     1      24.712  49.075  48.761  1.00  0.00    -0.062 A 
HETATM   11  C   UNL     1      24.555  50.326  47.949  1.00  0.00     0.048 C 
HETATM   12  C   UNL     1      23.613  48.238  48.979  1.00  0.00     0.007 A 
HETATM   13  C   UNL     1      23.750  47.068  49.729  1.00  0.00     0.010 A 
ENDBRANCH   6   7
BRANCH   6  14
HETATM   14  O   UNL     1      23.860  44.850  51.275  1.00  0.00    -0.389 OA
HETATM   15  H   UNL     1      23.914  43.969  50.866  1.00  0.00     0.210 HD
ENDBRANCH   6  14
ENDBRANCH   5   6
ENDBRANCH   1   5
BRANCH   2  16
HETATM   16  C   UNL     1      29.102  43.051  52.415  1.00  0.00     0.142 C 
BRANCH  16  17
HETATM   17  C   UNL     1      29.305  43.705  53.756  1.00  0.00    -0.031 A 
HETATM   18  C   UNL     1      28.588  44.825  54.162  1.00  0.00     0.125 A 
HETATM   19  N   UNL     1      28.773  45.464  55.340  1.00  0.00    -0.260 NA
HETATM   20  C   UNL     1      29.728  45.011  56.168  1.00  0.00     0.066 A 
HETATM   21  C   UNL     1      30.532  43.899  55.848  1.00  0.00    -0.007 A 
HETATM   22  C   UNL     1      29.947  45.656  57.377  1.00  0.00     0.032 A 
HETATM   23  C   UNL     1      30.304  43.252  54.623  1.00  0.00     0.022 A 
HETATM   24  C   UNL     1      31.532  43.470  56.740  1.00  0.00     0.014 A 
HETATM   25  C   UNL     1      31.733  44.139  57.947  1.00  0.00     0.001 A 
HETATM   26  C   UNL     1      30.939  45.234  58.266  1.00  0.00     0.002 A 
ENDBRANCH  16  17
ENDBRANCH   2  16
TORSDOF 6
ENDMDL
MODEL 6
REMARK VINA RESULT:      -8.6     13.117     15.067
REMARK  6 active torsions:
REMARK  status: ('A' for Active; 'I' for Inactive)
REMARK    1  A    between atoms: C_5  and  C_6 
REMARK    2  A    between atoms: C_6  and  O_7 
REMARK    3  A    between atoms: C_6  and  C_8 
REMARK    4  A    between atoms: C_8  and  N_9 
REMARK       I    between atoms: N_9  and  C_10 
REMARK    5  A    between atoms: C_10  and  C_11 
REMARK    6  A    between atoms: C_11  and  C_12 
ROOT
HETATM    1  N   UNL     1      28.372  50.664  41.287  1.00  0.00    -0.358 N 
HETATM    2  C   UNL     1      28.508  49.304  41.124  1.00  0.00     0.222 C 
HETATM    3  O   UNL     1      27.946  48.676  40.232  1.00  0.00    -0.273 OA
HETATM    4  H   UNL     1      28.953  51.141  41.963  1.00  0.00     0.162 HD
ENDROOT
BRANCH   1   5
HETATM    5  C   UNL     1      27.621  51.482  40.345  1.00  0.00     0.159 C 
BRANCH   5   6
HETATM    6  C   UNL     1      28.340  51.819  39.022  1.00  0.00     0.169 C 
BRANCH   6   7
HETATM    7  C   UNL     1      29.839  51.993  39.172  1.00  0.00    -0.028 A 
HETATM    8  C   UNL     1      30.350  52.946  40.063  1.00  0.00     0.010 A 
HETATM    9  C   UNL     1      31.729  53.132  40.194  1.00  0.00     0.007 A 
HETATM   10  C   UNL     1      32.622  52.371  39.433  1.00  0.00    -0.062 A 
HETATM   11  C   UNL     1      34.104  52.558  39.571  1.00  0.00     0.048 C 
HETATM   12  C   UNL     1      32.116  51.407  38.555  1.00  0.00     0.007 A 
HETATM   13  C   UNL     1      30.738  51.222  38.423  1.00  0.00     0.010 A 
ENDBRANCH   6   7
BRANCH   6  14
HETATM   14  O   UNL     1      28.094  50.764  38.082  1.00  0.00    -0.389 OA
HETATM   15  H   UNL     1      27.237  50.374  38.327  1.00  0.00     0.210 HD
ENDBRANCH   6  14
ENDBRANCH   5   6
ENDBRANCH   1   5
BRANCH   2  16
HETATM   16  C   UNL     1      29.431  48.634  42.126  1.00  0.00     0.142 C 
BRANCH  16  17
HETATM   17  C   UNL     1      30.888  48.974  41.950  1.00  0.00    -0.031 A 
HETATM   18  C   UNL     1      31.751  48.205  41.179  1.00  0.00     0.125 A 
HETATM   19  N   UNL     1      33.072  48.455  41.031  1.00  0.00    -0.260 NA
HETATM   20  C   UNL     1      33.601  49.497  41.693  1.00  0.00     0.066 A 
HETATM   21  C   UNL     1      32.825  50.330  42.523  1.00  0.00    -0.007 A 
HETATM   22  C   UNL     1      34.957  49.769  41.570  1.00  0.00     0.032 A 
HETATM   23  C   UNL     1      31.455  50.049  42.641  1.00  0.00     0.022 A 
HETATM   24  C   UNL     1      33.426  51.401  43.208  1.00  0.00     0.014 A 
HETATM   25  C   UNL     1      34.791  51.649  43.071  1.00  0.00     0.001 A 
HETATM   26  C   UNL     1      35.558  50.832  42.250  1.00  0.00     0.002 A 
ENDBRANCH  16  17
ENDBRANCH   2  16
TORSDOF 6
ENDMDL
MODEL 7
REMARK VINA RESULT:      -8.5      3.550      4.340
REMARK  6 active torsions:
REMARK  status: ('A' for Active; 'I' for Inactive)
REMARK    1  A    between atoms: C_5  and  C_6 
REMARK    2  A    between atoms: C_6  and  O_7 
REMARK    3  A    between atoms: C_6  and  C_8 
REMARK    4  A    between atoms: C_8  and  N_9 
REMARK       I    between atoms: N_9  and  C_10 
REMARK    5  A    between atoms: C_10  and  C_11 
REMARK    6  A    between atoms: C_11  and  C_12 
ROOT
HETATM    1  N   UNL     1      25.639  45.461  50.462  1.00  0.00    -0.358 N 
HETATM    2  C   UNL     1      25.372  44.565  51.472  1.00  0.00     0.222 C 
HETATM    3  O   UNL     1      24.277  44.477  52.019  1.00  0.00    -0.273 OA
HETATM    4  H   UNL     1      26.520  45.403  49.970  1.00  0.00     0.162 HD
ENDROOT
BRANCH   1   5
HETATM    5  C   UNL     1      24.604  46.313  49.895  1.00  0.00     0.159 C 
BRANCH   5   6
HETATM    6  C   UNL     1      25.072  47.687  49.372  1.00  0.00     0.169 C 
BRANCH   6   7
HETATM    7  C   UNL     1      23.936  48.656  49.109  1.00  0.00    -0.028 A 
HETATM    8  C   UNL     1      24.213  49.982  48.750  1.00  0.00     0.010 A 
HETATM    9  C   UNL     1      23.175  50.891  48.525  1.00  0.00     0.007 A 
HETATM   10  C   UNL     1      21.841  50.492  48.661  1.00  0.00    -0.062 A 
HETATM   11  C   UNL     1      20.720  51.458  48.416  1.00  0.00     0.048 C 
HETATM   12  C   UNL     1      21.561  49.165  49.002  1.00  0.00     0.007 A 
HETATM   13  C   UNL     1      22.598  48.257  49.227  1.00  0.00     0.010 A 
ENDBRANCH   6   7
BRANCH   6  14
HETATM   14  O   UNL     1      25.955  48.271  50.340  1.00  0.00    -0.389 OA
HETATM   15  H   UNL     1      26.725  47.679  50.400  1.00  0.00     0.210 HD
ENDBRANCH   6  14
ENDBRANCH   5   6
ENDBRANCH   1   5
BRANCH   2  16
HETATM   16  C   UNL     1      26.538  43.668  51.849  1.00  0.00     0.142 C 
BRANCH  16  17
HETATM   17  C   UNL     1      27.331  44.148  53.036  1.00  0.00    -0.031 A 
HETATM   18  C   UNL     1      27.068  45.352  53.678  1.00  0.00     0.125 A 
HETATM   19  N   UNL     1      27.784  45.835  54.720  1.00  0.00    -0.260 NA
HETATM   20  C   UNL     1      28.838  45.124  55.152  1.00  0.00     0.066 A 
HETATM   21  C   UNL     1      29.212  43.901  54.560  1.00  0.00    -0.007 A 
HETATM   22  C   UNL     1      29.598  45.602  56.211  1.00  0.00     0.032 A 
HETATM   23  C   UNL     1      28.437  43.424  53.490  1.00  0.00     0.022 A 
HETATM   24  C   UNL     1      30.333  43.199  55.037  1.00  0.00     0.014 A 
HETATM   25  C   UNL     1      31.082  43.704  56.100  1.00  0.00     0.001 A 
HETATM   26  C   UNL     1      30.713  44.908  56.688  1.00  0.00     0.002 A 
ENDBRANCH  16  17
ENDBRANCH   2  16
TORSDOF 6
ENDMDL
MODEL 8
REMARK VINA RESULT:      -8.5      3.134      7.585
REMARK  6 active torsions:
REMARK  status: ('A' for Active; 'I' for Inactive)
REMARK    1  A    between atoms: C_5  and  C_6 
REMARK    2  A    between atoms: C_6  and  O_7 
REMARK    3  A    between atoms: C_6  and  C_8 
REMARK    4  A    between atoms: C_8  and  N_9 
REMARK       I    between atoms: N_9  and  C_10 
REMARK    5  A    between atoms: C_10  and  C_11 
REMARK    6  A    between atoms: C_11  and  C_12 
ROOT
HETATM    1  N   UNL     1      26.878  45.827  53.221  1.00  0.00    -0.358 N 
HETATM    2  C   UNL     1      26.568  44.735  52.442  1.00  0.00     0.222 C 
HETATM    3  O   UNL     1      26.166  43.673  52.907  1.00  0.00    -0.273 OA
HETATM    4  H   UNL     1      27.087  46.710  52.774  1.00  0.00     0.162 HD
ENDROOT
BRANCH   1   5
HETATM    5  C   UNL     1      26.659  45.835  54.660  1.00  0.00     0.159 C 
BRANCH   5   6
HETATM    6  C   UNL     1      27.698  46.610  55.497  1.00  0.00     0.169 C 
BRANCH   6   7
HETATM    7  C   UNL     1      28.866  45.758  55.956  1.00  0.00    -0.028 A 
HETATM    8  C   UNL     1      29.339  44.718  55.144  1.00  0.00     0.010 A 
HETATM    9  C   UNL     1      30.400  43.912  55.565  1.00  0.00     0.007 A 
HETATM   10  C   UNL     1      31.004  44.126  56.809  1.00  0.00    -0.062 A 
HETATM   11  C   UNL     1      32.147  43.271  57.267  1.00  0.00     0.048 C 
HETATM   12  C   UNL     1      30.545  45.174  57.614  1.00  0.00     0.007 A 
HETATM   13  C   UNL     1      29.485  45.980  57.194  1.00  0.00     0.010 A 
ENDBRANCH   6   7
BRANCH   6  14
HETATM   14  O   UNL     1      28.207  47.695  54.710  1.00  0.00    -0.389 OA
HETATM   15  H   UNL     1      27.439  48.244  54.473  1.00  0.00     0.210 HD
ENDBRANCH   6  14
ENDBRANCH   5   6
ENDBRANCH   1   5
BRANCH   2  16
HETATM   16  C   UNL     1      26.739  44.952  50.950  1.00  0.00     0.142 C 
BRANCH  16  17
HETATM   17  C   UNL     1      25.972  46.126  50.401  1.00  0.00    -0.031 A 
HETATM   18  C   UNL     1      24.584  46.188  50.411  1.00  0.00     0.125 A 
HETATM   19  N   UNL     1      23.861  47.206  49.890  1.00  0.00    -0.260 NA
HETATM   20  C   UNL     1      24.518  48.216  49.297  1.00  0.00     0.066 A 
HETATM   21  C   UNL     1      25.924  48.246  49.207  1.00  0.00    -0.007 A 
HETATM   22  C   UNL     1      23.800  49.267  48.743  1.00  0.00     0.032 A 
HETATM   23  C   UNL     1      26.642  47.179  49.771  1.00  0.00     0.022 A 
HETATM   24  C   UNL     1      26.567  49.317  48.563  1.00  0.00     0.014 A 
HETATM   25  C   UNL     1      25.822  50.359  48.011  1.00  0.00     0.001 A 
HETATM   26  C   UNL     1      24.435  50.334  48.102  1.00  0.00     0.002 A 
ENDBRANCH  16  17
ENDBRANCH   2  16
TORSDOF 6
ENDMDL
MODEL 9
REMARK VINA RESULT:      -8.4      3.821      8.415
REMARK  6 active torsions:
REMARK  status: ('A' for Active; 'I' for Inactive)
REMARK    1  A    between atoms: C_5  and  C_6 
REMARK    2  A    between atoms: C_6  and  O_7 
REMARK    3  A    between atoms: C_6  and  C_8 
REMARK    4  A    between atoms: C_8  and  N_9 
REMARK       I    between atoms: N_9  and  C_10 
REMARK    5  A    between atoms: C_10  and  C_11 
REMARK    6  A    between atoms: C_11  and  C_12 
ROOT
HETATM    1  N   UNL     1      26.382  45.483  51.446  1.00  0.00    -0.358 N 
HETATM    2  C   UNL     1      25.070  45.230  51.117  1.00  0.00     0.222 C 
HETATM    3  O   UNL     1      24.240  44.829  51.928  1.00  0.00    -0.273 OA
HETATM    4  H   UNL     1      26.985  45.926  50.766  1.00  0.00     0.162 HD
ENDROOT
BRANCH   1   5
HETATM    5  C   UNL     1      26.865  45.386  52.816  1.00  0.00     0.159 C 
BRANCH   5   6
HETATM    6  C   UNL     1      27.279  43.976  53.287  1.00  0.00     0.169 C 
BRANCH   6   7
HETATM    7  C   UNL     1      28.459  43.975  54.240  1.00  0.00    -0.028 A 
HETATM    8  C   UNL     1      29.327  42.877  54.282  1.00  0.00     0.010 A 
HETATM    9  C   UNL     1      30.405  42.854  55.171  1.00  0.00     0.007 A 
HETATM   10  C   UNL     1      30.631  43.928  56.039  1.00  0.00    -0.062 A 
HETATM   11  C   UNL     1      31.789  43.917  56.992  1.00  0.00     0.048 C 
HETATM   12  C   UNL     1      29.776  45.034  55.987  1.00  0.00     0.007 A 
HETATM   13  C   UNL     1      28.698  45.056  55.100  1.00  0.00     0.010 A 
ENDBRANCH   6   7
BRANCH   6  14
HETATM   14  O   UNL     1      26.161  43.363  53.944  1.00  0.00    -0.389 OA
HETATM   15  H   UNL     1      25.518  44.075  54.110  1.00  0.00     0.210 HD
ENDBRANCH   6  14
ENDBRANCH   5   6
ENDBRANCH   1   5
BRANCH   2  16
HETATM   16  C   UNL     1      24.714  45.508  49.667  1.00  0.00     0.142 C 
BRANCH  16  17
HETATM   17  C   UNL     1      24.225  46.908  49.406  1.00  0.00    -0.031 A 
HETATM   18  C   UNL     1      25.039  48.026  49.541  1.00  0.00     0.125 A 
HETATM   19  N   UNL     1      24.623  49.301  49.356  1.00  0.00    -0.260 NA
HETATM   20  C   UNL     1      23.333  49.512  49.049  1.00  0.00     0.066 A 
HETATM   21  C   UNL     1      22.412  48.454  48.911  1.00  0.00    -0.007 A 
HETATM   22  C   UNL     1      22.877  50.810  48.867  1.00  0.00     0.032 A 
HETATM   23  C   UNL     1      22.882  47.145  49.097  1.00  0.00     0.022 A 
HETATM   24  C   UNL     1      21.067  48.726  48.604  1.00  0.00     0.014 A 
HETATM   25  C   UNL     1      20.634  50.040  48.430  1.00  0.00     0.001 A 
HETATM   26  C   UNL     1      21.541  51.084  48.561  1.00  0.00     0.002 A 
ENDBRANCH  16  17
ENDBRANCH   2  16
TORSDOF 6
ENDMDL
MODEL 10
REMARK VINA RESULT:      -8.4      4.683      6.080
REMARK  6 active torsions:
REMARK  status: ('A' for Active; 'I' for Inactive)
REMARK    1  A    between atoms: C_5  and  C_6 
REMARK    2  A    between atoms: C_6  and  O_7 
REMARK    3  A    between atoms: C_6  and  C_8 
REMARK    4  A    between atoms: C_8  and  N_9 
REMARK       I    between atoms: N_9  and  C_10 
REMARK    5  A    between atoms: C_10  and  C_11 
REMARK    6  A    between atoms: C_11  and  C_12 
ROOT
HETATM    1  N   UNL     1      24.344  47.580  49.958  1.00  0.00    -0.358 N 
HETATM    2  C   UNL     1      25.314  47.172  50.845  1.00  0.00     0.222 C 
HETATM    3  O   UNL     1      26.328  47.823  51.076  1.00  0.00    -0.273 OA
HETATM    4  H   UNL     1      23.477  47.062  49.901  1.00  0.00     0.162 HD
ENDROOT
BRANCH   1   5
HETATM    5  C   UNL     1      24.402  48.875  49.295  1.00  0.00     0.159 C 
BRANCH   5   6
HETATM    6  C   UNL     1      23.385  49.095  48.154  1.00  0.00     0.169 C 
BRANCH   6   7
HETATM    7  C   UNL     1      22.048  49.631  48.627  1.00  0.00    -0.028 A 
HETATM    8  C   UNL     1      21.075  48.754  49.125  1.00  0.00     0.010 A 
HETATM    9  C   UNL     1      19.831  49.234  49.544  1.00  0.00     0.007 A 
HETATM   10  C   UNL     1      19.534  50.598  49.467  1.00  0.00    -0.062 A 
HETATM   11  C   UNL     1      18.205  51.124  49.920  1.00  0.00     0.048 C 
HETATM   12  C   UNL     1      20.510  51.479  48.987  1.00  0.00     0.007 A 
HETATM   13  C   UNL     1      21.753  51.000  48.568  1.00  0.00     0.010 A 
ENDBRANCH   6   7
BRANCH   6  14
HETATM   14  O   UNL     1      23.942  50.023  47.213  1.00  0.00    -0.389 OA
HETATM   15  H   UNL     1      23.389  50.822  47.257  1.00  0.00     0.210 HD
ENDBRANCH   6  14
ENDBRANCH   5   6
ENDBRANCH   1   5
BRANCH   2  16
HETATM   16  C   UNL     1      25.024  45.853  51.539  1.00  0.00     0.142 C 
BRANCH  16  17
HETATM   17  C   UNL     1      26.127  45.375  52.446  1.00  0.00    -0.031 A 
HETATM   18  C   UNL     1      26.314  45.874  53.729  1.00  0.00     0.125 A 
HETATM   19  N   UNL     1      27.318  45.499  54.556  1.00  0.00    -0.260 NA
HETATM   20  C   UNL     1      28.214  44.605  54.106  1.00  0.00     0.066 A 
HETATM   21  C   UNL     1      28.136  44.052  52.813  1.00  0.00    -0.007 A 
HETATM   22  C   UNL     1      29.261  44.213  54.929  1.00  0.00     0.032 A 
HETATM   23  C   UNL     1      27.074  44.454  51.988  1.00  0.00     0.022 A 
HETATM   24  C   UNL     1      29.107  43.131  52.380  1.00  0.00     0.014 A 
HETATM   25  C   UNL     1      30.150  42.756  53.225  1.00  0.00     0.001 A 
HETATM   26  C   UNL     1      30.227  43.298  54.503  1.00  0.00     0.002 A 
ENDBRANCH  16  17
ENDBRANCH   2  16
TORSDOF 6
ENDMDL
