MODEL 1
REMARK VINA RESULT:      -8.6      0.000      0.000
REMARK  6 active torsions:
REMARK  status: ('A' for Active; 'I' for Inactive)
REMARK    1  A    between atoms: O_2  and  C_3 
REMARK    2  A    between atoms: C_3  and  C_4 
REMARK    3  A    between atoms: C_7  and  C_8 
REMARK    4  A    between atoms: C_8  and  O_9 
REMARK    5  A    between atoms: O_9  and  C_10 
REMARK    6  A    between atoms: C_13  and  C_14 
ROOT
HETATM    1  C   UNL     1      27.844  41.575  51.485  1.00  0.00     0.069 A 
HETATM    2  C   UNL     1      27.673  41.046  52.765  1.00  0.00     0.037 A 
HETATM    3  C   UNL     1      28.337  41.609  53.858  1.00  0.00     0.014 A 
HETATM    4  C   UNL     1      29.190  42.699  53.672  1.00  0.00    -0.035 A 
HETATM    5  C   UNL     1      29.408  43.191  52.380  1.00  0.00     0.014 A 
HETATM    6  C   UNL     1      28.744  42.624  51.287  1.00  0.00     0.037 A 
ENDROOT
BRANCH   1   7
HETATM    7  O   UNL     1      27.090  40.992  50.503  1.00  0.00    -0.347 OA
BRANCH   7   8
HETATM    8  C   UNL     1      25.688  41.275  50.557  1.00  0.00     0.214 C 
BRANCH   8   9
HETATM    9  C   UNL     1      25.468  42.770  50.475  1.00  0.00    -0.034 A 
HETATM   10  C   UNL     1      24.921  43.461  51.566  1.00  0.00     0.010 A 
HETATM   11  C   UNL     1      24.727  44.843  51.509  1.00  0.00     0.018 A 
HETATM   12  C   UNL     1      25.083  45.561  50.363  1.00  0.00     0.039 A 
HETATM   13  C   UNL     1      25.637  44.880  49.271  1.00  0.00     0.018 A 
HETATM   14  C   UNL     1      25.831  43.495  49.330  1.00  0.00     0.010 A 
BRANCH  12  15
HETATM   15  C   UNL     1      24.853  47.033  50.361  1.00  0.00     0.292 C 
HETATM   16  O   UNL     1      23.811  47.551  49.989  1.00  0.00    -0.259 OA
BRANCH  15  17
HETATM   17  O   UNL     1      25.941  47.692  50.832  1.00  0.00    -0.323 OA
HETATM   18  C   UNL     1      26.710  48.335  49.815  1.00  0.00     0.213 C 
ENDBRANCH  15  17
ENDBRANCH  12  15
ENDBRANCH   8   9
ENDBRANCH   7   8
ENDBRANCH   1   7
BRANCH   4  19
HETATM   19  C   UNL     1      29.806  43.355  54.822  1.00  0.00     0.029 C 
HETATM   20  C   UNL     1      29.416  44.505  55.389  1.00  0.00     0.045 A 
HETATM   21  C   UNL     1      30.183  45.055  56.565  1.00  0.00     0.257 A 
HETATM   22  C   UNL     1      28.326  45.441  55.106  1.00  0.00     0.006 A 
HETATM   23  O   UNL     1      31.157  44.569  57.109  1.00  0.00    -0.267 OA
HETATM   24  N   UNL     1      29.539  46.236  56.891  1.00  0.00    -0.322 N 
HETATM   25  C   UNL     1      28.455  46.470  56.048  1.00  0.00     0.046 A 
HETATM   26  H   UNL     1      29.837  46.829  57.650  1.00  0.00     0.169 HD
HETATM   27  C   UNL     1      27.597  47.549  56.098  1.00  0.00     0.030 A 
HETATM   28  C   UNL     1      26.565  47.589  55.160  1.00  0.00     0.002 A 
HETATM   29  C   UNL     1      26.419  46.562  54.208  1.00  0.00     0.001 A 
HETATM   30  C   UNL     1      27.304  45.477  54.176  1.00  0.00     0.015 A 
ENDBRANCH   4  19
TORSDOF 6
ENDMDL
MODEL 2
REMARK VINA RESULT:      -8.6      2.804      7.514
REMARK  6 active torsions:
REMARK  status: ('A' for Active; 'I' for Inactive)
REMARK    1  A    between atoms: O_2  and  C_3 
REMARK    2  A    between atoms: C_3  and  C_4 
REMARK    3  A    between atoms: C_7  and  C_8 
REMARK    4  A    between atoms: C_8  and  O_9 
REMARK    5  A    between atoms: O_9  and  C_10 
REMARK    6  A    between atoms: C_13  and  C_14 
ROOT
HETATM    1  C   UNL     1      26.018  43.360  51.482  1.00  0.00     0.069 A 
HETATM    2  C   UNL     1      25.802  43.296  50.105  1.00  0.00     0.037 A 
HETATM    3  C   UNL     1      24.957  44.216  49.478  1.00  0.00     0.014 A 
HETATM    4  C   UNL     1      24.311  45.199  50.232  1.00  0.00    -0.035 A 
HETATM    5  C   UNL     1      24.481  45.225  51.620  1.00  0.00     0.014 A 
HETATM    6  C   UNL     1      25.325  44.301  52.246  1.00  0.00     0.037 A 
ENDROOT
BRANCH   1   7
HETATM    7  O   UNL     1      26.919  42.457  51.977  1.00  0.00    -0.347 OA
BRANCH   7   8
HETATM    8  C   UNL     1      28.294  42.763  51.728  1.00  0.00     0.214 C 
BRANCH   8   9
HETATM    9  C   UNL     1      28.958  43.203  53.015  1.00  0.00    -0.034 A 
HETATM   10  C   UNL     1      30.137  42.578  53.447  1.00  0.00     0.010 A 
HETATM   11  C   UNL     1      30.769  42.985  54.625  1.00  0.00     0.018 A 
HETATM   12  C   UNL     1      30.238  44.030  55.388  1.00  0.00     0.039 A 
HETATM   13  C   UNL     1      29.066  44.665  54.959  1.00  0.00     0.018 A 
HETATM   14  C   UNL     1      28.434  44.256  53.780  1.00  0.00     0.010 A 
BRANCH  12  15
HETATM   15  C   UNL     1      30.956  44.420  56.633  1.00  0.00     0.292 C 
HETATM   16  O   UNL     1      31.821  43.734  57.155  1.00  0.00    -0.259 OA
BRANCH  15  17
HETATM   17  O   UNL     1      30.524  45.625  57.082  1.00  0.00    -0.323 OA
HETATM   18  C   UNL     1      30.158  45.628  58.463  1.00  0.00     0.213 C 
ENDBRANCH  15  17
ENDBRANCH  12  15
ENDBRANCH   8   9
ENDBRANCH   7   8
ENDBRANCH   1   7
BRANCH   4  19
HETATM   19  C   UNL     1      23.510  46.224  49.569  1.00  0.00     0.029 C 
HETATM   20  C   UNL     1      23.940  47.415  49.131  1.00  0.00     0.045 A 
HETATM   21  C   UNL     1      22.968  48.369  48.485  1.00  0.00     0.257 A 
HETATM   22  C   UNL     1      25.250  48.070  49.139  1.00  0.00     0.006 A 
HETATM   23  O   UNL     1      21.780  48.197  48.284  1.00  0.00    -0.267 OA
HETATM   24  N   UNL     1      23.720  49.487  48.169  1.00  0.00    -0.322 N 
HETATM   25  C   UNL     1      25.051  49.324  48.544  1.00  0.00     0.046 A 
HETATM   26  H   UNL     1      23.328  50.301  47.721  1.00  0.00     0.169 HD
HETATM   27  C   UNL     1      26.069  50.239  48.373  1.00  0.00     0.030 A 
HETATM   28  C   UNL     1      27.341  49.872  48.816  1.00  0.00     0.002 A 
HETATM   29  C   UNL     1      27.558  48.616  49.413  1.00  0.00     0.001 A 
HETATM   30  C   UNL     1      26.509  47.703  49.578  1.00  0.00     0.015 A 
ENDBRANCH   4  19
TORSDOF 6
ENDMDL
MODEL 3
REMARK VINA RESULT:      -8.5      3.826      6.309
REMARK  6 active torsions:
REMARK  status: ('A' for Active; 'I' for Inactive)
REMARK    1  A    between atoms: O_2  and  C_3 
REMARK    2  A    between atoms: C_3  and  C_4 
REMARK    3  A    between atoms: C_7  and  C_8 
REMARK    4  A    between atoms: C_8  and  O_9 
REMARK    5  A    between atoms: O_9  and  C_10 
REMARK    6  A    between atoms: C_13  and  C_14 
ROOT
HETATM    1  C   UNL     1      25.131  46.790  50.255  1.00  0.00     0.069 A 
HETATM    2  C   UNL     1      24.415  45.677  50.696  1.00  0.00     0.037 A 
HETATM    3  C   UNL     1      25.017  44.416  50.728  1.00  0.00     0.014 A 
HETATM    4  C   UNL     1      26.339  44.261  50.304  1.00  0.00    -0.035 A 
HETATM    5  C   UNL     1      27.036  45.367  49.805  1.00  0.00     0.014 A 
HETATM    6  C   UNL     1      26.431  46.627  49.771  1.00  0.00     0.037 A 
ENDROOT
BRANCH   1   7
HETATM    7  O   UNL     1      24.466  47.984  50.334  1.00  0.00    -0.347 OA
BRANCH   7   8
HETATM    8  C   UNL     1      24.487  48.777  49.143  1.00  0.00     0.214 C 
BRANCH   8   9
HETATM    9  C   UNL     1      23.120  49.385  48.913  1.00  0.00    -0.034 A 
HETATM   10  C   UNL     1      21.971  48.586  49.001  1.00  0.00     0.010 A 
HETATM   11  C   UNL     1      20.703  49.138  48.807  1.00  0.00     0.018 A 
HETATM   12  C   UNL     1      20.559  50.501  48.530  1.00  0.00     0.039 A 
HETATM   13  C   UNL     1      21.701  51.308  48.449  1.00  0.00     0.018 A 
HETATM   14  C   UNL     1      22.971  50.754  48.643  1.00  0.00     0.010 A 
BRANCH  12  15
HETATM   15  C   UNL     1      19.181  51.032  48.333  1.00  0.00     0.292 C 
HETATM   16  O   UNL     1      18.292  50.408  47.776  1.00  0.00    -0.259 OA
BRANCH  15  17
HETATM   17  O   UNL     1      19.065  52.276  48.860  1.00  0.00    -0.323 OA
HETATM   18  C   UNL     1      17.902  52.452  49.672  1.00  0.00     0.213 C 
ENDBRANCH  15  17
ENDBRANCH  12  15
ENDBRANCH   8   9
ENDBRANCH   7   8
ENDBRANCH   1   7
BRANCH   4  19
HETATM   19  C   UNL     1      27.006  42.968  50.432  1.00  0.00     0.029 C 
HETATM   20  C   UNL     1      27.822  42.585  51.423  1.00  0.00     0.045 A 
HETATM   21  C   UNL     1      28.446  41.213  51.388  1.00  0.00     0.257 A 
HETATM   22  C   UNL     1      28.300  43.247  52.639  1.00  0.00     0.006 A 
HETATM   23  O   UNL     1      28.297  40.351  50.543  1.00  0.00    -0.267 OA
HETATM   24  N   UNL     1      29.229  41.147  52.528  1.00  0.00    -0.322 N 
HETATM   25  C   UNL     1      29.150  42.326  53.265  1.00  0.00     0.046 A 
HETATM   26  H   UNL     1      29.773  40.334  52.770  1.00  0.00     0.169 HD
HETATM   27  C   UNL     1      29.798  42.595  54.453  1.00  0.00     0.030 A 
HETATM   28  C   UNL     1      29.575  43.844  55.034  1.00  0.00     0.002 A 
HETATM   29  C   UNL     1      28.722  44.780  54.420  1.00  0.00     0.001 A 
HETATM   30  C   UNL     1      28.076  44.486  53.213  1.00  0.00     0.015 A 
ENDBRANCH   4  19
TORSDOF 6
ENDMDL
MODEL 4
REMARK VINA RESULT:      -8.4      2.481      5.674
REMARK  6 active torsions:
REMARK  status: ('A' for Active; 'I' for Inactive)
REMARK    1  A    between atoms: O_2  and  C_3 
REMARK    2  A    between atoms: C_3  and  C_4 
REMARK    3  A    between atoms: C_7  and  C_8 
REMARK    4  A    between atoms: C_8  and  O_9 
REMARK    5  A    between atoms: O_9  and  C_10 
REMARK    6  A    between atoms: C_13  and  C_14 
ROOT
HETATM    1  C   UNL     1      25.581  44.025  49.975  1.00  0.00     0.069 A 
HETATM    2  C   UNL     1      26.300  45.217  49.887  1.00  0.00     0.037 A 
HETATM    3  C   UNL     1      26.558  45.974  51.033  1.00  0.00     0.014 A 
HETATM    4  C   UNL     1      26.084  45.545  52.275  1.00  0.00    -0.035 A 
HETATM    5  C   UNL     1      25.312  44.382  52.354  1.00  0.00     0.014 A 
HETATM    6  C   UNL     1      25.052  43.628  51.204  1.00  0.00     0.037 A 
ENDROOT
BRANCH   1   7
HETATM    7  O   UNL     1      25.450  43.331  48.802  1.00  0.00    -0.347 OA
BRANCH   7   8
HETATM    8  C   UNL     1      24.966  41.991  48.934  1.00  0.00     0.214 C 
BRANCH   8   9
HETATM    9  C   UNL     1      26.134  41.039  49.076  1.00  0.00    -0.034 A 
HETATM   10  C   UNL     1      26.054  39.956  49.964  1.00  0.00     0.010 A 
HETATM   11  C   UNL     1      27.119  39.061  50.092  1.00  0.00     0.018 A 
HETATM   12  C   UNL     1      28.279  39.227  49.329  1.00  0.00     0.039 A 
HETATM   13  C   UNL     1      28.364  40.302  48.435  1.00  0.00     0.018 A 
HETATM   14  C   UNL     1      27.296  41.198  48.307  1.00  0.00     0.010 A 
BRANCH  12  15
HETATM   15  C   UNL     1      29.381  38.241  49.510  1.00  0.00     0.292 C 
HETATM   16  O   UNL     1      30.471  38.341  48.969  1.00  0.00    -0.259 OA
BRANCH  15  17
HETATM   17  O   UNL     1      29.004  37.247  50.352  1.00  0.00    -0.323 OA
HETATM   18  C   UNL     1      29.941  36.993  51.400  1.00  0.00     0.213 C 
ENDBRANCH  15  17
ENDBRANCH  12  15
ENDBRANCH   8   9
ENDBRANCH   7   8
ENDBRANCH   1   7
BRANCH   4  19
HETATM   19  C   UNL     1      26.438  46.276  53.489  1.00  0.00     0.029 C 
HETATM   20  C   UNL     1      27.444  45.993  54.328  1.00  0.00     0.045 A 
HETATM   21  C   UNL     1      27.656  46.844  55.554  1.00  0.00     0.257 A 
HETATM   22  C   UNL     1      28.474  44.952  54.339  1.00  0.00     0.006 A 
HETATM   23  O   UNL     1      27.012  47.814  55.905  1.00  0.00    -0.267 OA
HETATM   24  N   UNL     1      28.745  46.280  56.197  1.00  0.00    -0.322 N 
HETATM   25  C   UNL     1      29.230  45.178  55.497  1.00  0.00     0.046 A 
HETATM   26  H   UNL     1      29.119  46.645  57.059  1.00  0.00     0.169 HD
HETATM   27  C   UNL     1      30.304  44.389  55.854  1.00  0.00     0.030 A 
HETATM   28  C   UNL     1      30.631  43.332  55.004  1.00  0.00     0.002 A 
HETATM   29  C   UNL     1      29.884  43.092  53.835  1.00  0.00     0.001 A 
HETATM   30  C   UNL     1      28.796  43.905  53.494  1.00  0.00     0.015 A 
ENDBRANCH   4  19
TORSDOF 6
ENDMDL
MODEL 5
REMARK VINA RESULT:      -8.3      3.123      7.699
REMARK  6 active torsions:
REMARK  status: ('A' for Active; 'I' for Inactive)
REMARK    1  A    between atoms: O_2  and  C_3 
REMARK    2  A    between atoms: C_3  and  C_4 
REMARK    3  A    between atoms: C_7  and  C_8 
REMARK    4  A    between atoms: C_8  and  O_9 
REMARK    5  A    between atoms: O_9  and  C_10 
REMARK    6  A    between atoms: C_13  and  C_14 
ROOT
HETATM    1  C   UNL     1      25.822  44.442  51.591  1.00  0.00     0.069 A 
HETATM    2  C   UNL     1      26.406  44.447  50.324  1.00  0.00     0.037 A 
HETATM    3  C   UNL     1      26.520  45.638  49.603  1.00  0.00     0.014 A 
HETATM    4  C   UNL     1      26.035  46.832  50.142  1.00  0.00    -0.035 A 
HETATM    5  C   UNL     1      25.395  46.816  51.386  1.00  0.00     0.014 A 
HETATM    6  C   UNL     1      25.280  45.622  52.105  1.00  0.00     0.037 A 
ENDROOT
BRANCH   1   7
HETATM    7  O   UNL     1      25.828  43.235  52.236  1.00  0.00    -0.347 OA
BRANCH   7   8
HETATM    8  C   UNL     1      27.079  42.540  52.224  1.00  0.00     0.214 C 
BRANCH   8   9
HETATM    9  C   UNL     1      27.996  43.126  53.276  1.00  0.00    -0.034 A 
HETATM   10  C   UNL     1      29.336  42.721  53.345  1.00  0.00     0.010 A 
HETATM   11  C   UNL     1      30.197  43.265  54.301  1.00  0.00     0.018 A 
HETATM   12  C   UNL     1      29.736  44.231  55.201  1.00  0.00     0.039 A 
HETATM   13  C   UNL     1      28.400  44.646  55.135  1.00  0.00     0.018 A 
HETATM   14  C   UNL     1      27.539  44.100  54.176  1.00  0.00     0.010 A 
BRANCH  12  15
HETATM   15  C   UNL     1      30.700  44.774  56.198  1.00  0.00     0.292 C 
HETATM   16  O   UNL     1      30.487  45.773  56.867  1.00  0.00    -0.259 OA
BRANCH  15  17
HETATM   17  O   UNL     1      31.816  44.006  56.256  1.00  0.00    -0.323 OA
HETATM   18  C   UNL     1      31.888  43.180  57.420  1.00  0.00     0.213 C 
ENDBRANCH  15  17
ENDBRANCH  12  15
ENDBRANCH   8   9
ENDBRANCH   7   8
ENDBRANCH   1   7
BRANCH   4  19
HETATM   19  C   UNL     1      26.244  48.095  49.439  1.00  0.00     0.029 C 
HETATM   20  C   UNL     1      25.302  48.850  48.857  1.00  0.00     0.045 A 
HETATM   21  C   UNL     1      25.697  50.122  48.150  1.00  0.00     0.257 A 
HETATM   22  C   UNL     1      23.850  48.716  48.728  1.00  0.00     0.006 A 
HETATM   23  O   UNL     1      26.813  50.592  48.035  1.00  0.00    -0.267 OA
HETATM   24  N   UNL     1      24.512  50.641  47.658  1.00  0.00    -0.322 N 
HETATM   25  C   UNL     1      23.429  49.830  47.990  1.00  0.00     0.046 A 
HETATM   26  H   UNL     1      24.468  51.500  47.133  1.00  0.00     0.169 HD
HETATM   27  C   UNL     1      22.108  50.053  47.663  1.00  0.00     0.030 A 
HETATM   28  C   UNL     1      21.173  49.115  48.102  1.00  0.00     0.002 A 
HETATM   29  C   UNL     1      21.578  47.991  48.847  1.00  0.00     0.001 A 
HETATM   30  C   UNL     1      22.926  47.784  49.166  1.00  0.00     0.015 A 
ENDBRANCH   4  19
TORSDOF 6
ENDMDL
MODEL 6
REMARK VINA RESULT:      -8.2      3.724      5.564
REMARK  6 active torsions:
REMARK  status: ('A' for Active; 'I' for Inactive)
REMARK    1  A    between atoms: O_2  and  C_3 
REMARK    2  A    between atoms: C_3  and  C_4 
REMARK    3  A    between atoms: C_7  and  C_8 
REMARK    4  A    between atoms: C_8  and  O_9 
REMARK    5  A    between atoms: O_9  and  C_10 
REMARK    6  A    between atoms: C_13  and  C_14 
ROOT
HETATM    1  C   UNL     1      24.658  45.885  50.002  1.00  0.00     0.069 A 
HETATM    2  C   UNL     1      24.246  44.838  50.827  1.00  0.00     0.037 A 
HETATM    3  C   UNL     1      25.183  43.963  51.381  1.00  0.00     0.014 A 
HETATM    4  C   UNL     1      26.542  44.123  51.099  1.00  0.00    -0.035 A 
HETATM    5  C   UNL     1      26.949  45.134  50.222  1.00  0.00     0.014 A 
HETATM    6  C   UNL     1      26.008  46.008  49.667  1.00  0.00     0.037 A 
ENDROOT
BRANCH   1   7
HETATM    7  O   UNL     1      23.664  46.723  49.574  1.00  0.00    -0.347 OA
BRANCH   7   8
HETATM    8  C   UNL     1      24.013  48.108  49.515  1.00  0.00     0.214 C 
BRANCH   8   9
HETATM    9  C   UNL     1      22.807  48.919  49.092  1.00  0.00    -0.034 A 
HETATM   10  C   UNL     1      22.859  50.321  49.115  1.00  0.00     0.010 A 
HETATM   11  C   UNL     1      21.759  51.081  48.712  1.00  0.00     0.018 A 
HETATM   12  C   UNL     1      20.589  50.454  48.270  1.00  0.00     0.039 A 
HETATM   13  C   UNL     1      20.532  49.055  48.237  1.00  0.00     0.018 A 
HETATM   14  C   UNL     1      21.635  48.295  48.641  1.00  0.00     0.010 A 
BRANCH  12  15
HETATM   15  C   UNL     1      19.449  51.318  47.853  1.00  0.00     0.292 C 
HETATM   16  O   UNL     1      18.712  51.054  46.916  1.00  0.00    -0.259 OA
BRANCH  15  17
HETATM   17  O   UNL     1      19.350  52.406  48.657  1.00  0.00    -0.323 OA
HETATM   18  C   UNL     1      18.113  52.488  49.367  1.00  0.00     0.213 C 
ENDBRANCH  15  17
ENDBRANCH  12  15
ENDBRANCH   8   9
ENDBRANCH   7   8
ENDBRANCH   1   7
BRANCH   4  19
HETATM   19  C   UNL     1      27.534  43.275  51.755  1.00  0.00     0.029 C 
HETATM   20  C   UNL     1      28.190  43.548  52.891  1.00  0.00     0.045 A 
HETATM   21  C   UNL     1      29.204  42.566  53.422  1.00  0.00     0.257 A 
HETATM   22  C   UNL     1      28.157  44.680  53.819  1.00  0.00     0.006 A 
HETATM   23  O   UNL     1      29.521  41.494  52.942  1.00  0.00    -0.267 OA
HETATM   24  N   UNL     1      29.697  43.148  54.576  1.00  0.00    -0.322 N 
HETATM   25  C   UNL     1      29.093  44.380  54.818  1.00  0.00     0.046 A 
HETATM   26  H   UNL     1      30.401  42.712  55.151  1.00  0.00     0.169 HD
HETATM   27  C   UNL     1      29.347  45.222  55.881  1.00  0.00     0.030 A 
HETATM   28  C   UNL     1      28.623  46.414  55.940  1.00  0.00     0.002 A 
HETATM   29  C   UNL     1      27.677  46.729  54.947  1.00  0.00     0.001 A 
HETATM   30  C   UNL     1      27.437  45.859  53.875  1.00  0.00     0.015 A 
ENDBRANCH   4  19
TORSDOF 6
ENDMDL
MODEL 7
REMARK VINA RESULT:      -8.2      3.259      5.351
REMARK  6 active torsions:
REMARK  status: ('A' for Active; 'I' for Inactive)
REMARK    1  A    between atoms: O_2  and  C_3 
REMARK    2  A    between atoms: C_3  and  C_4 
REMARK    3  A    between atoms: C_7  and  C_8 
REMARK    4  A    between atoms: C_8  and  O_9 
REMARK    5  A    between atoms: O_9  and  C_10 
REMARK    6  A    between atoms: C_13  and  C_14 
ROOT
HETATM    1  C   UNL     1      24.670  45.929  51.167  1.00  0.00     0.069 A 
HETATM    2  C   UNL     1      25.420  47.079  51.414  1.00  0.00     0.037 A 
HETATM    3  C   UNL     1      26.140  47.212  52.605  1.00  0.00     0.014 A 
HETATM    4  C   UNL     1      26.100  46.195  53.563  1.00  0.00    -0.035 A 
HETATM    5  C   UNL     1      25.300  45.070  53.340  1.00  0.00     0.014 A 
HETATM    6  C   UNL     1      24.578  44.941  52.149  1.00  0.00     0.037 A 
ENDROOT
BRANCH   1   7
HETATM    7  O   UNL     1      24.065  45.875  49.940  1.00  0.00    -0.347 OA
BRANCH   7   8
HETATM    8  C   UNL     1      24.305  47.000  49.089  1.00  0.00     0.214 C 
BRANCH   8   9
HETATM    9  C   UNL     1      23.045  47.832  48.979  1.00  0.00    -0.034 A 
HETATM   10  C   UNL     1      23.056  49.179  49.369  1.00  0.00     0.010 A 
HETATM   11  C   UNL     1      21.904  49.962  49.257  1.00  0.00     0.018 A 
HETATM   12  C   UNL     1      20.723  49.414  48.746  1.00  0.00     0.039 A 
HETATM   13  C   UNL     1      20.706  48.072  48.347  1.00  0.00     0.018 A 
HETATM   14  C   UNL     1      21.860  47.289  48.459  1.00  0.00     0.010 A 
BRANCH  12  15
HETATM   15  C   UNL     1      19.528  50.299  48.651  1.00  0.00     0.292 C 
HETATM   16  O   UNL     1      18.514  49.997  48.041  1.00  0.00    -0.259 OA
BRANCH  15  17
HETATM   17  O   UNL     1      19.727  51.453  49.335  1.00  0.00    -0.323 OA
HETATM   18  C   UNL     1      18.519  52.085  49.763  1.00  0.00     0.213 C 
ENDBRANCH  15  17
ENDBRANCH  12  15
ENDBRANCH   8   9
ENDBRANCH   7   8
ENDBRANCH   1   7
BRANCH   4  19
HETATM   19  C   UNL     1      26.930  46.282  54.761  1.00  0.00     0.029 C 
HETATM   20  C   UNL     1      28.029  45.563  55.025  1.00  0.00     0.045 A 
HETATM   21  C   UNL     1      28.759  45.766  56.329  1.00  0.00     0.257 A 
HETATM   22  C   UNL     1      28.750  44.527  54.282  1.00  0.00     0.006 A 
HETATM   23  O   UNL     1      28.481  46.543  57.223  1.00  0.00    -0.267 OA
HETATM   24  N   UNL     1      29.817  44.874  56.290  1.00  0.00    -0.322 N 
HETATM   25  C   UNL     1      29.821  44.148  55.101  1.00  0.00     0.046 A 
HETATM   26  H   UNL     1      30.484  44.785  57.040  1.00  0.00     0.169 HD
HETATM   27  C   UNL     1      30.736  43.181  54.736  1.00  0.00     0.030 A 
HETATM   28  C   UNL     1      30.563  42.576  53.490  1.00  0.00     0.002 A 
HETATM   29  C   UNL     1      29.493  42.947  52.654  1.00  0.00     0.001 A 
HETATM   30  C   UNL     1      28.576  43.930  53.047  1.00  0.00     0.015 A 
ENDBRANCH   4  19
TORSDOF 6
ENDMDL
MODEL 8
REMARK VINA RESULT:      -8.1      3.392      8.265
REMARK  6 active torsions:
REMARK  status: ('A' for Active; 'I' for Inactive)
REMARK    1  A    between atoms: O_2  and  C_3 
REMARK    2  A    between atoms: C_3  and  C_4 
REMARK    3  A    between atoms: C_7  and  C_8 
REMARK    4  A    between atoms: C_8  and  O_9 
REMARK    5  A    between atoms: O_9  and  C_10 
REMARK    6  A    between atoms: C_13  and  C_14 
ROOT
HETATM    1  C   UNL     1      26.617  44.544  50.636  1.00  0.00     0.069 A 
HETATM    2  C   UNL     1      25.812  45.421  51.364  1.00  0.00     0.037 A 
HETATM    3  C   UNL     1      24.561  45.806  50.872  1.00  0.00     0.014 A 
HETATM    4  C   UNL     1      24.116  45.324  49.639  1.00  0.00    -0.035 A 
HETATM    5  C   UNL     1      24.950  44.493  48.882  1.00  0.00     0.014 A 
HETATM    6  C   UNL     1      26.202  44.112  49.376  1.00  0.00     0.037 A 
ENDROOT
BRANCH   1   7
HETATM    7  O   UNL     1      27.787  44.179  51.246  1.00  0.00    -0.347 OA
BRANCH   7   8
HETATM    8  C   UNL     1      27.667  43.160  52.242  1.00  0.00     0.214 C 
BRANCH   8   9
HETATM    9  C   UNL     1      28.542  43.502  53.429  1.00  0.00    -0.034 A 
HETATM   10  C   UNL     1      29.614  42.668  53.776  1.00  0.00     0.010 A 
HETATM   11  C   UNL     1      30.438  42.981  54.859  1.00  0.00     0.018 A 
HETATM   12  C   UNL     1      30.212  44.139  55.610  1.00  0.00     0.039 A 
HETATM   13  C   UNL     1      29.148  44.982  55.266  1.00  0.00     0.018 A 
HETATM   14  C   UNL     1      28.322  44.667  54.180  1.00  0.00     0.010 A 
BRANCH  12  15
HETATM   15  C   UNL     1      31.124  44.419  56.754  1.00  0.00     0.292 C 
HETATM   16  O   UNL     1      32.033  43.676  57.089  1.00  0.00    -0.259 OA
BRANCH  15  17
HETATM   17  O   UNL     1      30.809  45.599  57.343  1.00  0.00    -0.323 OA
HETATM   18  C   UNL     1      30.169  45.456  58.613  1.00  0.00     0.213 C 
ENDBRANCH  15  17
ENDBRANCH  12  15
ENDBRANCH   8   9
ENDBRANCH   7   8
ENDBRANCH   1   7
BRANCH   4  19
HETATM   19  C   UNL     1      22.770  45.640  49.169  1.00  0.00     0.029 C 
HETATM   20  C   UNL     1      22.334  46.831  48.736  1.00  0.00     0.045 A 
HETATM   21  C   UNL     1      20.898  46.989  48.305  1.00  0.00     0.257 A 
HETATM   22  C   UNL     1      22.980  48.135  48.577  1.00  0.00     0.006 A 
HETATM   23  O   UNL     1      20.031  46.135  48.283  1.00  0.00    -0.267 OA
HETATM   24  N   UNL     1      20.779  48.318  47.939  1.00  0.00    -0.322 N 
HETATM   25  C   UNL     1      21.986  48.995  48.093  1.00  0.00     0.046 A 
HETATM   26  H   UNL     1      19.915  48.717  47.605  1.00  0.00     0.169 HD
HETATM   27  C   UNL     1      22.219  50.327  47.816  1.00  0.00     0.030 A 
HETATM   28  C   UNL     1      23.511  50.808  48.034  1.00  0.00     0.002 A 
HETATM   29  C   UNL     1      24.522  49.957  48.518  1.00  0.00     0.001 A 
HETATM   30  C   UNL     1      24.262  48.609  48.793  1.00  0.00     0.015 A 
ENDBRANCH   4  19
TORSDOF 6
ENDMDL
MODEL 9
REMARK VINA RESULT:      -7.9     10.326     14.478
REMARK  6 active torsions:
REMARK  status: ('A' for Active; 'I' for Inactive)
REMARK    1  A    between atoms: O_2  and  C_3 
REMARK    2  A    between atoms: C_3  and  C_4 
REMARK    3  A    between atoms: C_7  and  C_8 
REMARK    4  A    between atoms: C_8  and  O_9 
REMARK    5  A    between atoms: O_9  and  C_10 
REMARK    6  A    between atoms: C_13  and  C_14 
ROOT
HETATM    1  C   UNL     1      18.070  51.090  48.355  1.00  0.00     0.069 A 
HETATM    2  C   UNL     1      16.789  50.537  48.332  1.00  0.00     0.037 A 
HETATM    3  C   UNL     1      15.725  51.190  48.960  1.00  0.00     0.014 A 
HETATM    4  C   UNL     1      15.942  52.397  49.628  1.00  0.00    -0.035 A 
HETATM    5  C   UNL     1      17.238  52.920  49.703  1.00  0.00     0.014 A 
HETATM    6  C   UNL     1      18.301  52.264  49.076  1.00  0.00     0.037 A 
ENDROOT
BRANCH   1   7
HETATM    7  O   UNL     1      19.019  50.403  47.647  1.00  0.00    -0.347 OA
BRANCH   7   8
HETATM    8  C   UNL     1      19.595  49.282  48.323  1.00  0.00     0.214 C 
BRANCH   8   9
HETATM    9  C   UNL     1      21.104  49.403  48.316  1.00  0.00    -0.034 A 
HETATM   10  C   UNL     1      21.891  48.420  48.933  1.00  0.00     0.010 A 
HETATM   11  C   UNL     1      23.285  48.512  48.920  1.00  0.00     0.018 A 
HETATM   12  C   UNL     1      23.917  49.584  48.283  1.00  0.00     0.039 A 
HETATM   13  C   UNL     1      23.139  50.566  47.657  1.00  0.00     0.018 A 
HETATM   14  C   UNL     1      21.743  50.473  47.671  1.00  0.00     0.010 A 
BRANCH  12  15
HETATM   15  C   UNL     1      25.406  49.628  48.302  1.00  0.00     0.292 C 
HETATM   16  O   UNL     1      26.076  50.157  47.429  1.00  0.00    -0.259 OA
BRANCH  15  17
HETATM   17  O   UNL     1      25.892  49.018  49.412  1.00  0.00    -0.323 OA
HETATM   18  C   UNL     1      27.297  48.762  49.362  1.00  0.00     0.213 C 
ENDBRANCH  15  17
ENDBRANCH  12  15
ENDBRANCH   8   9
ENDBRANCH   7   8
ENDBRANCH   1   7
BRANCH   4  19
HETATM   19  C   UNL     1      14.818  53.135  50.197  1.00  0.00     0.029 C 
HETATM   20  C   UNL     1      13.948  53.906  49.529  1.00  0.00     0.045 A 
HETATM   21  C   UNL     1      12.852  54.618  50.280  1.00  0.00     0.257 A 
HETATM   22  C   UNL     1      13.804  54.257  48.115  1.00  0.00     0.006 A 
HETATM   23  O   UNL     1      12.625  54.581  51.475  1.00  0.00    -0.267 OA
HETATM   24  N   UNL     1      12.157  55.324  49.314  1.00  0.00    -0.322 N 
HETATM   25  C   UNL     1      12.702  55.121  48.049  1.00  0.00     0.046 A 
HETATM   26  H   UNL     1      11.359  55.902  49.528  1.00  0.00     0.169 HD
HETATM   27  C   UNL     1      12.253  55.669  46.865  1.00  0.00     0.030 A 
HETATM   28  C   UNL     1      12.942  55.329  45.700  1.00  0.00     0.002 A 
HETATM   29  C   UNL     1      14.049  54.460  45.749  1.00  0.00     0.001 A 
HETATM   30  C   UNL     1      14.488  53.916  46.963  1.00  0.00     0.015 A 
ENDBRANCH   4  19
TORSDOF 6
ENDMDL
MODEL 10
REMARK VINA RESULT:      -7.8      3.195      7.791
REMARK  6 active torsions:
REMARK  status: ('A' for Active; 'I' for Inactive)
REMARK    1  A    between atoms: O_2  and  C_3 
REMARK    2  A    between atoms: C_3  and  C_4 
REMARK    3  A    between atoms: C_7  and  C_8 
REMARK    4  A    between atoms: C_8  and  O_9 
REMARK    5  A    between atoms: O_9  and  C_10 
REMARK    6  A    between atoms: C_13  and  C_14 
ROOT
HETATM    1  C   UNL     1      26.633  43.553  50.636  1.00  0.00     0.069 A 
HETATM    2  C   UNL     1      25.320  43.637  51.100  1.00  0.00     0.037 A 
HETATM    3  C   UNL     1      24.606  44.833  50.990  1.00  0.00     0.014 A 
HETATM    4  C   UNL     1      25.212  45.960  50.428  1.00  0.00    -0.035 A 
HETATM    5  C   UNL     1      26.548  45.892  50.020  1.00  0.00     0.014 A 
HETATM    6  C   UNL     1      27.261  44.693  50.132  1.00  0.00     0.037 A 
ENDROOT
BRANCH   1   7
HETATM    7  O   UNL     1      27.210  42.315  50.727  1.00  0.00    -0.347 OA
BRANCH   7   8
HETATM    8  C   UNL     1      27.120  41.690  52.011  1.00  0.00     0.214 C 
BRANCH   8   9
HETATM    9  C   UNL     1      27.995  42.430  53.000  1.00  0.00    -0.034 A 
HETATM   10  C   UNL     1      29.390  42.305  52.934  1.00  0.00     0.010 A 
HETATM   11  C   UNL     1      30.210  42.995  53.830  1.00  0.00     0.018 A 
HETATM   12  C   UNL     1      29.650  43.830  54.803  1.00  0.00     0.039 A 
HETATM   13  C   UNL     1      28.258  43.965  54.871  1.00  0.00     0.018 A 
HETATM   14  C   UNL     1      27.438  43.273  53.972  1.00  0.00     0.010 A 
BRANCH  12  15
HETATM   15  C   UNL     1      30.575  44.539  55.731  1.00  0.00     0.292 C 
HETATM   16  O   UNL     1      30.348  45.647  56.191  1.00  0.00    -0.259 OA
BRANCH  15  17
HETATM   17  O   UNL     1      31.672  43.785  55.988  1.00  0.00    -0.323 OA
HETATM   18  C   UNL     1      31.757  43.333  57.341  1.00  0.00     0.213 C 
ENDBRANCH  15  17
ENDBRANCH  12  15
ENDBRANCH   8   9
ENDBRANCH   7   8
ENDBRANCH   1   7
BRANCH   4  19
HETATM   19  C   UNL     1      24.439  47.181  50.218  1.00  0.00     0.029 C 
HETATM   20  C   UNL     1      23.459  47.362  49.323  1.00  0.00     0.045 A 
HETATM   21  C   UNL     1      22.776  48.703  49.223  1.00  0.00     0.257 A 
HETATM   22  C   UNL     1      22.842  46.487  48.323  1.00  0.00     0.006 A 
HETATM   23  O   UNL     1      22.996  49.699  49.887  1.00  0.00    -0.267 OA
HETATM   24  N   UNL     1      21.843  48.555  48.212  1.00  0.00    -0.322 N 
HETATM   25  C   UNL     1      21.872  47.268  47.681  1.00  0.00     0.046 A 
HETATM   26  H   UNL     1      21.232  49.302  47.920  1.00  0.00     0.169 HD
HETATM   27  C   UNL     1      21.074  46.783  46.665  1.00  0.00     0.030 A 
HETATM   28  C   UNL     1      21.261  45.453  46.286  1.00  0.00     0.002 A 
HETATM   29  C   UNL     1      22.229  44.653  46.922  1.00  0.00     0.001 A 
HETATM   30  C   UNL     1      23.029  45.168  47.950  1.00  0.00     0.015 A 
ENDBRANCH   4  19
TORSDOF 6
ENDMDL
