MODEL 1
REMARK VINA RESULT:      -8.8      0.000      0.000
REMARK  8 active torsions:
REMARK  status: ('A' for Active; 'I' for Inactive)
REMARK    1  A    between atoms: O_2  and  C_3 
REMARK    2  A    between atoms: C_4  and  N_5 
REMARK    3  A    between atoms: N_5  and  C_6 
REMARK    4  A    between atoms: C_6  and  N_7 
REMARK    5  A    between atoms: N_7  and  N_8 
REMARK       I    between atoms: N_8  and  C_9 
REMARK    6  A    between atoms: C_9  and  C_10 
REMARK    7  A    between atoms: N_13  and  C_15 
REMARK    8  A    between atoms: C_15  and  C_16 
ROOT
HETATM    1  N   UNL     1      24.262  45.361  51.204  1.00  0.00    -0.268 N 
HETATM    2  C   UNL     1      25.530  44.953  51.560  1.00  0.00     0.240 C 
HETATM    3  O   UNL     1      26.548  45.462  51.094  1.00  0.00    -0.271 OA
HETATM    4  H   UNL     1      23.430  45.153  51.746  1.00  0.00     0.190 HD
ENDROOT
BRANCH   1   5
HETATM    5  N   UNL     1      24.139  46.400  50.253  1.00  0.00    -0.274 N 
HETATM    6  H   UNL     1      25.022  46.862  50.030  1.00  0.00     0.189 HD
BRANCH   5   7
HETATM    7  C   UNL     1      23.305  46.266  49.158  1.00  0.00     0.191 C 
HETATM    8  S   UNL     1      22.419  44.898  48.759  1.00  0.00    -0.039 SA
BRANCH   7   9
HETATM    9  N   UNL     1      23.251  47.332  48.305  1.00  0.00    -0.330 N 
HETATM   10  H   UNL     1      23.679  47.179  47.395  1.00  0.00     0.168 HD
BRANCH   9  11
HETATM   11  C   UNL     1      22.647  48.603  48.431  1.00  0.00     0.068 A 
HETATM   12  C   UNL     1      23.468  49.665  48.870  1.00  0.00     0.095 A 
HETATM   13  C   UNL     1      22.943  50.957  48.950  1.00  0.00     0.039 A 
HETATM   14  C   UNL     1      21.615  51.197  48.594  1.00  0.00     0.003 A 
HETATM   15  C   UNL     1      20.809  50.153  48.149  1.00  0.00     0.002 A 
HETATM   16  C   UNL     1      21.323  48.859  48.064  1.00  0.00     0.032 A 
BRANCH  12  17
HETATM   17  O   UNL     1      24.762  49.322  49.186  1.00  0.00    -0.354 OA
HETATM   18  C   UNL     1      25.781  49.807  48.318  1.00  0.00     0.210 C 
ENDBRANCH  12  17
ENDBRANCH   9  11
ENDBRANCH   7   9
ENDBRANCH   5   7
ENDBRANCH   1   5
BRANCH   2  19
HETATM   19  C   UNL     1      25.609  43.811  52.580  1.00  0.00     0.082 C 
HETATM   20  C   UNL     1      25.247  44.343  53.975  1.00  0.00     0.042 C 
HETATM   21  C   UNL     1      26.279  45.351  54.479  1.00  0.00     0.236 C 
HETATM   22  N   UNL     1      27.660  44.726  54.491  1.00  0.00    -0.067 N 
HETATM   23  H   UNL     1      27.659  44.015  55.230  1.00  0.00     0.280 HD
HETATM   24  C   UNL     1      28.056  44.071  53.193  1.00  0.00     0.236 C 
HETATM   25  C   UNL     1      26.976  43.134  52.678  1.00  0.00     0.042 C 
BRANCH  22  26
HETATM   26  C   UNL     1      28.733  45.740  54.875  1.00  0.00     0.273 C 
BRANCH  26  27
HETATM   27  C   UNL     1      29.651  45.283  55.973  1.00  0.00    -0.033 A 
HETATM   28  C   UNL     1      29.620  45.891  57.235  1.00  0.00     0.009 A 
HETATM   29  C   UNL     1      30.481  45.458  58.246  1.00  0.00     0.001 A 
HETATM   30  C   UNL     1      31.378  44.420  58.002  1.00  0.00     0.000 A 
HETATM   31  C   UNL     1      31.416  43.809  56.752  1.00  0.00     0.001 A 
HETATM   32  C   UNL     1      30.559  44.236  55.740  1.00  0.00     0.009 A 
ENDBRANCH  26  27
ENDBRANCH  22  26
ENDBRANCH   2  19
TORSDOF 8
ENDMDL
MODEL 2
REMARK VINA RESULT:      -8.7      1.095      2.030
REMARK  8 active torsions:
REMARK  status: ('A' for Active; 'I' for Inactive)
REMARK    1  A    between atoms: O_2  and  C_3 
REMARK    2  A    between atoms: C_4  and  N_5 
REMARK    3  A    between atoms: N_5  and  C_6 
REMARK    4  A    between atoms: C_6  and  N_7 
REMARK    5  A    between atoms: N_7  and  N_8 
REMARK       I    between atoms: N_8  and  C_9 
REMARK    6  A    between atoms: C_9  and  C_10 
REMARK    7  A    between atoms: N_13  and  C_15 
REMARK    8  A    between atoms: C_15  and  C_16 
ROOT
HETATM    1  N   UNL     1      24.311  45.328  51.314  1.00  0.00    -0.268 N 
HETATM    2  C   UNL     1      25.574  44.830  51.552  1.00  0.00     0.240 C 
HETATM    3  O   UNL     1      26.574  45.253  50.976  1.00  0.00    -0.271 OA
HETATM    4  H   UNL     1      23.523  45.192  51.940  1.00  0.00     0.190 HD
ENDROOT
BRANCH   1   5
HETATM    5  N   UNL     1      24.170  46.359  50.356  1.00  0.00    -0.274 N 
HETATM    6  H   UNL     1      25.053  46.791  50.084  1.00  0.00     0.189 HD
BRANCH   5   7
HETATM    7  C   UNL     1      23.279  46.237  49.306  1.00  0.00     0.191 C 
HETATM    8  S   UNL     1      23.273  45.013  48.159  1.00  0.00    -0.039 SA
BRANCH   7   9
HETATM    9  N   UNL     1      22.361  47.240  49.172  1.00  0.00    -0.330 N 
HETATM   10  H   UNL     1      21.404  46.983  49.405  1.00  0.00     0.168 HD
BRANCH   9  11
HETATM   11  C   UNL     1      22.504  48.602  48.827  1.00  0.00     0.068 A 
HETATM   12  C   UNL     1      21.414  49.455  49.105  1.00  0.00     0.095 A 
HETATM   13  C   UNL     1      21.522  50.823  48.845  1.00  0.00     0.039 A 
HETATM   14  C   UNL     1      22.704  51.345  48.318  1.00  0.00     0.003 A 
HETATM   15  C   UNL     1      23.784  50.507  48.056  1.00  0.00     0.002 A 
HETATM   16  C   UNL     1      23.688  49.139  48.312  1.00  0.00     0.032 A 
BRANCH  12  17
HETATM   17  O   UNL     1      20.301  48.842  49.631  1.00  0.00    -0.354 OA
HETATM   18  C   UNL     1      19.151  49.659  49.822  1.00  0.00     0.210 C 
ENDBRANCH  12  17
ENDBRANCH   9  11
ENDBRANCH   7   9
ENDBRANCH   5   7
ENDBRANCH   1   5
BRANCH   2  19
HETATM   19  C   UNL     1      25.670  43.701  52.584  1.00  0.00     0.082 C 
HETATM   20  C   UNL     1      25.282  44.239  53.970  1.00  0.00     0.042 C 
HETATM   21  C   UNL     1      26.286  45.275  54.473  1.00  0.00     0.236 C 
HETATM   22  N   UNL     1      27.681  44.683  54.504  1.00  0.00    -0.067 N 
HETATM   23  H   UNL     1      27.689  43.979  55.251  1.00  0.00     0.280 HD
HETATM   24  C   UNL     1      28.104  44.024  53.217  1.00  0.00     0.236 C 
HETATM   25  C   UNL     1      27.051  43.056  52.702  1.00  0.00     0.042 C 
BRANCH  22  26
HETATM   26  C   UNL     1      28.726  45.725  54.887  1.00  0.00     0.273 C 
BRANCH  26  27
HETATM   27  C   UNL     1      29.649  45.297  55.993  1.00  0.00    -0.033 A 
HETATM   28  C   UNL     1      30.576  44.264  55.797  1.00  0.00     0.009 A 
HETATM   29  C   UNL     1      31.425  43.875  56.835  1.00  0.00     0.001 A 
HETATM   30  C   UNL     1      31.353  44.510  58.073  1.00  0.00     0.000 A 
HETATM   31  C   UNL     1      30.435  45.537  58.278  1.00  0.00     0.001 A 
HETATM   32  C   UNL     1      29.586  45.931  57.245  1.00  0.00     0.009 A 
ENDBRANCH  26  27
ENDBRANCH  22  26
ENDBRANCH   2  19
TORSDOF 8
ENDMDL
MODEL 3
REMARK VINA RESULT:      -8.5      1.662      2.707
REMARK  8 active torsions:
REMARK  status: ('A' for Active; 'I' for Inactive)
REMARK    1  A    between atoms: O_2  and  C_3 
REMARK    2  A    between atoms: C_4  and  N_5 
REMARK    3  A    between atoms: N_5  and  C_6 
REMARK    4  A    between atoms: C_6  and  N_7 
REMARK    5  A    between atoms: N_7  and  N_8 
REMARK       I    between atoms: N_8  and  C_9 
REMARK    6  A    between atoms: C_9  and  C_10 
REMARK    7  A    between atoms: N_13  and  C_15 
REMARK    8  A    between atoms: C_15  and  C_16 
ROOT
HETATM    1  N   UNL     1      23.344  46.467  49.191  1.00  0.00    -0.268 N 
HETATM    2  C   UNL     1      24.282  45.876  50.011  1.00  0.00     0.240 C 
HETATM    3  O   UNL     1      24.024  44.913  50.730  1.00  0.00    -0.271 OA
HETATM    4  H   UNL     1      23.578  47.075  48.412  1.00  0.00     0.190 HD
ENDROOT
BRANCH   1   5
HETATM    5  N   UNL     1      22.030  45.944  49.196  1.00  0.00    -0.274 N 
HETATM    6  H   UNL     1      21.600  45.918  50.121  1.00  0.00     0.189 HD
BRANCH   5   7
HETATM    7  C   UNL     1      21.135  46.260  48.190  1.00  0.00     0.191 C 
HETATM    8  S   UNL     1      19.867  45.295  47.665  1.00  0.00    -0.039 SA
BRANCH   7   9
HETATM    9  N   UNL     1      21.348  47.442  47.540  1.00  0.00    -0.330 N 
HETATM   10  H   UNL     1      21.708  47.354  46.592  1.00  0.00     0.168 HD
BRANCH   9  11
HETATM   11  C   UNL     1      21.100  48.779  47.921  1.00  0.00     0.068 A 
HETATM   12  C   UNL     1      22.220  49.627  48.061  1.00  0.00     0.095 A 
HETATM   13  C   UNL     1      22.032  50.976  48.372  1.00  0.00     0.039 A 
HETATM   14  C   UNL     1      20.742  51.484  48.538  1.00  0.00     0.003 A 
HETATM   15  C   UNL     1      19.637  50.651  48.387  1.00  0.00     0.002 A 
HETATM   16  C   UNL     1      19.813  49.302  48.076  1.00  0.00     0.032 A 
BRANCH  12  17
HETATM   17  O   UNL     1      23.444  49.030  47.867  1.00  0.00    -0.354 OA
HETATM   18  C   UNL     1      24.589  49.772  48.273  1.00  0.00     0.210 C 
ENDBRANCH  12  17
ENDBRANCH   9  11
ENDBRANCH   7   9
ENDBRANCH   5   7
ENDBRANCH   1   5
BRANCH   2  19
HETATM   19  C   UNL     1      25.685  46.493  49.983  1.00  0.00     0.082 C 
HETATM   20  C   UNL     1      26.726  45.389  49.743  1.00  0.00     0.042 C 
HETATM   21  C   UNL     1      26.785  44.406  50.912  1.00  0.00     0.236 C 
HETATM   22  N   UNL     1      27.081  45.144  52.202  1.00  0.00    -0.067 N 
HETATM   23  H   UNL     1      28.049  45.479  52.139  1.00  0.00     0.280 HD
HETATM   24  C   UNL     1      26.180  46.323  52.464  1.00  0.00     0.236 C 
HETATM   25  C   UNL     1      26.081  47.240  51.257  1.00  0.00     0.042 C 
BRANCH  22  26
HETATM   26  C   UNL     1      27.029  44.211  53.408  1.00  0.00     0.273 C 
BRANCH  26  27
HETATM   27  C   UNL     1      28.287  44.192  54.229  1.00  0.00    -0.033 A 
HETATM   28  C   UNL     1      29.213  43.147  54.101  1.00  0.00     0.009 A 
HETATM   29  C   UNL     1      30.377  43.141  54.873  1.00  0.00     0.001 A 
HETATM   30  C   UNL     1      30.622  44.172  55.777  1.00  0.00     0.000 A 
HETATM   31  C   UNL     1      29.709  45.214  55.912  1.00  0.00     0.001 A 
HETATM   32  C   UNL     1      28.546  45.226  55.143  1.00  0.00     0.009 A 
ENDBRANCH  26  27
ENDBRANCH  22  26
ENDBRANCH   2  19
TORSDOF 8
ENDMDL
MODEL 4
REMARK VINA RESULT:      -8.5      2.436      3.671
REMARK  8 active torsions:
REMARK  status: ('A' for Active; 'I' for Inactive)
REMARK    1  A    between atoms: O_2  and  C_3 
REMARK    2  A    between atoms: C_4  and  N_5 
REMARK    3  A    between atoms: N_5  and  C_6 
REMARK    4  A    between atoms: C_6  and  N_7 
REMARK    5  A    between atoms: N_7  and  N_8 
REMARK       I    between atoms: N_8  and  C_9 
REMARK    6  A    between atoms: C_9  and  C_10 
REMARK    7  A    between atoms: N_13  and  C_15 
REMARK    8  A    between atoms: C_15  and  C_16 
ROOT
HETATM    1  N   UNL     1      23.638  46.993  49.600  1.00  0.00    -0.268 N 
HETATM    2  C   UNL     1      24.871  46.672  50.127  1.00  0.00     0.240 C 
HETATM    3  O   UNL     1      25.508  47.440  50.843  1.00  0.00    -0.271 OA
HETATM    4  H   UNL     1      22.984  46.307  49.235  1.00  0.00     0.190 HD
ENDROOT
BRANCH   1   5
HETATM    5  N   UNL     1      23.100  48.268  49.892  1.00  0.00    -0.274 N 
HETATM    6  H   UNL     1      23.807  48.976  50.093  1.00  0.00     0.189 HD
BRANCH   5   7
HETATM    7  C   UNL     1      22.021  48.764  49.183  1.00  0.00     0.191 C 
HETATM    8  S   UNL     1      21.475  48.198  47.701  1.00  0.00    -0.039 SA
BRANCH   7   9
HETATM    9  N   UNL     1      21.387  49.845  49.725  1.00  0.00    -0.330 N 
HETATM   10  H   UNL     1      21.876  50.289  50.500  1.00  0.00     0.168 HD
BRANCH   9  11
HETATM   11  C   UNL     1      20.192  50.508  49.367  1.00  0.00     0.068 A 
HETATM   12  C   UNL     1      18.978  49.904  49.758  1.00  0.00     0.095 A 
HETATM   13  C   UNL     1      17.767  50.547  49.488  1.00  0.00     0.039 A 
HETATM   14  C   UNL     1      17.759  51.782  48.840  1.00  0.00     0.003 A 
HETATM   15  C   UNL     1      18.957  52.385  48.466  1.00  0.00     0.002 A 
HETATM   16  C   UNL     1      20.172  51.752  48.730  1.00  0.00     0.032 A 
BRANCH  12  17
HETATM   17  O   UNL     1      19.098  48.693  50.399  1.00  0.00    -0.354 OA
HETATM   18  C   UNL     1      18.643  48.635  51.747  1.00  0.00     0.210 C 
ENDBRANCH  12  17
ENDBRANCH   9  11
ENDBRANCH   7   9
ENDBRANCH   5   7
ENDBRANCH   1   5
BRANCH   2  19
HETATM   19  C   UNL     1      25.417  45.286  49.765  1.00  0.00     0.082 C 
HETATM   20  C   UNL     1      24.574  44.204  50.460  1.00  0.00     0.042 C 
HETATM   21  C   UNL     1      24.720  44.267  51.980  1.00  0.00     0.236 C 
HETATM   22  N   UNL     1      26.178  44.137  52.372  1.00  0.00    -0.067 N 
HETATM   23  H   UNL     1      26.461  43.174  52.157  1.00  0.00     0.280 HD
HETATM   24  C   UNL     1      27.102  45.082  51.650  1.00  0.00     0.236 C 
HETATM   25  C   UNL     1      26.880  45.055  50.146  1.00  0.00     0.042 C 
BRANCH  22  26
HETATM   26  C   UNL     1      26.374  44.314  53.874  1.00  0.00     0.273 C 
BRANCH  26  27
HETATM   27  C   UNL     1      27.786  44.102  54.343  1.00  0.00    -0.033 A 
HETATM   28  C   UNL     1      28.486  42.934  54.009  1.00  0.00     0.009 A 
HETATM   29  C   UNL     1      29.796  42.748  54.453  1.00  0.00     0.001 A 
HETATM   30  C   UNL     1      30.414  43.722  55.235  1.00  0.00     0.000 A 
HETATM   31  C   UNL     1      29.728  44.885  55.572  1.00  0.00     0.001 A 
HETATM   32  C   UNL     1      28.420  45.077  55.130  1.00  0.00     0.009 A 
ENDBRANCH  26  27
ENDBRANCH  22  26
ENDBRANCH   2  19
TORSDOF 8
ENDMDL
MODEL 5
REMARK VINA RESULT:      -8.3      3.065      7.943
REMARK  8 active torsions:
REMARK  status: ('A' for Active; 'I' for Inactive)
REMARK    1  A    between atoms: O_2  and  C_3 
REMARK    2  A    between atoms: C_4  and  N_5 
REMARK    3  A    between atoms: N_5  and  C_6 
REMARK    4  A    between atoms: C_6  and  N_7 
REMARK    5  A    between atoms: N_7  and  N_8 
REMARK       I    between atoms: N_8  and  C_9 
REMARK    6  A    between atoms: C_9  and  C_10 
REMARK    7  A    between atoms: N_13  and  C_15 
REMARK    8  A    between atoms: C_15  and  C_16 
ROOT
HETATM    1  N   UNL     1      26.363  42.091  52.359  1.00  0.00    -0.268 N 
HETATM    2  C   UNL     1      26.474  42.048  50.985  1.00  0.00     0.240 C 
HETATM    3  O   UNL     1      27.500  41.691  50.412  1.00  0.00    -0.271 OA
HETATM    4  H   UNL     1      25.477  42.126  52.853  1.00  0.00     0.190 HD
ENDROOT
BRANCH   1   5
HETATM    5  N   UNL     1      27.488  41.718  53.130  1.00  0.00    -0.274 N 
HETATM    6  H   UNL     1      27.937  40.858  52.814  1.00  0.00     0.189 HD
BRANCH   5   7
HETATM    7  C   UNL     1      28.388  42.667  53.580  1.00  0.00     0.191 C 
HETATM    8  S   UNL     1      29.925  42.933  52.962  1.00  0.00    -0.039 SA
BRANCH   7   9
HETATM    9  N   UNL     1      27.998  43.408  54.658  1.00  0.00    -0.330 N 
HETATM   10  H   UNL     1      28.043  42.925  55.553  1.00  0.00     0.168 HD
BRANCH   9  11
HETATM   11  C   UNL     1      27.597  44.758  54.773  1.00  0.00     0.068 A 
HETATM   12  C   UNL     1      28.526  45.658  55.338  1.00  0.00     0.095 A 
HETATM   13  C   UNL     1      28.210  47.017  55.418  1.00  0.00     0.039 A 
HETATM   14  C   UNL     1      26.985  47.482  54.937  1.00  0.00     0.003 A 
HETATM   15  C   UNL     1      26.074  46.595  54.368  1.00  0.00     0.002 A 
HETATM   16  C   UNL     1      26.379  45.237  54.282  1.00  0.00     0.032 A 
BRANCH  12  17
HETATM   17  O   UNL     1      29.705  45.100  55.772  1.00  0.00    -0.354 OA
HETATM   18  C   UNL     1      30.352  45.742  56.866  1.00  0.00     0.210 C 
ENDBRANCH  12  17
ENDBRANCH   9  11
ENDBRANCH   7   9
ENDBRANCH   5   7
ENDBRANCH   1   5
BRANCH   2  19
HETATM   19  C   UNL     1      25.232  42.481  50.196  1.00  0.00     0.082 C 
HETATM   20  C   UNL     1      25.664  43.310  48.976  1.00  0.00     0.042 C 
HETATM   21  C   UNL     1      26.308  44.631  49.392  1.00  0.00     0.236 C 
HETATM   22  N   UNL     1      25.358  45.426  50.265  1.00  0.00    -0.067 N 
HETATM   23  H   UNL     1      24.584  45.731  49.663  1.00  0.00     0.280 HD
HETATM   24  C   UNL     1      24.788  44.654  51.426  1.00  0.00     0.236 C 
HETATM   25  C   UNL     1      24.225  43.310  50.993  1.00  0.00     0.042 C 
BRANCH  22  26
HETATM   26  C   UNL     1      26.012  46.697  50.797  1.00  0.00     0.273 C 
BRANCH  26  27
HETATM   27  C   UNL     1      25.934  47.871  49.861  1.00  0.00    -0.033 A 
HETATM   28  C   UNL     1      27.092  48.558  49.472  1.00  0.00     0.009 A 
HETATM   29  C   UNL     1      27.004  49.648  48.604  1.00  0.00     0.001 A 
HETATM   30  C   UNL     1      25.763  50.062  48.124  1.00  0.00     0.000 A 
HETATM   31  C   UNL     1      24.607  49.386  48.505  1.00  0.00     0.001 A 
HETATM   32  C   UNL     1      24.688  48.296  49.370  1.00  0.00     0.009 A 
ENDBRANCH  26  27
ENDBRANCH  22  26
ENDBRANCH   2  19
TORSDOF 8
ENDMDL
MODEL 6
REMARK VINA RESULT:      -8.3     12.534     15.179
REMARK  8 active torsions:
REMARK  status: ('A' for Active; 'I' for Inactive)
REMARK    1  A    between atoms: O_2  and  C_3 
REMARK    2  A    between atoms: C_4  and  N_5 
REMARK    3  A    between atoms: N_5  and  C_6 
REMARK    4  A    between atoms: C_6  and  N_7 
REMARK    5  A    between atoms: N_7  and  N_8 
REMARK       I    between atoms: N_8  and  C_9 
REMARK    6  A    between atoms: C_9  and  C_10 
REMARK    7  A    between atoms: N_13  and  C_15 
REMARK    8  A    between atoms: C_15  and  C_16 
ROOT
HETATM    1  N   UNL     1      32.661  53.036  40.172  1.00  0.00    -0.268 N 
HETATM    2  C   UNL     1      31.403  52.477  40.092  1.00  0.00     0.240 C 
HETATM    3  O   UNL     1      31.198  51.367  39.606  1.00  0.00    -0.271 OA
HETATM    4  H   UNL     1      32.897  53.810  40.786  1.00  0.00     0.190 HD
ENDROOT
BRANCH   1   5
HETATM    5  N   UNL     1      33.752  52.297  39.659  1.00  0.00    -0.274 N 
HETATM    6  H   UNL     1      33.967  52.504  38.683  1.00  0.00     0.189 HD
BRANCH   5   7
HETATM    7  C   UNL     1      34.880  52.068  40.426  1.00  0.00     0.191 C 
HETATM    8  S   UNL     1      36.424  52.636  40.097  1.00  0.00    -0.039 SA
BRANCH   7   9
HETATM    9  N   UNL     1      34.717  51.261  41.515  1.00  0.00    -0.330 N 
HETATM   10  H   UNL     1      35.389  51.407  42.266  1.00  0.00     0.168 HD
BRANCH   9  11
HETATM   11  C   UNL     1      33.738  50.291  41.826  1.00  0.00     0.068 A 
HETATM   12  C   UNL     1      32.727  50.666  42.737  1.00  0.00     0.095 A 
HETATM   13  C   UNL     1      31.695  49.771  43.032  1.00  0.00     0.039 A 
HETATM   14  C   UNL     1      31.662  48.514  42.425  1.00  0.00     0.003 A 
HETATM   15  C   UNL     1      32.652  48.149  41.516  1.00  0.00     0.002 A 
HETATM   16  C   UNL     1      33.686  49.035  41.214  1.00  0.00     0.032 A 
BRANCH  12  17
HETATM   17  O   UNL     1      32.847  51.928  43.270  1.00  0.00    -0.354 OA
HETATM   18  C   UNL     1      32.718  52.039  44.684  1.00  0.00     0.210 C 
ENDBRANCH  12  17
ENDBRANCH   9  11
ENDBRANCH   7   9
ENDBRANCH   5   7
ENDBRANCH   1   5
BRANCH   2  19
HETATM   19  C   UNL     1      30.253  53.327  40.645  1.00  0.00     0.082 C 
HETATM   20  C   UNL     1      29.543  52.560  41.771  1.00  0.00     0.042 C 
HETATM   21  C   UNL     1      28.848  51.304  41.246  1.00  0.00     0.236 C 
HETATM   22  N   UNL     1      27.865  51.669  40.151  1.00  0.00    -0.067 N 
HETATM   23  H   UNL     1      27.097  52.182  40.598  1.00  0.00     0.280 HD
HETATM   24  C   UNL     1      28.445  52.526  39.056  1.00  0.00     0.236 C 
HETATM   25  C   UNL     1      29.197  53.724  39.612  1.00  0.00     0.042 C 
BRANCH  22  26
HETATM   26  C   UNL     1      27.240  50.428  39.521  1.00  0.00     0.273 C 
BRANCH  26  27
HETATM   27  C   UNL     1      28.095  49.195  39.602  1.00  0.00    -0.033 A 
HETATM   28  C   UNL     1      27.867  48.226  40.588  1.00  0.00     0.009 A 
HETATM   29  C   UNL     1      28.671  47.086  40.653  1.00  0.00     0.001 A 
HETATM   30  C   UNL     1      29.708  46.909  39.740  1.00  0.00     0.000 A 
HETATM   31  C   UNL     1      29.943  47.866  38.757  1.00  0.00     0.001 A 
HETATM   32  C   UNL     1      29.143  49.005  38.686  1.00  0.00     0.009 A 
ENDBRANCH  26  27
ENDBRANCH  22  26
ENDBRANCH   2  19
TORSDOF 8
ENDMDL
MODEL 7
REMARK VINA RESULT:      -8.3      1.993      3.227
REMARK  8 active torsions:
REMARK  status: ('A' for Active; 'I' for Inactive)
REMARK    1  A    between atoms: O_2  and  C_3 
REMARK    2  A    between atoms: C_4  and  N_5 
REMARK    3  A    between atoms: N_5  and  C_6 
REMARK    4  A    between atoms: C_6  and  N_7 
REMARK    5  A    between atoms: N_7  and  N_8 
REMARK       I    between atoms: N_8  and  C_9 
REMARK    6  A    between atoms: C_9  and  C_10 
REMARK    7  A    between atoms: N_13  and  C_15 
REMARK    8  A    between atoms: C_15  and  C_16 
ROOT
HETATM    1  N   UNL     1      23.076  44.512  48.974  1.00  0.00    -0.268 N 
HETATM    2  C   UNL     1      24.173  45.108  49.559  1.00  0.00     0.240 C 
HETATM    3  O   UNL     1      24.084  46.091  50.291  1.00  0.00    -0.271 OA
HETATM    4  H   UNL     1      23.081  43.572  48.591  1.00  0.00     0.190 HD
ENDROOT
BRANCH   1   5
HETATM    5  N   UNL     1      21.801  45.072  49.224  1.00  0.00    -0.274 N 
HETATM    6  H   UNL     1      21.555  45.112  50.213  1.00  0.00     0.189 HD
BRANCH   5   7
HETATM    7  C   UNL     1      21.354  46.169  48.509  1.00  0.00     0.191 C 
HETATM    8  S   UNL     1      20.891  46.168  46.896  1.00  0.00    -0.039 SA
BRANCH   7   9
HETATM    9  N   UNL     1      21.344  47.361  49.175  1.00  0.00    -0.330 N 
HETATM   10  H   UNL     1      20.891  47.344  50.086  1.00  0.00     0.168 HD
BRANCH   9  11
HETATM   11  C   UNL     1      21.910  48.616  48.857  1.00  0.00     0.068 A 
HETATM   12  C   UNL     1      21.192  49.765  49.256  1.00  0.00     0.095 A 
HETATM   13  C   UNL     1      21.733  51.032  49.028  1.00  0.00     0.039 A 
HETATM   14  C   UNL     1      22.979  51.162  48.412  1.00  0.00     0.003 A 
HETATM   15  C   UNL     1      23.693  50.029  48.030  1.00  0.00     0.002 A 
HETATM   16  C   UNL     1      23.163  48.759  48.254  1.00  0.00     0.032 A 
BRANCH  12  17
HETATM   17  O   UNL     1      19.981  49.526  49.862  1.00  0.00    -0.354 OA
HETATM   18  C   UNL     1      19.010  50.565  49.783  1.00  0.00     0.210 C 
ENDBRANCH  12  17
ENDBRANCH   9  11
ENDBRANCH   7   9
ENDBRANCH   5   7
ENDBRANCH   1   5
BRANCH   2  19
HETATM   19  C   UNL     1      25.532  44.475  49.241  1.00  0.00     0.082 C 
HETATM   20  C   UNL     1      25.570  43.039  49.789  1.00  0.00     0.042 C 
HETATM   21  C   UNL     1      25.508  43.018  51.316  1.00  0.00     0.236 C 
HETATM   22  N   UNL     1      26.640  43.839  51.898  1.00  0.00    -0.067 N 
HETATM   23  H   UNL     1      27.510  43.331  51.700  1.00  0.00     0.280 HD
HETATM   24  C   UNL     1      26.756  45.229  51.330  1.00  0.00     0.236 C 
HETATM   25  C   UNL     1      26.737  45.225  49.810  1.00  0.00     0.042 C 
BRANCH  22  26
HETATM   26  C   UNL     1      26.540  43.938  53.417  1.00  0.00     0.273 C 
BRANCH  26  27
HETATM   27  C   UNL     1      27.866  44.002  54.121  1.00  0.00    -0.033 A 
HETATM   28  C   UNL     1      28.818  42.987  53.953  1.00  0.00     0.009 A 
HETATM   29  C   UNL     1      30.045  43.058  54.616  1.00  0.00     0.001 A 
HETATM   30  C   UNL     1      30.328  44.137  55.451  1.00  0.00     0.000 A 
HETATM   31  C   UNL     1      29.389  45.150  55.625  1.00  0.00     0.001 A 
HETATM   32  C   UNL     1      28.163  45.085  54.965  1.00  0.00     0.009 A 
ENDBRANCH  26  27
ENDBRANCH  22  26
ENDBRANCH   2  19
TORSDOF 8
ENDMDL
MODEL 8
REMARK VINA RESULT:      -8.0      3.924      6.953
REMARK  8 active torsions:
REMARK  status: ('A' for Active; 'I' for Inactive)
REMARK    1  A    between atoms: O_2  and  C_3 
REMARK    2  A    between atoms: C_4  and  N_5 
REMARK    3  A    between atoms: N_5  and  C_6 
REMARK    4  A    between atoms: C_6  and  N_7 
REMARK    5  A    between atoms: N_7  and  N_8 
REMARK       I    between atoms: N_8  and  C_9 
REMARK    6  A    between atoms: C_9  and  C_10 
REMARK    7  A    between atoms: N_13  and  C_15 
REMARK    8  A    between atoms: C_15  and  C_16 
ROOT
HETATM    1  N   UNL     1      24.958  43.247  49.048  1.00  0.00    -0.268 N 
HETATM    2  C   UNL     1      24.591  43.642  50.317  1.00  0.00     0.240 C 
HETATM    3  O   UNL     1      23.886  42.952  51.050  1.00  0.00    -0.271 OA
HETATM    4  H   UNL     1      25.731  43.655  48.531  1.00  0.00     0.190 HD
ENDROOT
BRANCH   1   5
HETATM    5  N   UNL     1      24.488  41.999  48.576  1.00  0.00    -0.274 N 
HETATM    6  H   UNL     1      23.478  41.881  48.663  1.00  0.00     0.189 HD
BRANCH   5   7
HETATM    7  C   UNL     1      25.003  41.434  47.424  1.00  0.00     0.191 C 
HETATM    8  S   UNL     1      24.107  40.817  46.146  1.00  0.00    -0.039 SA
BRANCH   7   9
HETATM    9  N   UNL     1      26.363  41.328  47.358  1.00  0.00    -0.330 N 
HETATM   10  H   UNL     1      26.852  42.185  47.111  1.00  0.00     0.168 HD
BRANCH   9  11
HETATM   11  C   UNL     1      27.233  40.250  47.635  1.00  0.00     0.068 A 
HETATM   12  C   UNL     1      27.682  40.110  48.966  1.00  0.00     0.095 A 
HETATM   13  C   UNL     1      28.492  39.026  49.312  1.00  0.00     0.039 A 
HETATM   14  C   UNL     1      28.852  38.083  48.348  1.00  0.00     0.003 A 
HETATM   15  C   UNL     1      28.398  38.213  47.038  1.00  0.00     0.002 A 
HETATM   16  C   UNL     1      27.588  39.292  46.681  1.00  0.00     0.032 A 
BRANCH  12  17
HETATM   17  O   UNL     1      27.263  41.087  49.838  1.00  0.00    -0.354 OA
HETATM   18  C   UNL     1      26.674  40.646  51.058  1.00  0.00     0.210 C 
ENDBRANCH  12  17
ENDBRANCH   9  11
ENDBRANCH   7   9
ENDBRANCH   5   7
ENDBRANCH   1   5
BRANCH   2  19
HETATM   19  C   UNL     1      25.111  45.010  50.773  1.00  0.00     0.082 C 
HETATM   20  C   UNL     1      26.584  45.162  50.360  1.00  0.00     0.042 C 
HETATM   21  C   UNL     1      27.481  44.168  51.098  1.00  0.00     0.236 C 
HETATM   22  N   UNL     1      27.329  44.336  52.596  1.00  0.00    -0.067 N 
HETATM   23  H   UNL     1      27.747  45.242  52.839  1.00  0.00     0.280 HD
HETATM   24  C   UNL     1      25.903  44.319  53.082  1.00  0.00     0.236 C 
HETATM   25  C   UNL     1      25.019  45.260  52.278  1.00  0.00     0.042 C 
BRANCH  22  26
HETATM   26  C   UNL     1      28.119  43.281  53.363  1.00  0.00     0.273 C 
BRANCH  26  27
HETATM   27  C   UNL     1      29.023  43.838  54.427  1.00  0.00    -0.033 A 
HETATM   28  C   UNL     1      30.126  43.106  54.888  1.00  0.00     0.009 A 
HETATM   29  C   UNL     1      30.956  43.635  55.879  1.00  0.00     0.001 A 
HETATM   30  C   UNL     1      30.690  44.892  56.416  1.00  0.00     0.000 A 
HETATM   31  C   UNL     1      29.597  45.627  55.965  1.00  0.00     0.001 A 
HETATM   32  C   UNL     1      28.765  45.105  54.976  1.00  0.00     0.009 A 
ENDBRANCH  26  27
ENDBRANCH  22  26
ENDBRANCH   2  19
TORSDOF 8
ENDMDL
MODEL 9
REMARK VINA RESULT:      -8.0      2.334     10.183
REMARK  8 active torsions:
REMARK  status: ('A' for Active; 'I' for Inactive)
REMARK    1  A    between atoms: O_2  and  C_3 
REMARK    2  A    between atoms: C_4  and  N_5 
REMARK    3  A    between atoms: N_5  and  C_6 
REMARK    4  A    between atoms: C_6  and  N_7 
REMARK    5  A    between atoms: N_7  and  N_8 
REMARK       I    between atoms: N_8  and  C_9 
REMARK    6  A    between atoms: C_9  and  C_10 
REMARK    7  A    between atoms: N_13  and  C_15 
REMARK    8  A    between atoms: C_15  and  C_16 
ROOT
HETATM    1  N   UNL     1      23.755  46.123  49.947  1.00  0.00    -0.268 N 
HETATM    2  C   UNL     1      23.897  47.467  49.678  1.00  0.00     0.240 C 
HETATM    3  O   UNL     1      24.448  48.246  50.453  1.00  0.00    -0.271 OA
HETATM    4  H   UNL     1      23.548  45.424  49.240  1.00  0.00     0.190 HD
ENDROOT
BRANCH   1   5
HETATM    5  N   UNL     1      24.257  45.632  51.175  1.00  0.00    -0.274 N 
HETATM    6  H   UNL     1      23.807  46.039  51.996  1.00  0.00     0.189 HD
BRANCH   5   7
HETATM    7  C   UNL     1      24.565  44.293  51.333  1.00  0.00     0.191 C 
HETATM    8  S   UNL     1      24.337  43.091  50.185  1.00  0.00    -0.039 SA
BRANCH   7   9
HETATM    9  N   UNL     1      25.047  43.924  52.556  1.00  0.00    -0.330 N 
HETATM   10  H   UNL     1      24.378  43.451  53.159  1.00  0.00     0.168 HD
BRANCH   9  11
HETATM   11  C   UNL     1      26.337  44.022  53.124  1.00  0.00     0.068 A 
HETATM   12  C   UNL     1      26.612  45.166  53.905  1.00  0.00     0.095 A 
HETATM   13  C   UNL     1      27.847  45.285  54.545  1.00  0.00     0.039 A 
HETATM   14  C   UNL     1      28.804  44.277  54.418  1.00  0.00     0.003 A 
HETATM   15  C   UNL     1      28.528  43.142  53.659  1.00  0.00     0.002 A 
HETATM   16  C   UNL     1      27.297  43.012  53.015  1.00  0.00     0.032 A 
BRANCH  12  17
HETATM   17  O   UNL     1      25.599  46.094  53.973  1.00  0.00    -0.354 OA
HETATM   18  C   UNL     1      25.989  47.462  54.034  1.00  0.00     0.210 C 
ENDBRANCH  12  17
ENDBRANCH   9  11
ENDBRANCH   7   9
ENDBRANCH   5   7
ENDBRANCH   1   5
BRANCH   2  19
HETATM   19  C   UNL     1      23.318  47.952  48.343  1.00  0.00     0.082 C 
HETATM   20  C   UNL     1      23.248  49.487  48.342  1.00  0.00     0.042 C 
HETATM   21  C   UNL     1      22.252  50.006  49.379  1.00  0.00     0.236 C 
HETATM   22  N   UNL     1      20.880  49.411  49.133  1.00  0.00    -0.067 N 
HETATM   23  H   UNL     1      20.530  49.820  48.259  1.00  0.00     0.280 HD
HETATM   24  C   UNL     1      20.869  47.910  49.000  1.00  0.00     0.236 C 
HETATM   25  C   UNL     1      21.922  47.419  48.020  1.00  0.00     0.042 C 
BRANCH  22  26
HETATM   26  C   UNL     1      19.889  49.813  50.219  1.00  0.00     0.273 C 
BRANCH  26  27
HETATM   27  C   UNL     1      18.694  50.573  49.716  1.00  0.00    -0.033 A 
HETATM   28  C   UNL     1      17.658  49.915  49.039  1.00  0.00     0.009 A 
HETATM   29  C   UNL     1      16.555  50.633  48.574  1.00  0.00     0.001 A 
HETATM   30  C   UNL     1      16.480  52.010  48.777  1.00  0.00     0.000 A 
HETATM   31  C   UNL     1      17.504  52.672  49.448  1.00  0.00     0.001 A 
HETATM   32  C   UNL     1      18.607  51.960  49.916  1.00  0.00     0.009 A 
ENDBRANCH  26  27
ENDBRANCH  22  26
ENDBRANCH   2  19
TORSDOF 8
ENDMDL
MODEL 10
REMARK VINA RESULT:      -8.0      1.611      2.299
REMARK  8 active torsions:
REMARK  status: ('A' for Active; 'I' for Inactive)
REMARK    1  A    between atoms: O_2  and  C_3 
REMARK    2  A    between atoms: C_4  and  N_5 
REMARK    3  A    between atoms: N_5  and  C_6 
REMARK    4  A    between atoms: C_6  and  N_7 
REMARK    5  A    between atoms: N_7  and  N_8 
REMARK       I    between atoms: N_8  and  C_9 
REMARK    6  A    between atoms: C_9  and  C_10 
REMARK    7  A    between atoms: N_13  and  C_15 
REMARK    8  A    between atoms: C_15  and  C_16 
ROOT
HETATM    1  N   UNL     1      24.559  45.237  51.257  1.00  0.00    -0.268 N 
HETATM    2  C   UNL     1      25.158  44.441  52.210  1.00  0.00     0.240 C 
HETATM    3  O   UNL     1      25.781  43.420  51.928  1.00  0.00    -0.271 OA
HETATM    4  H   UNL     1      24.272  46.197  51.423  1.00  0.00     0.190 HD
ENDROOT
BRANCH   1   5
HETATM    5  N   UNL     1      24.661  44.845  49.902  1.00  0.00    -0.274 N 
HETATM    6  H   UNL     1      25.573  44.462  49.652  1.00  0.00     0.189 HD
BRANCH   5   7
HETATM    7  C   UNL     1      23.611  44.209  49.265  1.00  0.00     0.191 C 
HETATM    8  S   UNL     1      23.148  42.613  49.490  1.00  0.00    -0.039 SA
BRANCH   7   9
HETATM    9  N   UNL     1      22.935  44.944  48.332  1.00  0.00    -0.330 N 
HETATM   10  H   UNL     1      23.193  44.757  47.365  1.00  0.00     0.168 HD
BRANCH   9  11
HETATM   11  C   UNL     1      21.886  45.882  48.458  1.00  0.00     0.068 A 
HETATM   12  C   UNL     1      22.249  47.222  48.713  1.00  0.00     0.095 A 
HETATM   13  C   UNL     1      21.258  48.205  48.782  1.00  0.00     0.039 A 
HETATM   14  C   UNL     1      19.918  47.864  48.595  1.00  0.00     0.003 A 
HETATM   15  C   UNL     1      19.561  46.544  48.331  1.00  0.00     0.002 A 
HETATM   16  C   UNL     1      20.542  45.554  48.259  1.00  0.00     0.032 A 
BRANCH  12  17
HETATM   17  O   UNL     1      23.595  47.452  48.871  1.00  0.00    -0.354 OA
HETATM   18  C   UNL     1      23.965  48.683  49.485  1.00  0.00     0.210 C 
ENDBRANCH  12  17
ENDBRANCH   9  11
ENDBRANCH   7   9
ENDBRANCH   5   7
ENDBRANCH   1   5
BRANCH   2  19
HETATM   19  C   UNL     1      25.002  44.899  53.665  1.00  0.00     0.082 C 
HETATM   20  C   UNL     1      25.811  46.187  53.887  1.00  0.00     0.042 C 
HETATM   21  C   UNL     1      27.312  45.941  53.743  1.00  0.00     0.236 C 
HETATM   22  N   UNL     1      27.761  44.860  54.705  1.00  0.00    -0.067 N 
HETATM   23  H   UNL     1      27.686  45.252  55.651  1.00  0.00     0.280 HD
HETATM   24  C   UNL     1      26.945  43.595  54.642  1.00  0.00     0.236 C 
HETATM   25  C   UNL     1      25.453  43.878  54.709  1.00  0.00     0.042 C 
BRANCH  22  26
HETATM   26  C   UNL     1      29.230  44.504  54.506  1.00  0.00     0.273 C 
BRANCH  26  27
HETATM   27  C   UNL     1      30.043  44.505  55.770  1.00  0.00    -0.033 A 
HETATM   28  C   UNL     1      30.978  43.492  56.023  1.00  0.00     0.009 A 
HETATM   29  C   UNL     1      31.725  43.503  57.203  1.00  0.00     0.001 A 
HETATM   30  C   UNL     1      31.541  44.520  58.137  1.00  0.00     0.000 A 
HETATM   31  C   UNL     1      30.615  45.530  57.896  1.00  0.00     0.001 A 
HETATM   32  C   UNL     1      29.867  45.525  56.719  1.00  0.00     0.009 A 
ENDBRANCH  26  27
ENDBRANCH  22  26
ENDBRANCH   2  19
TORSDOF 8
ENDMDL
