MODEL 1
REMARK VINA RESULT:      -8.9      0.000      0.000
REMARK  11 active torsions:
REMARK  status: ('A' for Active; 'I' for Inactive)
REMARK    1  A    between atoms: O_2  and  C_3 
REMARK    2  A    between atoms: C_6  and  C_7 
REMARK    3  A    between atoms: C_7  and  S_8 
REMARK    4  A    between atoms: C_7  and  C_22 
REMARK    5  A    between atoms: S_8  and  C_9 
REMARK    6  A    between atoms: C_12  and  C_13 
REMARK    7  A    between atoms: C_22  and  C_23 
REMARK       I    between atoms: C_23  and  N_24 
REMARK    8  A    between atoms: N_24  and  C_25 
REMARK    9  A    between atoms: C_25  and  C_26 
REMARK   10  A    between atoms: C_26  and  C_27 
REMARK   11  A    between atoms: C_27  and  N_28 
ROOT
HETATM    1  C   UNL     1      25.881  47.489  50.397  1.00  0.00     0.097 C 
ENDROOT
BRANCH   1   2
HETATM    2  C   UNL     1      24.888  48.267  49.533  1.00  0.00    -0.043 A 
HETATM    3  C   UNL     1      25.338  49.362  48.775  1.00  0.00     0.011 A 
HETATM    4  C   UNL     1      24.449  50.130  48.012  1.00  0.00     0.037 A 
HETATM    5  C   UNL     1      23.091  49.822  47.996  1.00  0.00     0.068 A 
HETATM    6  C   UNL     1      22.633  48.740  48.747  1.00  0.00     0.037 A 
HETATM    7  C   UNL     1      23.517  47.970  49.508  1.00  0.00     0.011 A 
BRANCH   5   8
HETATM    8  O   UNL     1      22.117  50.490  47.310  1.00  0.00    -0.356 OA
HETATM    9  C   UNL     1      20.803  50.458  47.854  1.00  0.00     0.210 C 
ENDBRANCH   5   8
ENDBRANCH   1   2
BRANCH   1  10
HETATM   10  S   UNL     1      24.968  46.455  51.627  1.00  0.00    -0.080 SA
BRANCH  10  11
HETATM   11  C   UNL     1      25.992  46.601  52.996  1.00  0.00     0.190 A 
HETATM   12  N   UNL     1      26.112  47.620  53.803  1.00  0.00    -0.122 NA
HETATM   13  N   UNL     1      27.130  47.315  54.682  1.00  0.00    -0.129 NA
HETATM   14  C   UNL     1      27.612  46.120  54.374  1.00  0.00     0.162 A 
HETATM   15  N   UNL     1      26.880  45.628  53.323  1.00  0.00    -0.317 N 
HETATM   16  H   UNL     1      27.003  44.746  52.850  1.00  0.00     0.169 HD
BRANCH  14  17
HETATM   17  C   UNL     1      28.718  45.420  55.025  1.00  0.00     0.012 A 
HETATM   18  C   UNL     1      29.307  45.977  56.170  1.00  0.00     0.017 A 
HETATM   19  C   UNL     1      30.365  45.332  56.819  1.00  0.00     0.025 A 
HETATM   20  C   UNL     1      30.847  44.126  56.322  1.00  0.00     0.034 A 
HETATM   21 CL   UNL     1      32.149  43.329  57.115  1.00  0.00    -0.084 Cl
HETATM   22  C   UNL     1      30.284  43.562  55.179  1.00  0.00     0.025 A 
HETATM   23  C   UNL     1      29.224  44.206  54.532  1.00  0.00     0.017 A 
ENDBRANCH  14  17
ENDBRANCH  10  11
ENDBRANCH   1  10
BRANCH   1  24
HETATM   24  C   UNL     1      26.939  46.722  49.587  1.00  0.00     0.123 C 
BRANCH  24  25
HETATM   25  C   UNL     1      26.804  45.214  49.652  1.00  0.00     0.219 C 
HETATM   26  N   UNL     1      25.747  44.730  48.907  1.00  0.00    -0.361 N 
HETATM   27  H   UNL     1      25.070  45.413  48.573  1.00  0.00     0.162 HD
HETATM   28  O   UNL     1      27.571  44.460  50.246  1.00  0.00    -0.274 OA
BRANCH  26  29
HETATM   29  C   UNL     1      25.289  43.360  49.008  1.00  0.00     0.124 C 
BRANCH  29  30
HETATM   30  C   UNL     1      24.371  43.078  50.197  1.00  0.00     0.047 C 
BRANCH  30  31
HETATM   31  C   UNL     1      24.985  42.400  51.423  1.00  0.00     0.236 C 
BRANCH  31  32
HETATM   32  N   UNL     1      26.389  41.908  51.211  1.00  0.00    -0.067 N 
HETATM   33  H   UNL     1      26.782  42.504  50.450  1.00  0.00     0.280 HD
HETATM   34  C   UNL     1      27.296  41.966  52.426  1.00  0.00     0.261 C 
HETATM   35  C   UNL     1      28.699  41.473  52.054  1.00  0.00     0.195 C 
HETATM   36  O   UNL     1      28.654  40.147  51.514  1.00  0.00    -0.388 OA
HETATM   37  C   UNL     1      27.862  40.097  50.321  1.00  0.00     0.195 C 
HETATM   38  C   UNL     1      26.413  40.504  50.612  1.00  0.00     0.261 C 
ENDBRANCH  31  32
ENDBRANCH  30  31
ENDBRANCH  29  30
ENDBRANCH  26  29
ENDBRANCH  24  25
ENDBRANCH   1  24
TORSDOF 11
ENDMDL
MODEL 2
REMARK VINA RESULT:      -8.8      1.777      3.616
REMARK  11 active torsions:
REMARK  status: ('A' for Active; 'I' for Inactive)
REMARK    1  A    between atoms: O_2  and  C_3 
REMARK    2  A    between atoms: C_6  and  C_7 
REMARK    3  A    between atoms: C_7  and  S_8 
REMARK    4  A    between atoms: C_7  and  C_22 
REMARK    5  A    between atoms: S_8  and  C_9 
REMARK    6  A    between atoms: C_12  and  C_13 
REMARK    7  A    between atoms: C_22  and  C_23 
REMARK       I    between atoms: C_23  and  N_24 
REMARK    8  A    between atoms: N_24  and  C_25 
REMARK    9  A    between atoms: C_25  and  C_26 
REMARK   10  A    between atoms: C_26  and  C_27 
REMARK   11  A    between atoms: C_27  and  N_28 
ROOT
HETATM    1  C   UNL     1      26.260  46.979  50.489  1.00  0.00     0.097 C 
ENDROOT
BRANCH   1   2
HETATM    2  C   UNL     1      25.444  47.938  49.622  1.00  0.00    -0.043 A 
HETATM    3  C   UNL     1      26.094  48.985  48.946  1.00  0.00     0.011 A 
HETATM    4  C   UNL     1      25.373  49.914  48.183  1.00  0.00     0.037 A 
HETATM    5  C   UNL     1      23.988  49.816  48.085  1.00  0.00     0.068 A 
HETATM    6  C   UNL     1      23.332  48.784  48.755  1.00  0.00     0.037 A 
HETATM    7  C   UNL     1      24.047  47.854  49.515  1.00  0.00     0.011 A 
BRANCH   5   8
HETATM    8  O   UNL     1      23.164  50.655  47.391  1.00  0.00    -0.356 OA
HETATM    9  C   UNL     1      21.765  50.523  47.615  1.00  0.00     0.210 C 
ENDBRANCH   5   8
ENDBRANCH   1   2
BRANCH   1  10
HETATM   10  S   UNL     1      25.164  46.179  51.744  1.00  0.00    -0.080 SA
BRANCH  10  11
HETATM   11  C   UNL     1      26.126  46.327  53.156  1.00  0.00     0.190 A 
HETATM   12  N   UNL     1      26.151  47.314  54.011  1.00  0.00    -0.122 NA
HETATM   13  N   UNL     1      27.155  47.034  54.914  1.00  0.00    -0.129 NA
HETATM   14  C   UNL     1      27.724  45.888  54.574  1.00  0.00     0.162 A 
HETATM   15  N   UNL     1      27.064  45.398  53.475  1.00  0.00    -0.317 N 
HETATM   16  H   UNL     1      27.260  44.549  52.969  1.00  0.00     0.169 HD
BRANCH  14  17
HETATM   17  C   UNL     1      28.850  45.230  55.235  1.00  0.00     0.012 A 
HETATM   18  C   UNL     1      29.348  44.026  54.715  1.00  0.00     0.017 A 
HETATM   19  C   UNL     1      30.426  43.373  55.320  1.00  0.00     0.025 A 
HETATM   20  C   UNL     1      31.010  43.917  56.460  1.00  0.00     0.034 A 
HETATM   21 CL   UNL     1      32.335  43.118  57.210  1.00  0.00    -0.084 Cl
HETATM   22  C   UNL     1      30.524  45.106  57.000  1.00  0.00     0.025 A 
HETATM   23  C   UNL     1      29.447  45.760  56.391  1.00  0.00     0.017 A 
ENDBRANCH  14  17
ENDBRANCH  10  11
ENDBRANCH   1  10
BRANCH   1  24
HETATM   24  C   UNL     1      27.122  45.994  49.682  1.00  0.00     0.123 C 
BRANCH  24  25
HETATM   25  C   UNL     1      26.827  44.534  49.960  1.00  0.00     0.219 C 
HETATM   26  N   UNL     1      25.853  44.009  49.134  1.00  0.00    -0.361 N 
HETATM   27  H   UNL     1      25.308  44.672  48.587  1.00  0.00     0.162 HD
HETATM   28  O   UNL     1      27.414  43.838  50.786  1.00  0.00    -0.274 OA
BRANCH  26  29
HETATM   29  C   UNL     1      25.251  42.713  49.370  1.00  0.00     0.124 C 
BRANCH  29  30
HETATM   30  C   UNL     1      23.722  42.718  49.412  1.00  0.00     0.047 C 
BRANCH  30  31
HETATM   31  C   UNL     1      22.976  42.395  48.116  1.00  0.00     0.236 C 
BRANCH  31  32
HETATM   32  N   UNL     1      22.296  43.580  47.490  1.00  0.00    -0.067 N 
HETATM   33  H   UNL     1      21.373  43.227  47.155  1.00  0.00     0.280 HD
HETATM   34  C   UNL     1      22.086  44.773  48.402  1.00  0.00     0.261 C 
HETATM   35  C   UNL     1      21.350  45.885  47.645  1.00  0.00     0.195 C 
HETATM   36  O   UNL     1      22.064  46.265  46.463  1.00  0.00    -0.388 OA
HETATM   37  C   UNL     1      22.201  45.162  45.559  1.00  0.00     0.195 C 
HETATM   38  C   UNL     1      22.995  44.023  46.207  1.00  0.00     0.261 C 
ENDBRANCH  31  32
ENDBRANCH  30  31
ENDBRANCH  29  30
ENDBRANCH  26  29
ENDBRANCH  24  25
ENDBRANCH   1  24
TORSDOF 11
ENDMDL
MODEL 3
REMARK VINA RESULT:      -8.8      3.709      7.948
REMARK  11 active torsions:
REMARK  status: ('A' for Active; 'I' for Inactive)
REMARK    1  A    between atoms: O_2  and  C_3 
REMARK    2  A    between atoms: C_6  and  C_7 
REMARK    3  A    between atoms: C_7  and  S_8 
REMARK    4  A    between atoms: C_7  and  C_22 
REMARK    5  A    between atoms: S_8  and  C_9 
REMARK    6  A    between atoms: C_12  and  C_13 
REMARK    7  A    between atoms: C_22  and  C_23 
REMARK       I    between atoms: C_23  and  N_24 
REMARK    8  A    between atoms: N_24  and  C_25 
REMARK    9  A    between atoms: C_25  and  C_26 
REMARK   10  A    between atoms: C_26  and  C_27 
REMARK   11  A    between atoms: C_27  and  N_28 
ROOT
HETATM    1  C   UNL     1      26.716  44.993  52.108  1.00  0.00     0.097 C 
ENDROOT
BRANCH   1   2
HETATM    2  C   UNL     1      27.864  44.501  52.989  1.00  0.00    -0.043 A 
HETATM    3  C   UNL     1      28.755  43.535  52.492  1.00  0.00     0.011 A 
HETATM    4  C   UNL     1      29.789  43.023  53.287  1.00  0.00     0.037 A 
HETATM    5  C   UNL     1      29.948  43.463  54.599  1.00  0.00     0.068 A 
HETATM    6  C   UNL     1      29.068  44.419  55.104  1.00  0.00     0.037 A 
HETATM    7  C   UNL     1      28.037  44.934  54.313  1.00  0.00     0.011 A 
BRANCH   5   8
HETATM    8  O   UNL     1      30.899  43.043  55.484  1.00  0.00    -0.356 OA
HETATM    9  C   UNL     1      31.302  43.965  56.489  1.00  0.00     0.210 C 
ENDBRANCH   5   8
ENDBRANCH   1   2
BRANCH   1  10
HETATM   10  S   UNL     1      27.147  44.761  50.326  1.00  0.00    -0.080 SA
BRANCH  10  11
HETATM   11  C   UNL     1      26.694  46.284  49.682  1.00  0.00     0.190 A 
HETATM   12  N   UNL     1      27.475  47.241  49.258  1.00  0.00    -0.122 NA
HETATM   13  N   UNL     1      26.662  48.308  48.937  1.00  0.00    -0.129 NA
HETATM   14  C   UNL     1      25.406  47.974  49.190  1.00  0.00     0.162 A 
HETATM   15  N   UNL     1      25.395  46.675  49.633  1.00  0.00    -0.317 N 
HETATM   16  H   UNL     1      24.596  46.130  49.917  1.00  0.00     0.169 HD
BRANCH  14  17
HETATM   17  C   UNL     1      24.219  48.812  49.026  1.00  0.00     0.012 A 
HETATM   18  C   UNL     1      24.369  50.141  48.600  1.00  0.00     0.017 A 
HETATM   19  C   UNL     1      23.255  50.970  48.430  1.00  0.00     0.025 A 
HETATM   20  C   UNL     1      21.981  50.476  48.692  1.00  0.00     0.034 A 
HETATM   21 CL   UNL     1      20.608  51.491  48.485  1.00  0.00    -0.084 Cl
HETATM   22  C   UNL     1      21.811  49.163  49.126  1.00  0.00     0.025 A 
HETATM   23  C   UNL     1      22.926  48.333  49.293  1.00  0.00     0.017 A 
ENDBRANCH  14  17
ENDBRANCH  10  11
ENDBRANCH   1  10
BRANCH   1  24
HETATM   24  C   UNL     1      25.343  44.427  52.506  1.00  0.00     0.123 C 
BRANCH  24  25
HETATM   25  C   UNL     1      24.666  43.611  51.424  1.00  0.00     0.219 C 
HETATM   26  N   UNL     1      25.190  42.341  51.291  1.00  0.00    -0.361 N 
HETATM   27  H   UNL     1      26.072  42.157  51.765  1.00  0.00     0.162 HD
HETATM   28  O   UNL     1      23.706  43.985  50.752  1.00  0.00    -0.274 OA
BRANCH  26  29
HETATM   29  C   UNL     1      24.860  41.477  50.176  1.00  0.00     0.124 C 
BRANCH  29  30
HETATM   30  C   UNL     1      26.016  40.611  49.675  1.00  0.00     0.047 C 
BRANCH  30  31
HETATM   31  C   UNL     1      27.309  40.609  50.493  1.00  0.00     0.236 C 
BRANCH  31  32
HETATM   32  N   UNL     1      28.177  39.405  50.263  1.00  0.00    -0.067 N 
HETATM   33  H   UNL     1      27.552  38.580  50.399  1.00  0.00     0.280 HD
HETATM   34  C   UNL     1      28.841  39.324  48.902  1.00  0.00     0.261 C 
HETATM   35  C   UNL     1      29.658  38.031  48.797  1.00  0.00     0.195 C 
HETATM   36  O   UNL     1      30.631  37.948  49.845  1.00  0.00    -0.388 OA
HETATM   37  C   UNL     1      30.008  37.945  51.135  1.00  0.00     0.195 C 
HETATM   38  C   UNL     1      29.224  39.243  51.363  1.00  0.00     0.261 C 
ENDBRANCH  31  32
ENDBRANCH  30  31
ENDBRANCH  29  30
ENDBRANCH  26  29
ENDBRANCH  24  25
ENDBRANCH   1  24
TORSDOF 11
ENDMDL
MODEL 4
REMARK VINA RESULT:      -8.8      1.493      1.861
REMARK  11 active torsions:
REMARK  status: ('A' for Active; 'I' for Inactive)
REMARK    1  A    between atoms: O_2  and  C_3 
REMARK    2  A    between atoms: C_6  and  C_7 
REMARK    3  A    between atoms: C_7  and  S_8 
REMARK    4  A    between atoms: C_7  and  C_22 
REMARK    5  A    between atoms: S_8  and  C_9 
REMARK    6  A    between atoms: C_12  and  C_13 
REMARK    7  A    between atoms: C_22  and  C_23 
REMARK       I    between atoms: C_23  and  N_24 
REMARK    8  A    between atoms: N_24  and  C_25 
REMARK    9  A    between atoms: C_25  and  C_26 
REMARK   10  A    between atoms: C_26  and  C_27 
REMARK   11  A    between atoms: C_27  and  N_28 
ROOT
HETATM    1  C   UNL     1      26.364  46.670  50.481  1.00  0.00     0.097 C 
ENDROOT
BRANCH   1   2
HETATM    2  C   UNL     1      25.686  47.771  49.665  1.00  0.00    -0.043 A 
HETATM    3  C   UNL     1      26.469  48.772  49.066  1.00  0.00     0.011 A 
HETATM    4  C   UNL     1      25.880  49.826  48.353  1.00  0.00     0.037 A 
HETATM    5  C   UNL     1      24.495  49.900  48.230  1.00  0.00     0.068 A 
HETATM    6  C   UNL     1      23.708  48.915  48.824  1.00  0.00     0.037 A 
HETATM    7  C   UNL     1      24.292  47.861  49.533  1.00  0.00     0.011 A 
BRANCH   5   8
HETATM    8  O   UNL     1      23.792  50.873  47.579  1.00  0.00    -0.356 OA
HETATM    9  C   UNL     1      22.501  51.188  48.085  1.00  0.00     0.210 C 
ENDBRANCH   5   8
ENDBRANCH   1   2
BRANCH   1  10
HETATM   10  S   UNL     1      25.167  45.963  51.699  1.00  0.00    -0.080 SA
BRANCH  10  11
HETATM   11  C   UNL     1      26.073  46.080  53.150  1.00  0.00     0.190 A 
HETATM   12  N   UNL     1      25.984  46.992  54.081  1.00  0.00    -0.122 NA
HETATM   13  N   UNL     1      26.985  46.730  54.993  1.00  0.00    -0.129 NA
HETATM   14  C   UNL     1      27.667  45.671  54.582  1.00  0.00     0.162 A 
HETATM   15  N   UNL     1      27.084  45.217  53.426  1.00  0.00    -0.317 N 
HETATM   16  H   UNL     1      27.372  44.433  52.861  1.00  0.00     0.169 HD
BRANCH  14  17
HETATM   17  C   UNL     1      28.830  45.066  55.228  1.00  0.00     0.012 A 
HETATM   18  C   UNL     1      29.398  45.689  56.349  1.00  0.00     0.017 A 
HETATM   19  C   UNL     1      30.509  45.136  56.993  1.00  0.00     0.025 A 
HETATM   20  C   UNL     1      31.066  43.954  56.514  1.00  0.00     0.034 A 
HETATM   21 CL   UNL     1      32.433  43.269  57.301  1.00  0.00    -0.084 Cl
HETATM   22  C   UNL     1      30.525  43.325  55.395  1.00  0.00     0.025 A 
HETATM   23  C   UNL     1      29.411  43.879  54.753  1.00  0.00     0.017 A 
ENDBRANCH  14  17
ENDBRANCH  10  11
ENDBRANCH   1  10
BRANCH   1  24
HETATM   24  C   UNL     1      27.090  45.620  49.624  1.00  0.00     0.123 C 
BRANCH  24  25
HETATM   25  C   UNL     1      26.738  44.186  49.962  1.00  0.00     0.219 C 
HETATM   26  N   UNL     1      25.882  43.605  49.047  1.00  0.00    -0.361 N 
HETATM   27  H   UNL     1      25.429  44.229  48.382  1.00  0.00     0.162 HD
HETATM   28  O   UNL     1      27.192  43.551  50.911  1.00  0.00    -0.274 OA
BRANCH  26  29
HETATM   29  C   UNL     1      25.233  42.333  49.290  1.00  0.00     0.124 C 
BRANCH  29  30
HETATM   30  C   UNL     1      25.749  41.179  48.430  1.00  0.00     0.047 C 
BRANCH  30  31
HETATM   31  C   UNL     1      27.179  41.274  47.897  1.00  0.00     0.236 C 
BRANCH  31  32
HETATM   32  N   UNL     1      28.106  40.224  48.441  1.00  0.00    -0.067 N 
HETATM   33  H   UNL     1      29.070  40.571  48.241  1.00  0.00     0.280 HD
HETATM   34  C   UNL     1      27.966  39.928  49.922  1.00  0.00     0.261 C 
HETATM   35  C   UNL     1      28.995  38.872  50.342  1.00  0.00     0.195 C 
HETATM   36  O   UNL     1      28.853  37.675  49.567  1.00  0.00    -0.388 OA
HETATM   37  C   UNL     1      29.060  37.930  48.173  1.00  0.00     0.195 C 
HETATM   38  C   UNL     1      28.022  38.925  47.642  1.00  0.00     0.261 C 
ENDBRANCH  31  32
ENDBRANCH  30  31
ENDBRANCH  29  30
ENDBRANCH  26  29
ENDBRANCH  24  25
ENDBRANCH   1  24
TORSDOF 11
ENDMDL
MODEL 5
REMARK VINA RESULT:      -8.7      2.554      6.149
REMARK  11 active torsions:
REMARK  status: ('A' for Active; 'I' for Inactive)
REMARK    1  A    between atoms: O_2  and  C_3 
REMARK    2  A    between atoms: C_6  and  C_7 
REMARK    3  A    between atoms: C_7  and  S_8 
REMARK    4  A    between atoms: C_7  and  C_22 
REMARK    5  A    between atoms: S_8  and  C_9 
REMARK    6  A    between atoms: C_12  and  C_13 
REMARK    7  A    between atoms: C_22  and  C_23 
REMARK       I    between atoms: C_23  and  N_24 
REMARK    8  A    between atoms: N_24  and  C_25 
REMARK    9  A    between atoms: C_25  and  C_26 
REMARK   10  A    between atoms: C_26  and  C_27 
REMARK   11  A    between atoms: C_27  and  N_28 
ROOT
HETATM    1  C   UNL     1      25.284  44.081  50.477  1.00  0.00     0.097 C 
ENDROOT
BRANCH   1   2
HETATM    2  C   UNL     1      25.425  44.978  51.706  1.00  0.00    -0.043 A 
HETATM    3  C   UNL     1      25.958  46.271  51.564  1.00  0.00     0.011 A 
HETATM    4  C   UNL     1      26.150  47.103  52.675  1.00  0.00     0.037 A 
HETATM    5  C   UNL     1      25.817  46.657  53.951  1.00  0.00     0.068 A 
HETATM    6  C   UNL     1      25.291  45.375  54.105  1.00  0.00     0.037 A 
HETATM    7  C   UNL     1      25.096  44.543  52.999  1.00  0.00     0.011 A 
BRANCH   5   8
HETATM    8  O   UNL     1      25.963  47.354  55.116  1.00  0.00    -0.356 OA
HETATM    9  C   UNL     1      27.135  48.148  55.254  1.00  0.00     0.210 C 
ENDBRANCH   5   8
ENDBRANCH   1   2
BRANCH   1  10
HETATM   10  S   UNL     1      26.947  43.474  49.947  1.00  0.00    -0.080 SA
BRANCH  10  11
HETATM   11  C   UNL     1      27.596  42.955  51.447  1.00  0.00     0.190 A 
HETATM   12  N   UNL     1      27.429  41.802  52.038  1.00  0.00    -0.122 NA
HETATM   13  N   UNL     1      28.051  41.889  53.265  1.00  0.00    -0.129 NA
HETATM   14  C   UNL     1      28.568  43.102  53.394  1.00  0.00     0.162 A 
HETATM   15  N   UNL     1      28.321  43.791  52.233  1.00  0.00    -0.317 N 
HETATM   16  H   UNL     1      28.578  44.742  52.018  1.00  0.00     0.169 HD
BRANCH  14  17
HETATM   17  C   UNL     1      29.286  43.638  54.549  1.00  0.00     0.012 A 
HETATM   18  C   UNL     1      28.892  44.868  55.096  1.00  0.00     0.017 A 
HETATM   19  C   UNL     1      29.554  45.408  56.203  1.00  0.00     0.025 A 
HETATM   20  C   UNL     1      30.625  44.722  56.768  1.00  0.00     0.034 A 
HETATM   21 CL   UNL     1      31.444  45.381  58.128  1.00  0.00    -0.084 Cl
HETATM   22  C   UNL     1      31.040  43.504  56.234  1.00  0.00     0.025 A 
HETATM   23  C   UNL     1      30.374  42.963  55.127  1.00  0.00     0.017 A 
ENDBRANCH  14  17
ENDBRANCH  10  11
ENDBRANCH   1  10
BRANCH   1  24
HETATM   24  C   UNL     1      24.227  42.975  50.635  1.00  0.00     0.123 C 
BRANCH  24  25
HETATM   25  C   UNL     1      23.023  43.128  49.729  1.00  0.00     0.219 C 
HETATM   26  N   UNL     1      22.528  44.416  49.694  1.00  0.00    -0.361 N 
HETATM   27  H   UNL     1      22.873  45.059  50.404  1.00  0.00     0.162 HD
HETATM   28  O   UNL     1      22.542  42.235  49.035  1.00  0.00    -0.274 OA
BRANCH  26  29
HETATM   29  C   UNL     1      21.255  44.743  49.087  1.00  0.00     0.124 C 
BRANCH  29  30
HETATM   30  C   UNL     1      21.304  45.888  48.075  1.00  0.00     0.047 C 
BRANCH  30  31
HETATM   31  C   UNL     1      20.644  47.211  48.468  1.00  0.00     0.236 C 
BRANCH  31  32
HETATM   32  N   UNL     1      21.586  48.382  48.489  1.00  0.00    -0.067 N 
HETATM   33  H   UNL     1      21.690  48.674  47.492  1.00  0.00     0.280 HD
HETATM   34  C   UNL     1      21.142  49.567  49.326  1.00  0.00     0.261 C 
HETATM   35  C   UNL     1      22.175  50.694  49.222  1.00  0.00     0.195 C 
HETATM   36  O   UNL     1      23.474  50.244  49.623  1.00  0.00    -0.388 OA
HETATM   37  C   UNL     1      23.936  49.175  48.789  1.00  0.00     0.195 C 
HETATM   38  C   UNL     1      23.000  47.965  48.887  1.00  0.00     0.261 C 
ENDBRANCH  31  32
ENDBRANCH  30  31
ENDBRANCH  29  30
ENDBRANCH  26  29
ENDBRANCH  24  25
ENDBRANCH   1  24
TORSDOF 11
ENDMDL
MODEL 6
REMARK VINA RESULT:      -8.4      2.025      2.985
REMARK  11 active torsions:
REMARK  status: ('A' for Active; 'I' for Inactive)
REMARK    1  A    between atoms: O_2  and  C_3 
REMARK    2  A    between atoms: C_6  and  C_7 
REMARK    3  A    between atoms: C_7  and  S_8 
REMARK    4  A    between atoms: C_7  and  C_22 
REMARK    5  A    between atoms: S_8  and  C_9 
REMARK    6  A    between atoms: C_12  and  C_13 
REMARK    7  A    between atoms: C_22  and  C_23 
REMARK       I    between atoms: C_23  and  N_24 
REMARK    8  A    between atoms: N_24  and  C_25 
REMARK    9  A    between atoms: C_25  and  C_26 
REMARK   10  A    between atoms: C_26  and  C_27 
REMARK   11  A    between atoms: C_27  and  N_28 
ROOT
HETATM    1  C   UNL     1      24.373  45.048  50.013  1.00  0.00     0.097 C 
ENDROOT
BRANCH   1   2
HETATM    2  C   UNL     1      24.383  46.500  49.539  1.00  0.00    -0.043 A 
HETATM    3  C   UNL     1      25.550  47.270  49.688  1.00  0.00     0.011 A 
HETATM    4  C   UNL     1      25.582  48.620  49.312  1.00  0.00     0.037 A 
HETATM    5  C   UNL     1      24.446  49.227  48.783  1.00  0.00     0.068 A 
HETATM    6  C   UNL     1      23.282  48.474  48.633  1.00  0.00     0.037 A 
HETATM    7  C   UNL     1      23.247  47.127  49.005  1.00  0.00     0.011 A 
BRANCH   5   8
HETATM    8  O   UNL     1      24.334  50.529  48.388  1.00  0.00    -0.356 OA
HETATM    9  C   UNL     1      23.043  51.122  48.468  1.00  0.00     0.210 C 
ENDBRANCH   5   8
ENDBRANCH   1   2
BRANCH   1  10
HETATM   10  S   UNL     1      24.467  44.988  51.859  1.00  0.00    -0.080 SA
BRANCH  10  11
HETATM   11  C   UNL     1      26.128  44.629  52.087  1.00  0.00     0.190 A 
HETATM   12  N   UNL     1      26.970  44.135  51.219  1.00  0.00    -0.122 NA
HETATM   13  N   UNL     1      28.155  43.921  51.890  1.00  0.00    -0.129 NA
HETATM   14  C   UNL     1      27.996  44.277  53.156  1.00  0.00     0.162 A 
HETATM   15  N   UNL     1      26.722  44.766  53.301  1.00  0.00    -0.317 N 
HETATM   16  H   UNL     1      26.289  45.110  54.143  1.00  0.00     0.169 HD
BRANCH  14  17
HETATM   17  C   UNL     1      28.986  44.189  54.229  1.00  0.00     0.012 A 
HETATM   18  C   UNL     1      29.822  43.064  54.303  1.00  0.00     0.017 A 
HETATM   19  C   UNL     1      30.782  42.949  55.314  1.00  0.00     0.025 A 
HETATM   20  C   UNL     1      30.907  43.957  56.265  1.00  0.00     0.034 A 
HETATM   21 CL   UNL     1      32.084  43.820  57.511  1.00  0.00    -0.084 Cl
HETATM   22  C   UNL     1      30.079  45.076  56.216  1.00  0.00     0.025 A 
HETATM   23  C   UNL     1      29.120  45.192  55.202  1.00  0.00     0.017 A 
ENDBRANCH  14  17
ENDBRANCH  10  11
ENDBRANCH   1  10
BRANCH   1  24
HETATM   24  C   UNL     1      23.236  44.206  49.410  1.00  0.00     0.123 C 
BRANCH  24  25
HETATM   25  C   UNL     1      23.513  42.717  49.373  1.00  0.00     0.219 C 
HETATM   26  N   UNL     1      24.844  42.406  49.565  1.00  0.00    -0.361 N 
HETATM   27  H   UNL     1      25.508  43.176  49.507  1.00  0.00     0.162 HD
HETATM   28  O   UNL     1      22.659  41.842  49.247  1.00  0.00    -0.274 OA
BRANCH  26  29
HETATM   29  C   UNL     1      25.371  41.076  49.338  1.00  0.00     0.124 C 
BRANCH  29  30
HETATM   30  C   UNL     1      26.004  40.422  50.567  1.00  0.00     0.047 C 
BRANCH  30  31
HETATM   31  C   UNL     1      27.516  40.567  50.748  1.00  0.00     0.236 C 
BRANCH  31  32
HETATM   32  N   UNL     1      28.298  39.340  50.371  1.00  0.00    -0.067 N 
HETATM   33  H   UNL     1      27.624  38.547  50.440  1.00  0.00     0.280 HD
HETATM   34  C   UNL     1      28.925  39.360  48.990  1.00  0.00     0.261 C 
HETATM   35  C   UNL     1      29.653  38.037  48.729  1.00  0.00     0.195 C 
HETATM   36  O   UNL     1      30.642  37.785  49.734  1.00  0.00    -0.388 OA
HETATM   37  C   UNL     1      30.049  37.687  51.035  1.00  0.00     0.195 C 
HETATM   38  C   UNL     1      29.357  39.000  51.417  1.00  0.00     0.261 C 
ENDBRANCH  31  32
ENDBRANCH  30  31
ENDBRANCH  29  30
ENDBRANCH  26  29
ENDBRANCH  24  25
ENDBRANCH   1  24
TORSDOF 11
ENDMDL
MODEL 7
REMARK VINA RESULT:      -8.4      3.864      8.662
REMARK  11 active torsions:
REMARK  status: ('A' for Active; 'I' for Inactive)
REMARK    1  A    between atoms: O_2  and  C_3 
REMARK    2  A    between atoms: C_6  and  C_7 
REMARK    3  A    between atoms: C_7  and  S_8 
REMARK    4  A    between atoms: C_7  and  C_22 
REMARK    5  A    between atoms: S_8  and  C_9 
REMARK    6  A    between atoms: C_12  and  C_13 
REMARK    7  A    between atoms: C_22  and  C_23 
REMARK       I    between atoms: C_23  and  N_24 
REMARK    8  A    between atoms: N_24  and  C_25 
REMARK    9  A    between atoms: C_25  and  C_26 
REMARK   10  A    between atoms: C_26  and  C_27 
REMARK   11  A    between atoms: C_27  and  N_28 
ROOT
HETATM    1  C   UNL     1      26.012  44.006  51.219  1.00  0.00     0.097 C 
ENDROOT
BRANCH   1   2
HETATM    2  C   UNL     1      26.833  42.717  51.215  1.00  0.00    -0.043 A 
HETATM    3  C   UNL     1      27.843  42.534  52.175  1.00  0.00     0.011 A 
HETATM    4  C   UNL     1      28.650  41.389  52.171  1.00  0.00     0.037 A 
HETATM    5  C   UNL     1      28.465  40.405  51.204  1.00  0.00     0.068 A 
HETATM    6  C   UNL     1      27.469  40.576  50.244  1.00  0.00     0.037 A 
HETATM    7  C   UNL     1      26.660  41.716  50.246  1.00  0.00     0.011 A 
BRANCH   5   8
HETATM    8  O   UNL     1      29.184  39.250  51.075  1.00  0.00    -0.356 OA
HETATM    9  C   UNL     1      29.020  38.515  49.869  1.00  0.00     0.210 C 
ENDBRANCH   5   8
ENDBRANCH   1   2
BRANCH   1  10
HETATM   10  S   UNL     1      25.546  44.460  49.489  1.00  0.00    -0.080 SA
BRANCH  10  11
HETATM   11  C   UNL     1      25.210  46.132  49.672  1.00  0.00     0.190 A 
HETATM   12  N   UNL     1      25.866  47.010  50.383  1.00  0.00    -0.122 NA
HETATM   13  N   UNL     1      25.161  48.192  50.308  1.00  0.00    -0.129 NA
HETATM   14  C   UNL     1      24.083  47.996  49.563  1.00  0.00     0.162 A 
HETATM   15  N   UNL     1      24.108  46.699  49.117  1.00  0.00    -0.317 N 
HETATM   16  H   UNL     1      23.427  46.236  48.536  1.00  0.00     0.169 HD
BRANCH  14  17
HETATM   17  C   UNL     1      23.040  48.970  49.247  1.00  0.00     0.012 A 
HETATM   18  C   UNL     1      21.711  48.539  49.118  1.00  0.00     0.017 A 
HETATM   19  C   UNL     1      20.688  49.445  48.820  1.00  0.00     0.025 A 
HETATM   20  C   UNL     1      20.989  50.791  48.641  1.00  0.00     0.034 A 
HETATM   21 CL   UNL     1      19.735  51.909  48.273  1.00  0.00    -0.084 Cl
HETATM   22  C   UNL     1      22.304  51.239  48.754  1.00  0.00     0.025 A 
HETATM   23  C   UNL     1      23.326  50.332  49.055  1.00  0.00     0.017 A 
ENDBRANCH  14  17
ENDBRANCH  10  11
ENDBRANCH   1  10
BRANCH   1  24
HETATM   24  C   UNL     1      24.835  43.989  52.208  1.00  0.00     0.123 C 
BRANCH  24  25
HETATM   25  C   UNL     1      25.106  44.704  53.515  1.00  0.00     0.219 C 
HETATM   26  N   UNL     1      25.713  45.933  53.347  1.00  0.00    -0.361 N 
HETATM   27  H   UNL     1      26.089  46.136  52.424  1.00  0.00     0.162 HD
HETATM   28  O   UNL     1      24.782  44.294  54.628  1.00  0.00    -0.274 OA
BRANCH  26  29
HETATM   29  C   UNL     1      26.272  46.681  54.454  1.00  0.00     0.124 C 
BRANCH  29  30
HETATM   30  C   UNL     1      27.800  46.728  54.487  1.00  0.00     0.047 C 
BRANCH  30  31
HETATM   31  C   UNL     1      28.486  46.566  55.845  1.00  0.00     0.236 C 
BRANCH  31  32
HETATM   32  N   UNL     1      29.621  45.581  55.844  1.00  0.00    -0.067 N 
HETATM   33  H   UNL     1      30.386  46.037  55.300  1.00  0.00     0.280 HD
HETATM   34  C   UNL     1      30.136  45.172  57.210  1.00  0.00     0.261 C 
HETATM   35  C   UNL     1      31.311  44.200  57.054  1.00  0.00     0.195 C 
HETATM   36  O   UNL     1      30.933  43.051  56.288  1.00  0.00    -0.388 OA
HETATM   37  C   UNL     1      30.517  43.420  54.967  1.00  0.00     0.195 C 
HETATM   38  C   UNL     1      29.291  44.338  55.020  1.00  0.00     0.261 C 
ENDBRANCH  31  32
ENDBRANCH  30  31
ENDBRANCH  29  30
ENDBRANCH  26  29
ENDBRANCH  24  25
ENDBRANCH   1  24
TORSDOF 11
ENDMDL
MODEL 8
REMARK VINA RESULT:      -8.3      2.096      6.999
REMARK  11 active torsions:
REMARK  status: ('A' for Active; 'I' for Inactive)
REMARK    1  A    between atoms: O_2  and  C_3 
REMARK    2  A    between atoms: C_6  and  C_7 
REMARK    3  A    between atoms: C_7  and  S_8 
REMARK    4  A    between atoms: C_7  and  C_22 
REMARK    5  A    between atoms: S_8  and  C_9 
REMARK    6  A    between atoms: C_12  and  C_13 
REMARK    7  A    between atoms: C_22  and  C_23 
REMARK       I    between atoms: C_23  and  N_24 
REMARK    8  A    between atoms: N_24  and  C_25 
REMARK    9  A    between atoms: C_25  and  C_26 
REMARK   10  A    between atoms: C_26  and  C_27 
REMARK   11  A    between atoms: C_27  and  N_28 
ROOT
HETATM    1  C   UNL     1      25.740  44.655  50.061  1.00  0.00     0.097 C 
ENDROOT
BRANCH   1   2
HETATM    2  C   UNL     1      26.032  43.168  49.865  1.00  0.00    -0.043 A 
HETATM    3  C   UNL     1      25.053  42.339  49.291  1.00  0.00     0.011 A 
HETATM    4  C   UNL     1      25.264  40.962  49.141  1.00  0.00     0.037 A 
HETATM    5  C   UNL     1      26.458  40.386  49.568  1.00  0.00     0.068 A 
HETATM    6  C   UNL     1      27.435  41.198  50.142  1.00  0.00     0.037 A 
HETATM    7  C   UNL     1      27.229  42.572  50.291  1.00  0.00     0.011 A 
BRANCH   5   8
HETATM    8  O   UNL     1      26.790  39.063  49.495  1.00  0.00    -0.356 OA
HETATM    9  C   UNL     1      27.870  38.712  48.638  1.00  0.00     0.210 C 
ENDBRANCH   5   8
ENDBRANCH   1   2
BRANCH   1  10
HETATM   10  S   UNL     1      24.630  44.891  51.520  1.00  0.00    -0.080 SA
BRANCH  10  11
HETATM   11  C   UNL     1      25.750  45.447  52.694  1.00  0.00     0.190 A 
HETATM   12  N   UNL     1      25.921  46.668  53.125  1.00  0.00    -0.122 NA
HETATM   13  N   UNL     1      27.004  46.642  53.979  1.00  0.00    -0.129 NA
HETATM   14  C   UNL     1      27.472  45.404  54.032  1.00  0.00     0.162 A 
HETATM   15  N   UNL     1      26.669  44.615  53.247  1.00  0.00    -0.317 N 
HETATM   16  H   UNL     1      26.764  43.627  53.071  1.00  0.00     0.169 HD
BRANCH  14  17
HETATM   17  C   UNL     1      28.629  44.930  54.789  1.00  0.00     0.012 A 
HETATM   18  C   UNL     1      29.190  43.682  54.479  1.00  0.00     0.017 A 
HETATM   19  C   UNL     1      30.300  43.199  55.181  1.00  0.00     0.025 A 
HETATM   20  C   UNL     1      30.853  43.961  56.206  1.00  0.00     0.034 A 
HETATM   21 CL   UNL     1      32.216  43.373  57.073  1.00  0.00    -0.084 Cl
HETATM   22  C   UNL     1      30.304  45.198  56.537  1.00  0.00     0.025 A 
HETATM   23  C   UNL     1      29.195  45.681  55.832  1.00  0.00     0.017 A 
ENDBRANCH  14  17
ENDBRANCH  10  11
ENDBRANCH   1  10
BRANCH   1  24
HETATM   24  C   UNL     1      26.999  45.538  50.075  1.00  0.00     0.123 C 
BRANCH  24  25
HETATM   25  C   UNL     1      26.795  46.927  49.507  1.00  0.00     0.219 C 
HETATM   26  N   UNL     1      25.575  47.479  49.844  1.00  0.00    -0.361 N 
HETATM   27  H   UNL     1      24.883  46.851  50.246  1.00  0.00     0.162 HD
HETATM   28  O   UNL     1      27.628  47.555  48.857  1.00  0.00    -0.274 OA
BRANCH  26  29
HETATM   29  C   UNL     1      25.072  48.688  49.225  1.00  0.00     0.124 C 
BRANCH  29  30
HETATM   30  C   UNL     1      23.627  48.602  48.734  1.00  0.00     0.047 C 
BRANCH  30  31
HETATM   31  C   UNL     1      22.692  49.765  49.069  1.00  0.00     0.236 C 
BRANCH  31  32
HETATM   32  N   UNL     1      21.372  49.341  49.648  1.00  0.00    -0.067 N 
HETATM   33  H   UNL     1      21.605  48.811  50.516  1.00  0.00     0.280 HD
HETATM   34  C   UNL     1      20.409  50.466  49.977  1.00  0.00     0.261 C 
HETATM   35  C   UNL     1      19.128  49.891  50.593  1.00  0.00     0.195 C 
HETATM   36  O   UNL     1      18.517  48.937  49.716  1.00  0.00    -0.388 OA
HETATM   37  C   UNL     1      19.391  47.830  49.460  1.00  0.00     0.195 C 
HETATM   38  C   UNL     1      20.676  48.302  48.772  1.00  0.00     0.261 C 
ENDBRANCH  31  32
ENDBRANCH  30  31
ENDBRANCH  29  30
ENDBRANCH  26  29
ENDBRANCH  24  25
ENDBRANCH   1  24
TORSDOF 11
ENDMDL
MODEL 9
REMARK VINA RESULT:      -8.3      3.668      8.876
REMARK  11 active torsions:
REMARK  status: ('A' for Active; 'I' for Inactive)
REMARK    1  A    between atoms: O_2  and  C_3 
REMARK    2  A    between atoms: C_6  and  C_7 
REMARK    3  A    between atoms: C_7  and  S_8 
REMARK    4  A    between atoms: C_7  and  C_22 
REMARK    5  A    between atoms: S_8  and  C_9 
REMARK    6  A    between atoms: C_12  and  C_13 
REMARK    7  A    between atoms: C_22  and  C_23 
REMARK       I    between atoms: C_23  and  N_24 
REMARK    8  A    between atoms: N_24  and  C_25 
REMARK    9  A    between atoms: C_25  and  C_26 
REMARK   10  A    between atoms: C_26  and  C_27 
REMARK   11  A    between atoms: C_27  and  N_28 
ROOT
HETATM    1  C   UNL     1      27.903  44.076  52.821  1.00  0.00     0.097 C 
ENDROOT
BRANCH   1   2
HETATM    2  C   UNL     1      28.852  44.119  54.018  1.00  0.00    -0.043 A 
HETATM    3  C   UNL     1      28.805  45.211  54.901  1.00  0.00     0.011 A 
HETATM    4  C   UNL     1      29.694  45.312  55.980  1.00  0.00     0.037 A 
HETATM    5  C   UNL     1      30.651  44.323  56.193  1.00  0.00     0.068 A 
HETATM    6  C   UNL     1      30.710  43.237  55.321  1.00  0.00     0.037 A 
HETATM    7  C   UNL     1      29.824  43.132  54.245  1.00  0.00     0.011 A 
BRANCH   5   8
HETATM    8  O   UNL     1      31.582  44.300  57.192  1.00  0.00    -0.356 OA
HETATM    9  C   UNL     1      31.234  44.933  58.417  1.00  0.00     0.210 C 
ENDBRANCH   5   8
ENDBRANCH   1   2
BRANCH   1  10
HETATM   10  S   UNL     1      27.214  42.371  52.626  1.00  0.00    -0.080 SA
BRANCH  10  11
HETATM   11  C   UNL     1      27.444  42.119  50.945  1.00  0.00     0.190 A 
HETATM   12  N   UNL     1      27.223  42.959  49.970  1.00  0.00    -0.122 NA
HETATM   13  N   UNL     1      27.447  42.274  48.795  1.00  0.00    -0.129 NA
HETATM   14  C   UNL     1      27.785  41.027  49.089  1.00  0.00     0.162 A 
HETATM   15  N   UNL     1      27.824  40.911  50.456  1.00  0.00    -0.317 N 
HETATM   16  H   UNL     1      28.039  40.088  50.995  1.00  0.00     0.169 HD
BRANCH  14  17
HETATM   17  C   UNL     1      28.079  39.947  48.148  1.00  0.00     0.012 A 
HETATM   18  C   UNL     1      27.803  40.127  46.784  1.00  0.00     0.017 A 
HETATM   19  C   UNL     1      28.076  39.116  45.857  1.00  0.00     0.025 A 
HETATM   20  C   UNL     1      28.622  37.912  46.290  1.00  0.00     0.034 A 
HETATM   21 CL   UNL     1      28.958  36.665  45.154  1.00  0.00    -0.084 Cl
HETATM   22  C   UNL     1      28.893  37.708  47.641  1.00  0.00     0.025 A 
HETATM   23  C   UNL     1      28.622  38.722  48.568  1.00  0.00     0.017 A 
ENDBRANCH  14  17
ENDBRANCH  10  11
ENDBRANCH   1  10
BRANCH   1  24
HETATM   24  C   UNL     1      26.842  45.189  52.829  1.00  0.00     0.123 C 
BRANCH  24  25
HETATM   25  C   UNL     1      25.484  44.761  52.314  1.00  0.00     0.219 C 
HETATM   26  N   UNL     1      25.305  45.020  50.970  1.00  0.00    -0.361 N 
HETATM   27  H   UNL     1      25.987  45.630  50.525  1.00  0.00     0.162 HD
HETATM   28  O   UNL     1      24.624  44.187  52.979  1.00  0.00    -0.274 OA
BRANCH  26  29
HETATM   29  C   UNL     1      24.013  44.911  50.323  1.00  0.00     0.124 C 
BRANCH  29  30
HETATM   30  C   UNL     1      23.631  46.109  49.453  1.00  0.00     0.047 C 
BRANCH  30  31
HETATM   31  C   UNL     1      24.024  47.501  49.949  1.00  0.00     0.236 C 
BRANCH  31  32
HETATM   32  N   UNL     1      25.143  48.135  49.172  1.00  0.00    -0.067 N 
HETATM   33  H   UNL     1      25.310  47.504  48.358  1.00  0.00     0.280 HD
HETATM   34  C   UNL     1      24.884  49.546  48.680  1.00  0.00     0.261 C 
HETATM   35  C   UNL     1      26.088  50.047  47.875  1.00  0.00     0.195 C 
HETATM   36  O   UNL     1      27.289  49.990  48.653  1.00  0.00    -0.388 OA
HETATM   37  C   UNL     1      27.586  48.648  49.057  1.00  0.00     0.195 C 
HETATM   38  C   UNL     1      26.464  48.086  49.937  1.00  0.00     0.261 C 
ENDBRANCH  31  32
ENDBRANCH  30  31
ENDBRANCH  29  30
ENDBRANCH  26  29
ENDBRANCH  24  25
ENDBRANCH   1  24
TORSDOF 11
ENDMDL
MODEL 10
REMARK VINA RESULT:      -8.3      3.222      8.776
REMARK  11 active torsions:
REMARK  status: ('A' for Active; 'I' for Inactive)
REMARK    1  A    between atoms: O_2  and  C_3 
REMARK    2  A    between atoms: C_6  and  C_7 
REMARK    3  A    between atoms: C_7  and  S_8 
REMARK    4  A    between atoms: C_7  and  C_22 
REMARK    5  A    between atoms: S_8  and  C_9 
REMARK    6  A    between atoms: C_12  and  C_13 
REMARK    7  A    between atoms: C_22  and  C_23 
REMARK       I    between atoms: C_23  and  N_24 
REMARK    8  A    between atoms: N_24  and  C_25 
REMARK    9  A    between atoms: C_25  and  C_26 
REMARK   10  A    between atoms: C_26  and  C_27 
REMARK   11  A    between atoms: C_27  and  N_28 
ROOT
HETATM    1  C   UNL     1      26.742  45.505  53.159  1.00  0.00     0.097 C 
ENDROOT
BRANCH   1   2
HETATM    2  C   UNL     1      27.897  45.345  54.147  1.00  0.00    -0.043 A 
HETATM    3  C   UNL     1      28.687  44.183  54.108  1.00  0.00     0.011 A 
HETATM    4  C   UNL     1      29.722  43.977  55.030  1.00  0.00     0.037 A 
HETATM    5  C   UNL     1      29.984  44.928  56.013  1.00  0.00     0.068 A 
HETATM    6  C   UNL     1      29.204  46.083  56.064  1.00  0.00     0.037 A 
HETATM    7  C   UNL     1      28.173  46.293  55.145  1.00  0.00     0.011 A 
BRANCH   5   8
HETATM    8  O   UNL     1      30.948  44.851  56.977  1.00  0.00    -0.356 OA
HETATM    9  C   UNL     1      31.572  43.587  57.170  1.00  0.00     0.210 C 
ENDBRANCH   5   8
ENDBRANCH   1   2
BRANCH   1  10
HETATM   10  S   UNL     1      25.375  44.340  53.596  1.00  0.00    -0.080 SA
BRANCH  10  11
HETATM   11  C   UNL     1      25.226  43.454  52.135  1.00  0.00     0.190 A 
HETATM   12  N   UNL     1      24.235  43.470  51.283  1.00  0.00    -0.122 NA
HETATM   13  N   UNL     1      24.516  42.518  50.327  1.00  0.00    -0.129 NA
HETATM   14  C   UNL     1      25.666  41.935  50.633  1.00  0.00     0.162 A 
HETATM   15  N   UNL     1      26.157  42.538  51.764  1.00  0.00    -0.317 N 
HETATM   16  H   UNL     1      27.008  42.319  52.255  1.00  0.00     0.169 HD
BRANCH  14  17
HETATM   17  C   UNL     1      26.325  40.849  49.910  1.00  0.00     0.012 A 
HETATM   18  C   UNL     1      25.739  40.347  48.738  1.00  0.00     0.017 A 
HETATM   19  C   UNL     1      26.345  39.311  48.019  1.00  0.00     0.025 A 
HETATM   20  C   UNL     1      27.540  38.763  48.474  1.00  0.00     0.034 A 
HETATM   21 CL   UNL     1      28.289  37.489  47.595  1.00  0.00    -0.084 Cl
HETATM   22  C   UNL     1      28.133  39.240  49.641  1.00  0.00     0.025 A 
HETATM   23  C   UNL     1      27.528  40.279  50.358  1.00  0.00     0.017 A 
ENDBRANCH  14  17
ENDBRANCH  10  11
ENDBRANCH   1  10
BRANCH   1  24
HETATM   24  C   UNL     1      26.293  46.963  52.962  1.00  0.00     0.123 C 
BRANCH  24  25
HETATM   25  C   UNL     1      25.956  47.323  51.530  1.00  0.00     0.219 C 
HETATM   26  N   UNL     1      24.738  46.822  51.114  1.00  0.00    -0.361 N 
HETATM   27  H   UNL     1      24.304  46.121  51.710  1.00  0.00     0.162 HD
HETATM   28  O   UNL     1      26.641  48.036  50.799  1.00  0.00    -0.274 OA
BRANCH  26  29
HETATM   29  C   UNL     1      24.322  46.843  49.727  1.00  0.00     0.124 C 
BRANCH  29  30
HETATM   30  C   UNL     1      23.490  48.062  49.328  1.00  0.00     0.047 C 
BRANCH  30  31
HETATM   31  C   UNL     1      22.057  47.817  48.849  1.00  0.00     0.236 C 
BRANCH  31  32
HETATM   32  N   UNL     1      21.020  48.608  49.594  1.00  0.00    -0.067 N 
HETATM   33  H   UNL     1      21.194  48.415  50.605  1.00  0.00     0.280 HD
HETATM   34  C   UNL     1      21.034  50.105  49.349  1.00  0.00     0.261 C 
HETATM   35  C   UNL     1      19.954  50.782  50.200  1.00  0.00     0.195 C 
HETATM   36  O   UNL     1      18.660  50.233  49.925  1.00  0.00    -0.388 OA
HETATM   37  C   UNL     1      18.613  48.833  50.227  1.00  0.00     0.195 C 
HETATM   38  C   UNL     1      19.614  48.057  49.364  1.00  0.00     0.261 C 
ENDBRANCH  31  32
ENDBRANCH  30  31
ENDBRANCH  29  30
ENDBRANCH  26  29
ENDBRANCH  24  25
ENDBRANCH   1  24
TORSDOF 11
ENDMDL
