MODEL 1
REMARK VINA RESULT:      -9.4      0.000      0.000
REMARK  9 active torsions:
REMARK  status: ('A' for Active; 'I' for Inactive)
REMARK    1  A    between atoms: O_2  and  C_3 
REMARK    2  A    between atoms: C_6  and  N_7 
REMARK    3  A    between atoms: N_10  and  C_11 
REMARK    4  A    between atoms: C_11  and  C_12 
REMARK    5  A    between atoms: C_14  and  O_15 
REMARK    6  A    between atoms: C_17  and  O_18 
REMARK    7  A    between atoms: C_22  and  C_23 
REMARK    8  A    between atoms: C_23  and  C_24 
REMARK       I    between atoms: C_24  and  N_25 
REMARK    9  A    between atoms: N_25  and  C_26 
ROOT
HETATM    1  N   UNL     1      25.743  46.045  50.563  1.00  0.00    -0.232 N 
HETATM    2  C   UNL     1      25.759  44.784  50.009  1.00  0.00     0.333 C 
HETATM    3  O   UNL     1      25.382  44.431  48.900  1.00  0.00    -0.246 OA
HETATM    4  N   UNL     1      26.171  43.855  50.975  1.00  0.00    -0.315 N 
HETATM    5  C   UNL     1      26.439  44.507  52.243  1.00  0.00     0.191 C 
HETATM    6  C   UNL     1      26.019  45.935  51.905  1.00  0.00     0.256 C 
HETATM    7  O   UNL     1      25.991  46.797  52.781  1.00  0.00    -0.270 OA
ENDROOT
BRANCH   4   8
HETATM    8  C   UNL     1      25.533  42.551  50.899  1.00  0.00     0.167 C 
BRANCH   8   9
HETATM    9  C   UNL     1      26.374  41.408  50.403  1.00  0.00    -0.037 A 
HETATM   10  C   UNL     1      25.885  40.549  49.406  1.00  0.00     0.048 A 
HETATM   11  C   UNL     1      26.572  39.374  49.074  1.00  0.00     0.102 A 
HETATM   12  C   UNL     1      27.774  39.070  49.735  1.00  0.00     0.101 A 
HETATM   13  C   UNL     1      28.298  39.957  50.680  1.00  0.00     0.040 A 
HETATM   14  C   UNL     1      27.597  41.114  51.018  1.00  0.00     0.012 A 
BRANCH  11  15
HETATM   15  O   UNL     1      26.141  38.456  48.150  1.00  0.00    -0.353 OA
HETATM   16  C   UNL     1      26.294  38.791  46.778  1.00  0.00     0.210 C 
ENDBRANCH  11  15
BRANCH  12  17
HETATM   17  O   UNL     1      28.407  37.898  49.398  1.00  0.00    -0.353 OA
HETATM   18  C   UNL     1      29.766  38.058  49.000  1.00  0.00     0.210 C 
ENDBRANCH  12  17
ENDBRANCH   8   9
ENDBRANCH   4   8
BRANCH   5  19
HETATM   19  C   UNL     1      27.923  44.531  52.605  1.00  0.00     0.138 C 
BRANCH  19  20
HETATM   20  C   UNL     1      28.194  44.376  54.096  1.00  0.00     0.224 C 
HETATM   21  N   UNL     1      29.339  45.000  54.552  1.00  0.00    -0.327 N 
HETATM   22  H   UNL     1      29.879  45.562  53.896  1.00  0.00     0.169 HD
HETATM   23  O   UNL     1      27.431  43.694  54.777  1.00  0.00    -0.273 OA
BRANCH  21  24
HETATM   24  C   UNL     1      29.860  44.983  55.865  1.00  0.00     0.034 A 
HETATM   25  C   UNL     1      29.483  45.875  56.869  1.00  0.00     0.029 A 
HETATM   26  C   UNL     1      30.040  45.777  58.149  1.00  0.00     0.002 A 
HETATM   27  C   UNL     1      30.989  44.796  58.430  1.00  0.00     0.000 A 
HETATM   28  C   UNL     1      31.373  43.902  57.436  1.00  0.00     0.002 A 
HETATM   29  C   UNL     1      30.800  43.987  56.163  1.00  0.00     0.029 A 
ENDBRANCH  21  24
ENDBRANCH  19  20
ENDBRANCH   5  19
BRANCH   1  30
HETATM   30  C   UNL     1      25.318  47.239  49.891  1.00  0.00     0.047 A 
HETATM   31  C   UNL     1      26.237  48.201  49.440  1.00  0.00     0.033 A 
HETATM   32  C   UNL     1      25.837  49.342  48.724  1.00  0.00     0.039 A 
HETATM   33  C   UNL     1      24.495  49.559  48.445  1.00  0.00     0.068 A 
HETATM   34  C   UNL     1      23.560  48.649  48.928  1.00  0.00     0.039 A 
HETATM   35  C   UNL     1      23.964  47.508  49.639  1.00  0.00     0.033 A 
BRANCH  33  36
HETATM   36  O   UNL     1      23.982  50.609  47.740  1.00  0.00    -0.356 OA
HETATM   37  C   UNL     1      22.744  51.137  48.203  1.00  0.00     0.210 C 
ENDBRANCH  33  36
ENDBRANCH   1  30
TORSDOF 9
ENDMDL
MODEL 2
REMARK VINA RESULT:      -9.3      0.825      1.785
REMARK  9 active torsions:
REMARK  status: ('A' for Active; 'I' for Inactive)
REMARK    1  A    between atoms: O_2  and  C_3 
REMARK    2  A    between atoms: C_6  and  N_7 
REMARK    3  A    between atoms: N_10  and  C_11 
REMARK    4  A    between atoms: C_11  and  C_12 
REMARK    5  A    between atoms: C_14  and  O_15 
REMARK    6  A    between atoms: C_17  and  O_18 
REMARK    7  A    between atoms: C_22  and  C_23 
REMARK    8  A    between atoms: C_23  and  C_24 
REMARK       I    between atoms: C_24  and  N_25 
REMARK    9  A    between atoms: N_25  and  C_26 
ROOT
HETATM    1  N   UNL     1      25.879  45.790  50.508  1.00  0.00    -0.232 N 
HETATM    2  C   UNL     1      25.737  44.553  49.918  1.00  0.00     0.333 C 
HETATM    3  O   UNL     1      25.286  44.280  48.813  1.00  0.00    -0.246 OA
HETATM    4  N   UNL     1      26.076  43.554  50.840  1.00  0.00    -0.315 N 
HETATM    5  C   UNL     1      26.456  44.130  52.116  1.00  0.00     0.191 C 
HETATM    6  C   UNL     1      26.185  45.606  51.835  1.00  0.00     0.256 C 
HETATM    7  O   UNL     1      26.283  46.437  52.737  1.00  0.00    -0.270 OA
ENDROOT
BRANCH   4   8
HETATM    8  C   UNL     1      25.295  42.330  50.750  1.00  0.00     0.167 C 
BRANCH   8   9
HETATM    9  C   UNL     1      25.850  41.229  49.890  1.00  0.00    -0.037 A 
HETATM   10  C   UNL     1      27.154  40.754  50.102  1.00  0.00     0.048 A 
HETATM   11  C   UNL     1      27.750  39.869  49.193  1.00  0.00     0.102 A 
HETATM   12  C   UNL     1      27.020  39.442  48.071  1.00  0.00     0.101 A 
HETATM   13  C   UNL     1      25.698  39.860  47.894  1.00  0.00     0.040 A 
HETATM   14  C   UNL     1      25.121  40.756  48.793  1.00  0.00     0.012 A 
BRANCH  11  15
HETATM   15  O   UNL     1      29.033  39.396  49.297  1.00  0.00    -0.353 OA
HETATM   16  C   UNL     1      29.271  38.357  50.235  1.00  0.00     0.210 C 
ENDBRANCH  11  15
BRANCH  12  17
HETATM   17  O   UNL     1      27.646  38.592  47.191  1.00  0.00    -0.353 OA
HETATM   18  C   UNL     1      27.854  39.142  45.893  1.00  0.00     0.210 C 
ENDBRANCH  12  17
ENDBRANCH   8   9
ENDBRANCH   4   8
BRANCH   5  19
HETATM   19  C   UNL     1      27.945  43.980  52.424  1.00  0.00     0.138 C 
BRANCH  19  20
HETATM   20  C   UNL     1      28.265  43.953  53.913  1.00  0.00     0.224 C 
HETATM   21  N   UNL     1      29.559  44.309  54.241  1.00  0.00    -0.327 N 
HETATM   22  H   UNL     1      30.180  44.620  53.497  1.00  0.00     0.169 HD
HETATM   23  O   UNL     1      27.400  43.589  54.707  1.00  0.00    -0.273 OA
BRANCH  21  24
HETATM   24  C   UNL     1      30.143  44.326  55.528  1.00  0.00     0.034 A 
HETATM   25  C   UNL     1      30.987  43.329  56.017  1.00  0.00     0.029 A 
HETATM   26  C   UNL     1      31.535  43.432  57.301  1.00  0.00     0.002 A 
HETATM   27  C   UNL     1      31.230  44.525  58.110  1.00  0.00     0.000 A 
HETATM   28  C   UNL     1      30.389  45.524  57.632  1.00  0.00     0.002 A 
HETATM   29  C   UNL     1      29.858  45.431  56.342  1.00  0.00     0.029 A 
ENDBRANCH  21  24
ENDBRANCH  19  20
ENDBRANCH   5  19
BRANCH   1  30
HETATM   30  C   UNL     1      25.566  47.044  49.887  1.00  0.00     0.047 A 
HETATM   31  C   UNL     1      26.570  47.943  49.489  1.00  0.00     0.033 A 
HETATM   32  C   UNL     1      26.278  49.144  48.822  1.00  0.00     0.039 A 
HETATM   33  C   UNL     1      24.964  49.489  48.541  1.00  0.00     0.068 A 
HETATM   34  C   UNL     1      23.948  48.642  48.974  1.00  0.00     0.039 A 
HETATM   35  C   UNL     1      24.244  47.440  49.636  1.00  0.00     0.033 A 
BRANCH  33  36
HETATM   36  O   UNL     1      24.552  50.609  47.879  1.00  0.00    -0.356 OA
HETATM   37  C   UNL     1      23.180  50.962  48.027  1.00  0.00     0.210 C 
ENDBRANCH  33  36
ENDBRANCH   1  30
TORSDOF 9
ENDMDL
MODEL 3
REMARK VINA RESULT:      -8.8      2.092      9.023
REMARK  9 active torsions:
REMARK  status: ('A' for Active; 'I' for Inactive)
REMARK    1  A    between atoms: O_2  and  C_3 
REMARK    2  A    between atoms: C_6  and  N_7 
REMARK    3  A    between atoms: N_10  and  C_11 
REMARK    4  A    between atoms: C_11  and  C_12 
REMARK    5  A    between atoms: C_14  and  O_15 
REMARK    6  A    between atoms: C_17  and  O_18 
REMARK    7  A    between atoms: C_22  and  C_23 
REMARK    8  A    between atoms: C_23  and  C_24 
REMARK       I    between atoms: C_24  and  N_25 
REMARK    9  A    between atoms: N_25  and  C_26 
ROOT
HETATM    1  N   UNL     1      27.414  41.447  50.230  1.00  0.00    -0.232 N 
HETATM    2  C   UNL     1      27.967  41.583  51.485  1.00  0.00     0.333 C 
HETATM    3  O   UNL     1      28.556  40.746  52.156  1.00  0.00    -0.246 OA
HETATM    4  N   UNL     1      27.648  42.847  52.001  1.00  0.00    -0.315 N 
HETATM    5  C   UNL     1      26.836  43.602  51.066  1.00  0.00     0.191 C 
HETATM    6  C   UNL     1      26.638  42.552  49.974  1.00  0.00     0.256 C 
HETATM    7  O   UNL     1      25.887  42.777  49.027  1.00  0.00    -0.270 OA
ENDROOT
BRANCH   4   8
HETATM    8  C   UNL     1      27.415  42.894  53.436  1.00  0.00     0.167 C 
BRANCH   8   9
HETATM    9  C   UNL     1      28.279  43.828  54.237  1.00  0.00    -0.037 A 
HETATM   10  C   UNL     1      29.554  43.423  54.663  1.00  0.00     0.048 A 
HETATM   11  C   UNL     1      30.287  44.203  55.566  1.00  0.00     0.102 A 
HETATM   12  C   UNL     1      29.743  45.413  56.031  1.00  0.00     0.101 A 
HETATM   13  C   UNL     1      28.503  45.850  55.556  1.00  0.00     0.040 A 
HETATM   14  C   UNL     1      27.772  45.058  54.673  1.00  0.00     0.012 A 
BRANCH  11  15
HETATM   15  O   UNL     1      31.516  43.860  56.071  1.00  0.00    -0.353 OA
HETATM   16  C   UNL     1      31.540  42.945  57.158  1.00  0.00     0.210 C 
ENDBRANCH  11  15
BRANCH  12  17
HETATM   17  O   UNL     1      30.483  46.138  56.933  1.00  0.00    -0.353 OA
HETATM   18  C   UNL     1      29.994  46.084  58.271  1.00  0.00     0.210 C 
ENDBRANCH  12  17
ENDBRANCH   8   9
ENDBRANCH   4   8
BRANCH   5  19
HETATM   19  C   UNL     1      27.577  44.785  50.446  1.00  0.00     0.138 C 
BRANCH  19  20
HETATM   20  C   UNL     1      26.656  45.842  49.849  1.00  0.00     0.224 C 
HETATM   21  N   UNL     1      25.309  45.647  50.088  1.00  0.00    -0.327 N 
HETATM   22  H   UNL     1      25.029  44.870  50.684  1.00  0.00     0.169 HD
HETATM   23  O   UNL     1      27.139  46.751  49.178  1.00  0.00    -0.273 OA
BRANCH  21  24
HETATM   24  C   UNL     1      24.233  46.433  49.619  1.00  0.00     0.034 A 
HETATM   25  C   UNL     1      24.097  47.801  49.863  1.00  0.00     0.029 A 
HETATM   26  C   UNL     1      23.005  48.506  49.347  1.00  0.00     0.002 A 
HETATM   27  C   UNL     1      22.032  47.848  48.597  1.00  0.00     0.000 A 
HETATM   28  C   UNL     1      22.157  46.485  48.349  1.00  0.00     0.002 A 
HETATM   29  C   UNL     1      23.260  45.784  48.847  1.00  0.00     0.029 A 
ENDBRANCH  21  24
ENDBRANCH  19  20
ENDBRANCH   5  19
BRANCH   1  30
HETATM   30  C   UNL     1      27.481  40.266  49.420  1.00  0.00     0.047 A 
HETATM   31  C   UNL     1      28.319  40.188  48.294  1.00  0.00     0.033 A 
HETATM   32  C   UNL     1      28.442  39.015  47.532  1.00  0.00     0.039 A 
HETATM   33  C   UNL     1      27.716  37.881  47.869  1.00  0.00     0.068 A 
HETATM   34  C   UNL     1      26.838  37.949  48.946  1.00  0.00     0.039 A 
HETATM   35  C   UNL     1      26.722  39.122  49.709  1.00  0.00     0.033 A 
BRANCH  33  36
HETATM   36  O   UNL     1      27.766  36.677  47.228  1.00  0.00    -0.356 OA
HETATM   37  C   UNL     1      28.649  36.590  46.114  1.00  0.00     0.210 C 
ENDBRANCH  33  36
ENDBRANCH   1  30
TORSDOF 9
ENDMDL
MODEL 4
REMARK VINA RESULT:      -8.6      1.671      7.393
REMARK  9 active torsions:
REMARK  status: ('A' for Active; 'I' for Inactive)
REMARK    1  A    between atoms: O_2  and  C_3 
REMARK    2  A    between atoms: C_6  and  N_7 
REMARK    3  A    between atoms: N_10  and  C_11 
REMARK    4  A    between atoms: C_11  and  C_12 
REMARK    5  A    between atoms: C_14  and  O_15 
REMARK    6  A    between atoms: C_17  and  O_18 
REMARK    7  A    between atoms: C_22  and  C_23 
REMARK    8  A    between atoms: C_23  and  C_24 
REMARK       I    between atoms: C_24  and  N_25 
REMARK    9  A    between atoms: N_25  and  C_26 
ROOT
HETATM    1  N   UNL     1      27.423  41.808  50.267  1.00  0.00    -0.232 N 
HETATM    2  C   UNL     1      26.874  42.891  49.614  1.00  0.00     0.333 C 
HETATM    3  O   UNL     1      26.470  42.965  48.462  1.00  0.00    -0.246 OA
HETATM    4  N   UNL     1      26.950  44.021  50.441  1.00  0.00    -0.315 N 
HETATM    5  C   UNL     1      27.585  43.700  51.705  1.00  0.00     0.191 C 
HETATM    6  C   UNL     1      27.965  42.243  51.453  1.00  0.00     0.256 C 
HETATM    7  O   UNL     1      28.642  41.628  52.274  1.00  0.00    -0.270 OA
ENDROOT
BRANCH   4   8
HETATM    8  C   UNL     1      27.192  45.280  49.755  1.00  0.00     0.167 C 
BRANCH   8   9
HETATM    9  C   UNL     1      26.057  46.263  49.712  1.00  0.00    -0.037 A 
HETATM   10  C   UNL     1      24.740  45.817  49.518  1.00  0.00     0.048 A 
HETATM   11  C   UNL     1      23.702  46.729  49.285  1.00  0.00     0.102 A 
HETATM   12  C   UNL     1      23.987  48.105  49.268  1.00  0.00     0.101 A 
HETATM   13  C   UNL     1      25.284  48.555  49.528  1.00  0.00     0.040 A 
HETATM   14  C   UNL     1      26.314  47.639  49.739  1.00  0.00     0.012 A 
BRANCH  11  15
HETATM   15  O   UNL     1      22.400  46.377  49.036  1.00  0.00    -0.353 OA
HETATM   16  C   UNL     1      22.162  45.069  48.538  1.00  0.00     0.210 C 
ENDBRANCH  11  15
BRANCH  12  17
HETATM   17  O   UNL     1      22.947  48.966  49.013  1.00  0.00    -0.353 OA
HETATM   18  C   UNL     1      23.161  49.833  47.902  1.00  0.00     0.210 C 
ENDBRANCH  12  17
ENDBRANCH   8   9
ENDBRANCH   4   8
BRANCH   5  19
HETATM   19  C   UNL     1      26.618  43.731  52.888  1.00  0.00     0.138 C 
BRANCH  19  20
HETATM   20  C   UNL     1      27.310  43.792  54.244  1.00  0.00     0.224 C 
HETATM   21  N   UNL     1      28.619  44.230  54.215  1.00  0.00    -0.327 N 
HETATM   22  H   UNL     1      29.009  44.537  53.325  1.00  0.00     0.169 HD
HETATM   23  O   UNL     1      26.701  43.420  55.246  1.00  0.00    -0.273 OA
BRANCH  21  24
HETATM   24  C   UNL     1      29.512  44.337  55.305  1.00  0.00     0.034 A 
HETATM   25  C   UNL     1      29.549  45.420  56.184  1.00  0.00     0.029 A 
HETATM   26  C   UNL     1      30.457  45.438  57.248  1.00  0.00     0.002 A 
HETATM   27  C   UNL     1      31.346  44.381  57.432  1.00  0.00     0.000 A 
HETATM   28  C   UNL     1      31.318  43.296  56.562  1.00  0.00     0.002 A 
HETATM   29  C   UNL     1      30.396  43.269  55.511  1.00  0.00     0.029 A 
ENDBRANCH  21  24
ENDBRANCH  19  20
ENDBRANCH   5  19
BRANCH   1  30
HETATM   30  C   UNL     1      27.573  40.496  49.710  1.00  0.00     0.047 A 
HETATM   31  C   UNL     1      26.627  39.482  49.940  1.00  0.00     0.033 A 
HETATM   32  C   UNL     1      26.730  38.213  49.346  1.00  0.00     0.039 A 
HETATM   33  C   UNL     1      27.795  37.915  48.508  1.00  0.00     0.068 A 
HETATM   34  C   UNL     1      28.774  38.883  48.309  1.00  0.00     0.039 A 
HETATM   35  C   UNL     1      28.665  40.152  48.899  1.00  0.00     0.033 A 
BRANCH  33  36
HETATM   36  O   UNL     1      27.996  36.734  47.853  1.00  0.00    -0.356 OA
HETATM   37  C   UNL     1      28.239  36.821  46.453  1.00  0.00     0.210 C 
ENDBRANCH  33  36
ENDBRANCH   1  30
TORSDOF 9
ENDMDL
MODEL 5
REMARK VINA RESULT:      -8.6      2.086      8.559
REMARK  9 active torsions:
REMARK  status: ('A' for Active; 'I' for Inactive)
REMARK    1  A    between atoms: O_2  and  C_3 
REMARK    2  A    between atoms: C_6  and  N_7 
REMARK    3  A    between atoms: N_10  and  C_11 
REMARK    4  A    between atoms: C_11  and  C_12 
REMARK    5  A    between atoms: C_14  and  O_15 
REMARK    6  A    between atoms: C_17  and  O_18 
REMARK    7  A    between atoms: C_22  and  C_23 
REMARK    8  A    between atoms: C_23  and  C_24 
REMARK       I    between atoms: C_24  and  N_25 
REMARK    9  A    between atoms: N_25  and  C_26 
ROOT
HETATM    1  N   UNL     1      26.626  42.472  49.688  1.00  0.00    -0.232 N 
HETATM    2  C   UNL     1      27.251  42.273  50.900  1.00  0.00     0.333 C 
HETATM    3  O   UNL     1      27.877  41.296  51.287  1.00  0.00    -0.246 OA
HETATM    4  N   UNL     1      26.965  43.348  51.753  1.00  0.00    -0.315 N 
HETATM    5  C   UNL     1      26.102  44.315  51.102  1.00  0.00     0.191 C 
HETATM    6  C   UNL     1      25.839  43.594  49.782  1.00  0.00     0.256 C 
HETATM    7  O   UNL     1      25.035  44.054  48.974  1.00  0.00    -0.270 OA
ENDROOT
BRANCH   4   8
HETATM    8  C   UNL     1      26.816  43.006  53.159  1.00  0.00     0.167 C 
BRANCH   8   9
HETATM    9  C   UNL     1      27.730  43.699  54.130  1.00  0.00    -0.037 A 
HETATM   10  C   UNL     1      27.368  44.939  54.681  1.00  0.00     0.048 A 
HETATM   11  C   UNL     1      28.287  45.683  55.433  1.00  0.00     0.102 A 
HETATM   12  C   UNL     1      29.576  45.167  55.650  1.00  0.00     0.101 A 
HETATM   13  C   UNL     1      29.916  43.904  55.160  1.00  0.00     0.040 A 
HETATM   14  C   UNL     1      29.002  43.179  54.396  1.00  0.00     0.012 A 
BRANCH  11  15
HETATM   15  O   UNL     1      28.034  46.922  55.964  1.00  0.00    -0.353 OA
HETATM   16  C   UNL     1      27.189  47.790  55.222  1.00  0.00     0.210 C 
ENDBRANCH  11  15
BRANCH  12  17
HETATM   17  O   UNL     1      30.456  45.937  56.372  1.00  0.00    -0.353 OA
HETATM   18  C   UNL     1      30.596  45.545  57.735  1.00  0.00     0.210 C 
ENDBRANCH  12  17
ENDBRANCH   8   9
ENDBRANCH   4   8
BRANCH   5  19
HETATM   19  C   UNL     1      26.808  45.632  50.781  1.00  0.00     0.138 C 
BRANCH  19  20
HETATM   20  C   UNL     1      25.877  46.837  50.755  1.00  0.00     0.224 C 
HETATM   21  N   UNL     1      25.364  47.155  49.512  1.00  0.00    -0.327 N 
HETATM   22  H   UNL     1      25.582  46.544  48.726  1.00  0.00     0.169 HD
HETATM   23  O   UNL     1      25.675  47.463  51.793  1.00  0.00    -0.273 OA
BRANCH  21  24
HETATM   24  C   UNL     1      24.522  48.241  49.184  1.00  0.00     0.034 A 
HETATM   25  C   UNL     1      24.977  49.459  48.678  1.00  0.00     0.029 A 
HETATM   26  C   UNL     1      24.071  50.479  48.366  1.00  0.00     0.002 A 
HETATM   27  C   UNL     1      22.705  50.293  48.572  1.00  0.00     0.000 A 
HETATM   28  C   UNL     1      22.241  49.083  49.076  1.00  0.00     0.002 A 
HETATM   29  C   UNL     1      23.145  48.057  49.368  1.00  0.00     0.029 A 
ENDBRANCH  21  24
ENDBRANCH  19  20
ENDBRANCH   5  19
BRANCH   1  30
HETATM   30  C   UNL     1      26.644  41.552  48.588  1.00  0.00     0.047 A 
HETATM   31  C   UNL     1      25.510  40.800  48.235  1.00  0.00     0.033 A 
HETATM   32  C   UNL     1      25.496  39.944  47.120  1.00  0.00     0.039 A 
HETATM   33  C   UNL     1      26.627  39.807  46.328  1.00  0.00     0.068 A 
HETATM   34  C   UNL     1      27.780  40.498  46.689  1.00  0.00     0.039 A 
HETATM   35  C   UNL     1      27.788  41.356  47.800  1.00  0.00     0.033 A 
BRANCH  33  36
HETATM   36  O   UNL     1      26.734  39.032  45.209  1.00  0.00    -0.356 OA
HETATM   37  C   UNL     1      27.307  37.741  45.388  1.00  0.00     0.210 C 
ENDBRANCH  33  36
ENDBRANCH   1  30
TORSDOF 9
ENDMDL
MODEL 6
REMARK VINA RESULT:      -8.6      1.789      9.044
REMARK  9 active torsions:
REMARK  status: ('A' for Active; 'I' for Inactive)
REMARK    1  A    between atoms: O_2  and  C_3 
REMARK    2  A    between atoms: C_6  and  N_7 
REMARK    3  A    between atoms: N_10  and  C_11 
REMARK    4  A    between atoms: C_11  and  C_12 
REMARK    5  A    between atoms: C_14  and  O_15 
REMARK    6  A    between atoms: C_17  and  O_18 
REMARK    7  A    between atoms: C_22  and  C_23 
REMARK    8  A    between atoms: C_23  and  C_24 
REMARK       I    between atoms: C_24  and  N_25 
REMARK    9  A    between atoms: N_25  and  C_26 
ROOT
HETATM    1  N   UNL     1      27.483  44.427  52.811  1.00  0.00    -0.232 N 
HETATM    2  C   UNL     1      26.796  45.536  52.367  1.00  0.00     0.333 C 
HETATM    3  O   UNL     1      26.767  46.661  52.847  1.00  0.00    -0.246 OA
HETATM    4  N   UNL     1      25.969  45.173  51.294  1.00  0.00    -0.315 N 
HETATM    5  C   UNL     1      26.091  43.758  50.998  1.00  0.00     0.191 C 
HETATM    6  C   UNL     1      27.026  43.328  52.125  1.00  0.00     0.256 C 
HETATM    7  O   UNL     1      27.290  42.138  52.292  1.00  0.00    -0.270 OA
ENDROOT
BRANCH   4   8
HETATM    8  C   UNL     1      24.694  45.868  51.226  1.00  0.00     0.167 C 
BRANCH   8   9
HETATM    9  C   UNL     1      24.524  46.876  50.125  1.00  0.00    -0.037 A 
HETATM   10  C   UNL     1      25.523  47.831  49.879  1.00  0.00     0.048 A 
HETATM   11  C   UNL     1      25.297  48.890  48.990  1.00  0.00     0.102 A 
HETATM   12  C   UNL     1      24.061  48.980  48.326  1.00  0.00     0.101 A 
HETATM   13  C   UNL     1      23.090  47.994  48.519  1.00  0.00     0.040 A 
HETATM   14  C   UNL     1      23.317  46.954  49.420  1.00  0.00     0.012 A 
BRANCH  11  15
HETATM   15  O   UNL     1      26.197  49.892  48.729  1.00  0.00    -0.353 OA
HETATM   16  C   UNL     1      27.575  49.591  48.900  1.00  0.00     0.210 C 
ENDBRANCH  11  15
BRANCH  12  17
HETATM   17  O   UNL     1      23.869  50.046  47.481  1.00  0.00    -0.353 OA
HETATM   18  C   UNL     1      22.983  51.041  47.983  1.00  0.00     0.210 C 
ENDBRANCH  12  17
ENDBRANCH   8   9
ENDBRANCH   4   8
BRANCH   5  19
HETATM   19  C   UNL     1      26.798  43.479  49.673  1.00  0.00     0.138 C 
BRANCH  19  20
HETATM   20  C   UNL     1      26.498  42.102  49.095  1.00  0.00     0.224 C 
HETATM   21  N   UNL     1      27.463  41.143  49.337  1.00  0.00    -0.327 N 
HETATM   22  H   UNL     1      28.258  41.391  49.924  1.00  0.00     0.169 HD
HETATM   23  O   UNL     1      25.475  41.937  48.434  1.00  0.00    -0.273 OA
BRANCH  21  24
HETATM   24  C   UNL     1      27.474  39.805  48.884  1.00  0.00     0.034 A 
HETATM   25  C   UNL     1      26.862  38.745  49.554  1.00  0.00     0.029 A 
HETATM   26  C   UNL     1      26.910  37.451  49.025  1.00  0.00     0.002 A 
HETATM   27  C   UNL     1      27.583  37.203  47.830  1.00  0.00     0.000 A 
HETATM   28  C   UNL     1      28.198  38.252  47.155  1.00  0.00     0.002 A 
HETATM   29  C   UNL     1      28.132  39.549  47.673  1.00  0.00     0.029 A 
ENDBRANCH  21  24
ENDBRANCH  19  20
ENDBRANCH   5  19
BRANCH   1  30
HETATM   30  C   UNL     1      28.378  44.403  53.931  1.00  0.00     0.047 A 
HETATM   31  C   UNL     1      29.376  43.422  54.059  1.00  0.00     0.033 A 
HETATM   32  C   UNL     1      30.299  43.426  55.119  1.00  0.00     0.039 A 
HETATM   33  C   UNL     1      30.243  44.412  56.093  1.00  0.00     0.068 A 
HETATM   34  C   UNL     1      29.229  45.362  56.020  1.00  0.00     0.039 A 
HETATM   35  C   UNL     1      28.312  45.358  54.957  1.00  0.00     0.033 A 
BRANCH  33  36
HETATM   36  O   UNL     1      31.092  44.541  57.154  1.00  0.00    -0.356 OA
HETATM   37  C   UNL     1      32.024  43.483  57.349  1.00  0.00     0.210 C 
ENDBRANCH  33  36
ENDBRANCH   1  30
TORSDOF 9
ENDMDL
MODEL 7
REMARK VINA RESULT:      -8.5      2.827      6.831
REMARK  9 active torsions:
REMARK  status: ('A' for Active; 'I' for Inactive)
REMARK    1  A    between atoms: O_2  and  C_3 
REMARK    2  A    between atoms: C_6  and  N_7 
REMARK    3  A    between atoms: N_10  and  C_11 
REMARK    4  A    between atoms: C_11  and  C_12 
REMARK    5  A    between atoms: C_14  and  O_15 
REMARK    6  A    between atoms: C_17  and  O_18 
REMARK    7  A    between atoms: C_22  and  C_23 
REMARK    8  A    between atoms: C_23  and  C_24 
REMARK       I    between atoms: C_24  and  N_25 
REMARK    9  A    between atoms: N_25  and  C_26 
ROOT
HETATM    1  N   UNL     1      22.977  47.275  49.112  1.00  0.00    -0.232 N 
HETATM    2  C   UNL     1      24.086  47.156  49.921  1.00  0.00     0.333 C 
HETATM    3  O   UNL     1      24.676  48.027  50.544  1.00  0.00    -0.246 OA
HETATM    4  N   UNL     1      24.578  45.845  49.847  1.00  0.00    -0.315 N 
HETATM    5  C   UNL     1      23.778  45.039  48.944  1.00  0.00     0.191 C 
HETATM    6  C   UNL     1      22.813  46.100  48.420  1.00  0.00     0.256 C 
HETATM    7  O   UNL     1      22.022  45.827  47.519  1.00  0.00    -0.270 OA
ENDROOT
BRANCH   4   8
HETATM    8  C   UNL     1      26.025  45.716  49.918  1.00  0.00     0.167 C 
BRANCH   8   9
HETATM    9  C   UNL     1      26.588  44.998  51.112  1.00  0.00    -0.037 A 
HETATM   10  C   UNL     1      26.427  45.532  52.401  1.00  0.00     0.048 A 
HETATM   11  C   UNL     1      27.107  44.978  53.494  1.00  0.00     0.102 A 
HETATM   12  C   UNL     1      27.940  43.864  53.294  1.00  0.00     0.101 A 
HETATM   13  C   UNL     1      28.048  43.290  52.024  1.00  0.00     0.040 A 
HETATM   14  C   UNL     1      27.384  43.859  50.939  1.00  0.00     0.012 A 
BRANCH  11  15
HETATM   15  O   UNL     1      27.046  45.466  54.774  1.00  0.00    -0.353 OA
HETATM   16  C   UNL     1      27.697  46.702  55.032  1.00  0.00     0.210 C 
ENDBRANCH  11  15
BRANCH  12  17
HETATM   17  O   UNL     1      28.607  43.364  54.386  1.00  0.00    -0.353 OA
HETATM   18  C   UNL     1      30.024  43.333  54.244  1.00  0.00     0.210 C 
ENDBRANCH  12  17
ENDBRANCH   8   9
ENDBRANCH   4   8
BRANCH   5  19
HETATM   19  C   UNL     1      22.952  43.972  49.662  1.00  0.00     0.138 C 
BRANCH  19  20
HETATM   20  C   UNL     1      23.352  42.545  49.308  1.00  0.00     0.224 C 
HETATM   21  N   UNL     1      24.709  42.291  49.344  1.00  0.00    -0.327 N 
HETATM   22  H   UNL     1      25.334  43.031  49.659  1.00  0.00     0.169 HD
HETATM   23  O   UNL     1      22.482  41.742  48.979  1.00  0.00    -0.273 OA
BRANCH  21  24
HETATM   24  C   UNL     1      25.364  41.082  49.017  1.00  0.00     0.034 A 
HETATM   25  C   UNL     1      25.386  40.525  47.737  1.00  0.00     0.029 A 
HETATM   26  C   UNL     1      26.072  39.329  47.498  1.00  0.00     0.002 A 
HETATM   27  C   UNL     1      26.728  38.673  48.539  1.00  0.00     0.000 A 
HETATM   28  C   UNL     1      26.711  39.220  49.818  1.00  0.00     0.002 A 
HETATM   29  C   UNL     1      26.043  40.426  50.052  1.00  0.00     0.029 A 
ENDBRANCH  21  24
ENDBRANCH  19  20
ENDBRANCH   5  19
BRANCH   1  30
HETATM   30  C   UNL     1      22.242  48.487  48.889  1.00  0.00     0.047 A 
HETATM   31  C   UNL     1      20.874  48.589  49.195  1.00  0.00     0.033 A 
HETATM   32  C   UNL     1      20.160  49.789  49.042  1.00  0.00     0.039 A 
HETATM   33  C   UNL     1      20.796  50.927  48.565  1.00  0.00     0.068 A 
HETATM   34  C   UNL     1      22.136  50.837  48.203  1.00  0.00     0.039 A 
HETATM   35  C   UNL     1      22.848  49.637  48.363  1.00  0.00     0.033 A 
BRANCH  33  36
HETATM   36  O   UNL     1      20.223  52.155  48.396  1.00  0.00    -0.356 OA
HETATM   37  C   UNL     1      18.882  52.294  48.852  1.00  0.00     0.210 C 
ENDBRANCH  33  36
ENDBRANCH   1  30
TORSDOF 9
ENDMDL
MODEL 8
REMARK VINA RESULT:      -8.5      1.894      8.937
REMARK  9 active torsions:
REMARK  status: ('A' for Active; 'I' for Inactive)
REMARK    1  A    between atoms: O_2  and  C_3 
REMARK    2  A    between atoms: C_6  and  N_7 
REMARK    3  A    between atoms: N_10  and  C_11 
REMARK    4  A    between atoms: C_11  and  C_12 
REMARK    5  A    between atoms: C_14  and  O_15 
REMARK    6  A    between atoms: C_17  and  O_18 
REMARK    7  A    between atoms: C_22  and  C_23 
REMARK    8  A    between atoms: C_23  and  C_24 
REMARK       I    between atoms: C_24  and  N_25 
REMARK    9  A    between atoms: N_25  and  C_26 
ROOT
HETATM    1  N   UNL     1      27.685  44.115  52.989  1.00  0.00    -0.232 N 
HETATM    2  C   UNL     1      26.843  45.140  52.616  1.00  0.00     0.333 C 
HETATM    3  O   UNL     1      26.681  46.229  53.148  1.00  0.00    -0.246 OA
HETATM    4  N   UNL     1      26.037  44.716  51.550  1.00  0.00    -0.315 N 
HETATM    5  C   UNL     1      26.335  43.344  51.185  1.00  0.00     0.191 C 
HETATM    6  C   UNL     1      27.355  42.995  52.265  1.00  0.00     0.256 C 
HETATM    7  O   UNL     1      27.779  41.845  52.369  1.00  0.00    -0.270 OA
ENDROOT
BRANCH   4   8
HETATM    8  C   UNL     1      24.679  45.237  51.549  1.00  0.00     0.167 C 
BRANCH   8   9
HETATM    9  C   UNL     1      24.292  46.132  50.405  1.00  0.00    -0.037 A 
HETATM   10  C   UNL     1      24.877  47.401  50.269  1.00  0.00     0.048 A 
HETATM   11  C   UNL     1      24.390  48.316  49.327  1.00  0.00     0.102 A 
HETATM   12  C   UNL     1      23.317  47.945  48.498  1.00  0.00     0.101 A 
HETATM   13  C   UNL     1      22.777  46.658  48.586  1.00  0.00     0.040 A 
HETATM   14  C   UNL     1      23.255  45.761  49.540  1.00  0.00     0.012 A 
BRANCH  11  15
HETATM   15  O   UNL     1      24.868  49.591  49.162  1.00  0.00    -0.353 OA
HETATM   16  C   UNL     1      26.072  49.744  48.424  1.00  0.00     0.210 C 
ENDBRANCH  11  15
BRANCH  12  17
HETATM   17  O   UNL     1      22.853  48.878  47.603  1.00  0.00    -0.353 OA
HETATM   18  C   UNL     1      21.443  49.082  47.646  1.00  0.00     0.210 C 
ENDBRANCH  12  17
ENDBRANCH   8   9
ENDBRANCH   4   8
BRANCH   5  19
HETATM   19  C   UNL     1      27.028  43.219  49.829  1.00  0.00     0.138 C 
BRANCH  19  20
HETATM   20  C   UNL     1      26.745  41.905  49.114  1.00  0.00     0.224 C 
HETATM   21  N   UNL     1      27.608  40.872  49.423  1.00  0.00    -0.327 N 
HETATM   22  H   UNL     1      28.318  41.029  50.137  1.00  0.00     0.169 HD
HETATM   23  O   UNL     1      25.826  41.850  48.299  1.00  0.00    -0.273 OA
BRANCH  21  24
HETATM   24  C   UNL     1      27.615  39.568  48.878  1.00  0.00     0.034 A 
HETATM   25  C   UNL     1      28.336  39.197  47.742  1.00  0.00     0.029 A 
HETATM   26  C   UNL     1      28.296  37.878  47.278  1.00  0.00     0.002 A 
HETATM   27  C   UNL     1      27.524  36.923  47.937  1.00  0.00     0.000 A 
HETATM   28  C   UNL     1      26.801  37.282  49.070  1.00  0.00     0.002 A 
HETATM   29  C   UNL     1      26.857  38.596  49.545  1.00  0.00     0.029 A 
ENDBRANCH  21  24
ENDBRANCH  19  20
ENDBRANCH   5  19
BRANCH   1  30
HETATM   30  C   UNL     1      28.612  44.163  54.082  1.00  0.00     0.047 A 
HETATM   31  C   UNL     1      29.704  43.282  54.165  1.00  0.00     0.033 A 
HETATM   32  C   UNL     1      30.654  43.362  55.197  1.00  0.00     0.039 A 
HETATM   33  C   UNL     1      30.532  44.324  56.190  1.00  0.00     0.068 A 
HETATM   34  C   UNL     1      29.429  45.171  56.161  1.00  0.00     0.039 A 
HETATM   35  C   UNL     1      28.485  45.093  55.125  1.00  0.00     0.033 A 
BRANCH  33  36
HETATM   36  O   UNL     1      31.396  44.521  57.227  1.00  0.00    -0.356 OA
HETATM   37  C   UNL     1      30.935  45.355  58.284  1.00  0.00     0.210 C 
ENDBRANCH  33  36
ENDBRANCH   1  30
TORSDOF 9
ENDMDL
MODEL 9
REMARK VINA RESULT:      -8.4      3.487      9.786
REMARK  9 active torsions:
REMARK  status: ('A' for Active; 'I' for Inactive)
REMARK    1  A    between atoms: O_2  and  C_3 
REMARK    2  A    between atoms: C_6  and  N_7 
REMARK    3  A    between atoms: N_10  and  C_11 
REMARK    4  A    between atoms: C_11  and  C_12 
REMARK    5  A    between atoms: C_14  and  O_15 
REMARK    6  A    between atoms: C_17  and  O_18 
REMARK    7  A    between atoms: C_22  and  C_23 
REMARK    8  A    between atoms: C_23  and  C_24 
REMARK       I    between atoms: C_24  and  N_25 
REMARK    9  A    between atoms: N_25  and  C_26 
ROOT
HETATM    1  N   UNL     1      25.606  45.573  50.961  1.00  0.00    -0.232 N 
HETATM    2  C   UNL     1      24.568  44.884  50.374  1.00  0.00     0.333 C 
HETATM    3  O   UNL     1      24.258  43.708  50.505  1.00  0.00    -0.246 OA
HETATM    4  N   UNL     1      23.929  45.712  49.440  1.00  0.00    -0.315 N 
HETATM    5  C   UNL     1      24.562  47.016  49.380  1.00  0.00     0.191 C 
HETATM    6  C   UNL     1      25.730  46.790  50.337  1.00  0.00     0.256 C 
HETATM    7  O   UNL     1      26.594  47.655  50.475  1.00  0.00    -0.270 OA
ENDROOT
BRANCH   4   8
HETATM    8  C   UNL     1      23.431  45.042  48.249  1.00  0.00     0.167 C 
BRANCH   8   9
HETATM    9  C   UNL     1      21.987  45.263  47.895  1.00  0.00    -0.037 A 
HETATM   10  C   UNL     1      21.639  45.806  46.647  1.00  0.00     0.048 A 
HETATM   11  C   UNL     1      20.320  46.194  46.380  1.00  0.00     0.102 A 
HETATM   12  C   UNL     1      19.336  46.015  47.367  1.00  0.00     0.101 A 
HETATM   13  C   UNL     1      19.667  45.413  48.584  1.00  0.00     0.040 A 
HETATM   14  C   UNL     1      20.986  45.048  48.850  1.00  0.00     0.012 A 
BRANCH  11  15
HETATM   15  O   UNL     1      19.903  46.777  45.210  1.00  0.00    -0.353 OA
HETATM   16  C   UNL     1      20.208  46.100  44.000  1.00  0.00     0.210 C 
ENDBRANCH  11  15
BRANCH  12  17
HETATM   17  O   UNL     1      18.059  46.429  47.075  1.00  0.00    -0.353 OA
HETATM   18  C   UNL     1      17.188  46.486  48.202  1.00  0.00     0.210 C 
ENDBRANCH  12  17
ENDBRANCH   8   9
ENDBRANCH   4   8
BRANCH   5  19
HETATM   19  C   UNL     1      23.695  48.133  49.958  1.00  0.00     0.138 C 
BRANCH  19  20
HETATM   20  C   UNL     1      22.809  48.819  48.926  1.00  0.00     0.224 C 
HETATM   21  N   UNL     1      21.684  49.437  49.438  1.00  0.00    -0.327 N 
HETATM   22  H   UNL     1      21.555  49.451  50.448  1.00  0.00     0.169 HD
HETATM   23  O   UNL     1      23.109  48.750  47.736  1.00  0.00    -0.273 OA
BRANCH  21  24
HETATM   24  C   UNL     1      20.668  50.101  48.715  1.00  0.00     0.034 A 
HETATM   25  C   UNL     1      19.936  49.520  47.679  1.00  0.00     0.029 A 
HETATM   26  C   UNL     1      18.935  50.247  47.025  1.00  0.00     0.002 A 
HETATM   27  C   UNL     1      18.669  51.566  47.391  1.00  0.00     0.000 A 
HETATM   28  C   UNL     1      19.395  52.155  48.422  1.00  0.00     0.002 A 
HETATM   29  C   UNL     1      20.380  51.421  49.089  1.00  0.00     0.029 A 
ENDBRANCH  21  24
ENDBRANCH  19  20
ENDBRANCH   5  19
BRANCH   1  30
HETATM   30  C   UNL     1      26.520  45.027  51.922  1.00  0.00     0.047 A 
HETATM   31  C   UNL     1      27.534  44.127  51.551  1.00  0.00     0.033 A 
HETATM   32  C   UNL     1      28.475  43.637  52.471  1.00  0.00     0.039 A 
HETATM   33  C   UNL     1      28.423  44.028  53.802  1.00  0.00     0.068 A 
HETATM   34  C   UNL     1      27.396  44.875  54.206  1.00  0.00     0.039 A 
HETATM   35  C   UNL     1      26.461  45.367  53.282  1.00  0.00     0.033 A 
BRANCH  33  36
HETATM   36  O   UNL     1      29.290  43.646  54.785  1.00  0.00    -0.356 OA
HETATM   37  C   UNL     1      29.835  44.688  55.587  1.00  0.00     0.210 C 
ENDBRANCH  33  36
ENDBRANCH   1  30
TORSDOF 9
ENDMDL
MODEL 10
REMARK VINA RESULT:      -8.4      2.483      8.157
REMARK  9 active torsions:
REMARK  status: ('A' for Active; 'I' for Inactive)
REMARK    1  A    between atoms: O_2  and  C_3 
REMARK    2  A    between atoms: C_6  and  N_7 
REMARK    3  A    between atoms: N_10  and  C_11 
REMARK    4  A    between atoms: C_11  and  C_12 
REMARK    5  A    between atoms: C_14  and  O_15 
REMARK    6  A    between atoms: C_17  and  O_18 
REMARK    7  A    between atoms: C_22  and  C_23 
REMARK    8  A    between atoms: C_23  and  C_24 
REMARK       I    between atoms: C_24  and  N_25 
REMARK    9  A    between atoms: N_25  and  C_26 
ROOT
HETATM    1  N   UNL     1      26.325  44.792  51.513  1.00  0.00    -0.232 N 
HETATM    2  C   UNL     1      25.003  44.481  51.741  1.00  0.00     0.333 C 
HETATM    3  O   UNL     1      24.522  43.783  52.624  1.00  0.00    -0.246 OA
HETATM    4  N   UNL     1      24.217  44.991  50.698  1.00  0.00    -0.315 N 
HETATM    5  C   UNL     1      25.037  45.669  49.712  1.00  0.00     0.191 C 
HETATM    6  C   UNL     1      26.426  45.387  50.279  1.00  0.00     0.256 C 
HETATM    7  O   UNL     1      27.431  45.712  49.648  1.00  0.00    -0.270 OA
ENDROOT
BRANCH   4   8
HETATM    8  C   UNL     1      23.075  44.173  50.320  1.00  0.00     0.167 C 
BRANCH   8   9
HETATM    9  C   UNL     1      23.282  43.187  49.204  1.00  0.00    -0.037 A 
HETATM   10  C   UNL     1      24.124  42.078  49.386  1.00  0.00     0.048 A 
HETATM   11  C   UNL     1      24.475  41.262  48.303  1.00  0.00     0.102 A 
HETATM   12  C   UNL     1      23.959  41.551  47.028  1.00  0.00     0.101 A 
HETATM   13  C   UNL     1      23.068  42.614  46.857  1.00  0.00     0.040 A 
HETATM   14  C   UNL     1      22.739  43.432  47.937  1.00  0.00     0.012 A 
BRANCH  11  15
HETATM   15  O   UNL     1      25.329  40.191  48.381  1.00  0.00    -0.353 OA
HETATM   16  C   UNL     1      26.381  40.265  49.333  1.00  0.00     0.210 C 
ENDBRANCH  11  15
BRANCH  12  17
HETATM   17  O   UNL     1      24.345  40.741  45.987  1.00  0.00    -0.353 OA
HETATM   18  C   UNL     1      23.266  40.232  45.208  1.00  0.00     0.210 C 
ENDBRANCH  12  17
ENDBRANCH   8   9
ENDBRANCH   4   8
BRANCH   5  19
HETATM   19  C   UNL     1      24.836  47.184  49.702  1.00  0.00     0.138 C 
BRANCH  19  20
HETATM   20  C   UNL     1      23.507  47.623  49.101  1.00  0.00     0.224 C 
HETATM   21  N   UNL     1      23.002  48.809  49.599  1.00  0.00    -0.327 N 
HETATM   22  H   UNL     1      23.563  49.332  50.269  1.00  0.00     0.169 HD
HETATM   23  O   UNL     1      22.958  46.904  48.269  1.00  0.00    -0.273 OA
BRANCH  21  24
HETATM   24  C   UNL     1      21.776  49.425  49.264  1.00  0.00     0.034 A 
HETATM   25  C   UNL     1      20.536  48.787  49.323  1.00  0.00     0.029 A 
HETATM   26  C   UNL     1      19.368  49.479  48.987  1.00  0.00     0.002 A 
HETATM   27  C   UNL     1      19.430  50.809  48.574  1.00  0.00     0.000 A 
HETATM   28  C   UNL     1      20.661  51.454  48.510  1.00  0.00     0.002 A 
HETATM   29  C   UNL     1      21.827  50.769  48.867  1.00  0.00     0.029 A 
ENDBRANCH  21  24
ENDBRANCH  19  20
ENDBRANCH   5  19
BRANCH   1  30
HETATM   30  C   UNL     1      27.425  44.385  52.338  1.00  0.00     0.047 A 
HETATM   31  C   UNL     1      27.648  44.950  53.606  1.00  0.00     0.033 A 
HETATM   32  C   UNL     1      28.682  44.513  54.450  1.00  0.00     0.039 A 
HETATM   33  C   UNL     1      29.537  43.498  54.043  1.00  0.00     0.068 A 
HETATM   34  C   UNL     1      29.372  42.960  52.770  1.00  0.00     0.039 A 
HETATM   35  C   UNL     1      28.333  43.396  51.932  1.00  0.00     0.033 A 
BRANCH  33  36
HETATM   36  O   UNL     1      30.560  42.969  54.776  1.00  0.00    -0.356 OA
HETATM   37  C   UNL     1      30.926  43.678  55.955  1.00  0.00     0.210 C 
ENDBRANCH  33  36
ENDBRANCH   1  30
TORSDOF 9
ENDMDL
