MODEL 1
REMARK VINA RESULT:      -8.9      0.000      0.000
REMARK  7 active torsions:
REMARK  status: ('A' for Active; 'I' for Inactive)
REMARK    1  A    between atoms: C_2  and  C_3 
REMARK    2  A    between atoms: C_3  and  O_4 
REMARK    3  A    between atoms: O_4  and  C_5 
REMARK    4  A    between atoms: C_8  and  C_9 
REMARK    5  A    between atoms: C_9  and  N_10 
REMARK    6  A    between atoms: N_10  and  C_11 
REMARK    7  A    between atoms: C_18  and  C_19 
REMARK       I    between atoms: C_19  and  N_20 
ROOT
HETATM    1  C   UNL     1      25.821  47.518  50.329  1.00  0.00     0.009 A 
HETATM    2  C   UNL     1      24.521  47.757  49.847  1.00  0.00     0.039 A 
HETATM    3  C   UNL     1      24.285  48.771  48.896  1.00  0.00     0.030 A 
HETATM    4  C   UNL     1      25.365  49.502  48.420  1.00  0.00     0.063 A 
HETATM    5  N   UNL     1      24.836  50.386  47.522  1.00  0.00    -0.277 N 
HETATM    6  H   UNL     1      25.337  51.077  46.975  1.00  0.00     0.189 HD
HETATM    7  N   UNL     1      23.503  50.301  47.373  1.00  0.00    -0.168 NA
HETATM    8  C   UNL     1      23.149  49.302  48.215  1.00  0.00     0.156 A 
HETATM    9  C   UNL     1      26.675  49.274  48.836  1.00  0.00     0.034 A 
HETATM   10  C   UNL     1      26.877  48.260  49.787  1.00  0.00     0.026 A 
ENDROOT
BRANCH   1  11
HETATM   11  N   UNL     1      26.009  46.452  51.219  1.00  0.00    -0.289 NA
HETATM   12  H   UNL     1      25.907  45.548  50.760  1.00  0.00     0.128 HD
BRANCH  11  13
HETATM   13  C   UNL     1      25.364  46.481  52.523  1.00  0.00     0.131 C 
BRANCH  13  14
HETATM   14  C   UNL     1      26.400  46.285  53.605  1.00  0.00    -0.045 A 
HETATM   15  C   UNL     1      27.107  47.384  54.116  1.00  0.00     0.011 A 
HETATM   16  C   UNL     1      28.052  47.219  55.134  1.00  0.00     0.037 A 
HETATM   17  C   UNL     1      28.303  45.951  55.657  1.00  0.00     0.068 A 
HETATM   18  C   UNL     1      27.619  44.851  55.136  1.00  0.00     0.037 A 
HETATM   19  C   UNL     1      26.675  45.012  54.118  1.00  0.00     0.011 A 
BRANCH  17  20
HETATM   20  O   UNL     1      29.185  45.654  56.658  1.00  0.00    -0.351 OA
BRANCH  20  21
HETATM   21  C   UNL     1      30.519  45.324  56.268  1.00  0.00     0.179 C 
BRANCH  21  22
HETATM   22  C   UNL     1      30.696  43.799  56.345  1.00  0.00     0.002 C 
HETATM   23  C   UNL     1      31.952  43.423  57.133  1.00  0.00     0.011 C 
HETATM   24  C   UNL     1      30.750  43.198  54.943  1.00  0.00     0.011 C 
ENDBRANCH  21  22
ENDBRANCH  20  21
ENDBRANCH  17  20
ENDBRANCH  13  14
ENDBRANCH  11  13
ENDBRANCH   1  11
BRANCH   8  25
HETATM   25  C   UNL     1      21.749  48.883  48.355  1.00  0.00     0.270 C 
HETATM   26  N   UNL     1      21.295  48.873  49.646  1.00  0.00    -0.365 N 
HETATM   27  H   UNL     1      21.933  49.144  50.386  1.00  0.00     0.159 HD
HETATM   28  H   UNL     1      20.346  48.598  49.842  1.00  0.00     0.159 HD
HETATM   29  O   UNL     1      21.020  48.560  47.422  1.00  0.00    -0.266 OA
ENDBRANCH   8  25
TORSDOF 7
ENDMDL
MODEL 2
REMARK VINA RESULT:      -8.6      1.575      1.978
REMARK  7 active torsions:
REMARK  status: ('A' for Active; 'I' for Inactive)
REMARK    1  A    between atoms: C_2  and  C_3 
REMARK    2  A    between atoms: C_3  and  O_4 
REMARK    3  A    between atoms: O_4  and  C_5 
REMARK    4  A    between atoms: C_8  and  C_9 
REMARK    5  A    between atoms: C_9  and  N_10 
REMARK    6  A    between atoms: N_10  and  C_11 
REMARK    7  A    between atoms: C_18  and  C_19 
REMARK       I    between atoms: C_19  and  N_20 
ROOT
HETATM    1  C   UNL     1      25.197  47.163  50.646  1.00  0.00     0.009 A 
HETATM    2  C   UNL     1      24.139  47.752  49.930  1.00  0.00     0.039 A 
HETATM    3  C   UNL     1      24.390  48.774  48.990  1.00  0.00     0.030 A 
HETATM    4  C   UNL     1      25.704  49.158  48.760  1.00  0.00     0.063 A 
HETATM    5  N   UNL     1      25.633  50.138  47.811  1.00  0.00    -0.277 N 
HETATM    6  H   UNL     1      26.406  50.648  47.397  1.00  0.00     0.189 HD
HETATM    7  N   UNL     1      24.387  50.432  47.403  1.00  0.00    -0.168 NA
HETATM    8  C   UNL     1      23.607  49.592  48.122  1.00  0.00     0.156 A 
HETATM    9  C   UNL     1      26.789  48.575  49.413  1.00  0.00     0.034 A 
HETATM   10  C   UNL     1      26.505  47.565  50.346  1.00  0.00     0.026 A 
ENDROOT
BRANCH   1  11
HETATM   11  N   UNL     1      24.899  46.105  51.514  1.00  0.00    -0.289 NA
HETATM   12  H   UNL     1      25.082  46.347  52.487  1.00  0.00     0.128 HD
BRANCH  11  13
HETATM   13  C   UNL     1      25.348  44.760  51.189  1.00  0.00     0.131 C 
BRANCH  13  14
HETATM   14  C   UNL     1      26.358  44.301  52.215  1.00  0.00    -0.045 A 
HETATM   15  C   UNL     1      25.978  44.128  53.554  1.00  0.00     0.011 A 
HETATM   16  C   UNL     1      26.897  43.682  54.509  1.00  0.00     0.037 A 
HETATM   17  C   UNL     1      28.211  43.400  54.138  1.00  0.00     0.068 A 
HETATM   18  C   UNL     1      28.600  43.593  52.810  1.00  0.00     0.037 A 
HETATM   19  C   UNL     1      27.685  44.040  51.854  1.00  0.00     0.011 A 
BRANCH  17  20
HETATM   20  O   UNL     1      29.201  42.945  54.964  1.00  0.00    -0.351 OA
BRANCH  20  21
HETATM   21  C   UNL     1      30.537  43.342  54.652  1.00  0.00     0.179 C 
BRANCH  21  22
HETATM   22  C   UNL     1      31.121  44.106  55.851  1.00  0.00     0.002 C 
HETATM   23  C   UNL     1      31.353  43.176  57.044  1.00  0.00     0.011 C 
HETATM   24  C   UNL     1      30.201  45.258  56.248  1.00  0.00     0.011 C 
ENDBRANCH  21  22
ENDBRANCH  20  21
ENDBRANCH  17  20
ENDBRANCH  13  14
ENDBRANCH  11  13
ENDBRANCH   1  11
BRANCH   8  25
HETATM   25  C   UNL     1      22.146  49.590  47.973  1.00  0.00     0.270 C 
HETATM   26  N   UNL     1      21.553  50.787  48.267  1.00  0.00    -0.365 N 
HETATM   27  H   UNL     1      22.141  51.560  48.558  1.00  0.00     0.159 HD
HETATM   28  H   UNL     1      20.553  50.883  48.194  1.00  0.00     0.159 HD
HETATM   29  O   UNL     1      21.482  48.620  47.620  1.00  0.00    -0.266 OA
ENDBRANCH   8  25
TORSDOF 7
ENDMDL
MODEL 3
REMARK VINA RESULT:      -8.2      3.458      9.214
REMARK  7 active torsions:
REMARK  status: ('A' for Active; 'I' for Inactive)
REMARK    1  A    between atoms: C_2  and  C_3 
REMARK    2  A    between atoms: C_3  and  O_4 
REMARK    3  A    between atoms: O_4  and  C_5 
REMARK    4  A    between atoms: C_8  and  C_9 
REMARK    5  A    between atoms: C_9  and  N_10 
REMARK    6  A    between atoms: N_10  and  C_11 
REMARK    7  A    between atoms: C_18  and  C_19 
REMARK       I    between atoms: C_19  and  N_20 
ROOT
HETATM    1  C   UNL     1      28.014  43.505  52.666  1.00  0.00     0.009 A 
HETATM    2  C   UNL     1      28.003  44.406  53.746  1.00  0.00     0.039 A 
HETATM    3  C   UNL     1      29.068  44.429  54.671  1.00  0.00     0.030 A 
HETATM    4  C   UNL     1      30.141  43.573  54.472  1.00  0.00     0.063 A 
HETATM    5  N   UNL     1      31.002  43.826  55.501  1.00  0.00    -0.277 N 
HETATM    6  H   UNL     1      31.899  43.384  55.673  1.00  0.00     0.189 HD
HETATM    7  N   UNL     1      30.584  44.772  56.359  1.00  0.00    -0.168 NA
HETATM    8  C   UNL     1      29.388  45.157  55.855  1.00  0.00     0.156 A 
HETATM    9  C   UNL     1      30.217  42.692  53.394  1.00  0.00     0.034 A 
HETATM   10  C   UNL     1      29.139  42.689  52.494  1.00  0.00     0.026 A 
ENDROOT
BRANCH   1  11
HETATM   11  N   UNL     1      26.966  43.572  51.738  1.00  0.00    -0.289 NA
HETATM   12  H   UNL     1      27.254  44.017  50.868  1.00  0.00     0.128 HD
BRANCH  11  13
HETATM   13  C   UNL     1      25.650  44.017  52.171  1.00  0.00     0.131 C 
BRANCH  13  14
HETATM   14  C   UNL     1      25.188  45.159  51.297  1.00  0.00    -0.045 A 
HETATM   15  C   UNL     1      24.238  44.941  50.289  1.00  0.00     0.011 A 
HETATM   16  C   UNL     1      23.786  45.994  49.487  1.00  0.00     0.037 A 
HETATM   17  C   UNL     1      24.276  47.284  49.684  1.00  0.00     0.068 A 
HETATM   18  C   UNL     1      25.240  47.503  50.671  1.00  0.00     0.037 A 
HETATM   19  C   UNL     1      25.695  46.453  51.473  1.00  0.00     0.011 A 
BRANCH  17  20
HETATM   20  O   UNL     1      23.910  48.399  48.985  1.00  0.00    -0.351 OA
BRANCH  20  21
HETATM   21  C   UNL     1      22.751  49.099  49.442  1.00  0.00     0.179 C 
BRANCH  21  22
HETATM   22  C   UNL     1      22.830  50.557  48.962  1.00  0.00     0.002 C 
HETATM   23  C   UNL     1      21.453  51.081  48.546  1.00  0.00     0.011 C 
HETATM   24  C   UNL     1      23.818  50.684  47.805  1.00  0.00     0.011 C 
ENDBRANCH  21  22
ENDBRANCH  20  21
ENDBRANCH  17  20
ENDBRANCH  13  14
ENDBRANCH  11  13
ENDBRANCH   1  11
BRANCH   8  25
HETATM   25  C   UNL     1      28.583  46.196  56.509  1.00  0.00     0.270 C 
HETATM   26  N   UNL     1      28.673  46.197  57.874  1.00  0.00    -0.365 N 
HETATM   27  H   UNL     1      29.266  45.505  58.321  1.00  0.00     0.159 HD
HETATM   28  H   UNL     1      28.155  46.874  58.411  1.00  0.00     0.159 HD
HETATM   29  O   UNL     1      27.878  47.008  55.918  1.00  0.00    -0.266 OA
ENDBRANCH   8  25
TORSDOF 7
ENDMDL
MODEL 4
REMARK VINA RESULT:      -8.1      2.026      3.177
REMARK  7 active torsions:
REMARK  status: ('A' for Active; 'I' for Inactive)
REMARK    1  A    between atoms: C_2  and  C_3 
REMARK    2  A    between atoms: C_3  and  O_4 
REMARK    3  A    between atoms: O_4  and  C_5 
REMARK    4  A    between atoms: C_8  and  C_9 
REMARK    5  A    between atoms: C_9  and  N_10 
REMARK    6  A    between atoms: N_10  and  C_11 
REMARK    7  A    between atoms: C_18  and  C_19 
REMARK       I    between atoms: C_19  and  N_20 
ROOT
HETATM    1  C   UNL     1      23.922  48.771  49.205  1.00  0.00     0.009 A 
HETATM    2  C   UNL     1      22.578  48.383  49.354  1.00  0.00     0.039 A 
HETATM    3  C   UNL     1      21.534  49.264  49.002  1.00  0.00     0.030 A 
HETATM    4  C   UNL     1      21.860  50.504  48.470  1.00  0.00     0.063 A 
HETATM    5  N   UNL     1      20.665  51.117  48.222  1.00  0.00    -0.277 N 
HETATM    6  H   UNL     1      20.520  52.039  47.827  1.00  0.00     0.189 HD
HETATM    7  N   UNL     1      19.584  50.387  48.549  1.00  0.00    -0.168 NA
HETATM    8  C   UNL     1      20.108  49.236  49.030  1.00  0.00     0.156 A 
HETATM    9  C   UNL     1      23.176  50.917  48.265  1.00  0.00     0.034 A 
HETATM   10  C   UNL     1      24.192  50.019  48.630  1.00  0.00     0.026 A 
ENDROOT
BRANCH   1  11
HETATM   11  N   UNL     1      24.918  47.832  49.503  1.00  0.00    -0.289 NA
HETATM   12  H   UNL     1      25.724  47.922  48.887  1.00  0.00     0.128 HD
BRANCH  11  13
HETATM   13  C   UNL     1      24.551  46.442  49.728  1.00  0.00     0.131 C 
BRANCH  13  14
HETATM   14  C   UNL     1      25.246  45.928  50.967  1.00  0.00    -0.045 A 
HETATM   15  C   UNL     1      25.416  44.550  51.165  1.00  0.00     0.011 A 
HETATM   16  C   UNL     1      26.077  44.063  52.296  1.00  0.00     0.037 A 
HETATM   17  C   UNL     1      26.582  44.949  53.248  1.00  0.00     0.068 A 
HETATM   18  C   UNL     1      26.394  46.321  53.068  1.00  0.00     0.037 A 
HETATM   19  C   UNL     1      25.732  46.811  51.939  1.00  0.00     0.011 A 
BRANCH  17  20
HETATM   20  O   UNL     1      27.258  44.608  54.386  1.00  0.00    -0.351 OA
BRANCH  20  21
HETATM   21  C   UNL     1      28.676  44.779  54.372  1.00  0.00     0.179 C 
BRANCH  21  22
HETATM   22  C   UNL     1      29.343  43.395  54.362  1.00  0.00     0.002 C 
HETATM   23  C   UNL     1      30.527  43.341  55.331  1.00  0.00     0.011 C 
HETATM   24  C   UNL     1      29.797  43.032  52.950  1.00  0.00     0.011 C 
ENDBRANCH  21  22
ENDBRANCH  20  21
ENDBRANCH  17  20
ENDBRANCH  13  14
ENDBRANCH  11  13
ENDBRANCH   1  11
BRANCH   8  25
HETATM   25  C   UNL     1      19.246  48.146  49.505  1.00  0.00     0.270 C 
HETATM   26  N   UNL     1      18.989  48.182  50.849  1.00  0.00    -0.365 N 
HETATM   27  H   UNL     1      19.398  48.929  51.400  1.00  0.00     0.159 HD
HETATM   28  H   UNL     1      18.408  47.475  51.268  1.00  0.00     0.159 HD
HETATM   29  O   UNL     1      18.781  47.262  48.792  1.00  0.00    -0.266 OA
ENDBRANCH   8  25
TORSDOF 7
ENDMDL
MODEL 5
REMARK VINA RESULT:      -7.9      2.683      4.363
REMARK  7 active torsions:
REMARK  status: ('A' for Active; 'I' for Inactive)
REMARK    1  A    between atoms: C_2  and  C_3 
REMARK    2  A    between atoms: C_3  and  O_4 
REMARK    3  A    between atoms: O_4  and  C_5 
REMARK    4  A    between atoms: C_8  and  C_9 
REMARK    5  A    between atoms: C_9  and  N_10 
REMARK    6  A    between atoms: N_10  and  C_11 
REMARK    7  A    between atoms: C_18  and  C_19 
REMARK       I    between atoms: C_19  and  N_20 
ROOT
HETATM    1  C   UNL     1      22.952  49.151  48.871  1.00  0.00     0.009 A 
HETATM    2  C   UNL     1      21.753  48.877  49.554  1.00  0.00     0.039 A 
HETATM    3  C   UNL     1      20.722  49.837  49.606  1.00  0.00     0.030 A 
HETATM    4  C   UNL     1      20.900  51.042  48.940  1.00  0.00     0.063 A 
HETATM    5  N   UNL     1      19.752  51.749  49.158  1.00  0.00    -0.277 N 
HETATM    6  H   UNL     1      19.529  52.677  48.815  1.00  0.00     0.189 HD
HETATM    7  N   UNL     1      18.840  51.114  49.913  1.00  0.00    -0.168 NA
HETATM    8  C   UNL     1      19.425  49.927  50.195  1.00  0.00     0.156 A 
HETATM    9  C   UNL     1      22.053  51.343  48.216  1.00  0.00     0.034 A 
HETATM   10  C   UNL     1      23.063  50.368  48.187  1.00  0.00     0.026 A 
ENDROOT
BRANCH   1  11
HETATM   11  N   UNL     1      23.915  48.135  48.791  1.00  0.00    -0.289 NA
HETATM   12  H   UNL     1      23.520  47.219  48.998  1.00  0.00     0.128 HD
BRANCH  11  13
HETATM   13  C   UNL     1      25.215  48.327  49.414  1.00  0.00     0.131 C 
BRANCH  13  14
HETATM   14  C   UNL     1      25.581  47.097  50.212  1.00  0.00    -0.045 A 
HETATM   15  C   UNL     1      25.709  45.853  49.578  1.00  0.00     0.011 A 
HETATM   16  C   UNL     1      26.069  44.712  50.302  1.00  0.00     0.037 A 
HETATM   17  C   UNL     1      26.308  44.799  51.672  1.00  0.00     0.068 A 
HETATM   18  C   UNL     1      26.157  46.031  52.314  1.00  0.00     0.037 A 
HETATM   19  C   UNL     1      25.797  47.173  51.593  1.00  0.00     0.011 A 
BRANCH  17  20
HETATM   20  O   UNL     1      26.678  43.769  52.492  1.00  0.00    -0.351 OA
BRANCH  20  21
HETATM   21  C   UNL     1      27.914  43.118  52.194  1.00  0.00     0.179 C 
BRANCH  21  22
HETATM   22  C   UNL     1      29.010  43.691  53.106  1.00  0.00     0.002 C 
HETATM   23  C   UNL     1      30.226  42.764  53.166  1.00  0.00     0.011 C 
HETATM   24  C   UNL     1      28.461  43.937  54.509  1.00  0.00     0.011 C 
ENDBRANCH  21  22
ENDBRANCH  20  21
ENDBRANCH  17  20
ENDBRANCH  13  14
ENDBRANCH  11  13
ENDBRANCH   1  11
BRANCH   8  25
HETATM   25  C   UNL     1      18.746  48.916  51.015  1.00  0.00     0.270 C 
HETATM   26  N   UNL     1      18.249  47.860  50.301  1.00  0.00    -0.365 N 
HETATM   27  H   UNL     1      18.378  47.851  49.295  1.00  0.00     0.159 HD
HETATM   28  H   UNL     1      17.766  47.115  50.777  1.00  0.00     0.159 HD
HETATM   29  O   UNL     1      18.615  48.978  52.233  1.00  0.00    -0.266 OA
ENDBRANCH   8  25
TORSDOF 7
ENDMDL
MODEL 6
REMARK VINA RESULT:      -7.8      3.001      9.656
REMARK  7 active torsions:
REMARK  status: ('A' for Active; 'I' for Inactive)
REMARK    1  A    between atoms: C_2  and  C_3 
REMARK    2  A    between atoms: C_3  and  O_4 
REMARK    3  A    between atoms: O_4  and  C_5 
REMARK    4  A    between atoms: C_8  and  C_9 
REMARK    5  A    between atoms: C_9  and  N_10 
REMARK    6  A    between atoms: N_10  and  C_11 
REMARK    7  A    between atoms: C_18  and  C_19 
REMARK       I    between atoms: C_19  and  N_20 
ROOT
HETATM    1  C   UNL     1      26.079  46.272  51.398  1.00  0.00     0.009 A 
HETATM    2  C   UNL     1      26.538  44.947  51.517  1.00  0.00     0.039 A 
HETATM    3  C   UNL     1      27.034  44.468  52.747  1.00  0.00     0.030 A 
HETATM    4  C   UNL     1      27.025  45.318  53.845  1.00  0.00     0.063 A 
HETATM    5  N   UNL     1      27.546  44.586  54.874  1.00  0.00    -0.277 N 
HETATM    6  H   UNL     1      27.685  44.888  55.831  1.00  0.00     0.189 HD
HETATM    7  N   UNL     1      27.898  43.331  54.544  1.00  0.00    -0.168 NA
HETATM    8  C   UNL     1      27.583  43.243  53.231  1.00  0.00     0.156 A 
HETATM    9  C   UNL     1      26.543  46.625  53.786  1.00  0.00     0.034 A 
HETATM   10  C   UNL     1      26.061  47.074  52.546  1.00  0.00     0.026 A 
ENDROOT
BRANCH   1  11
HETATM   11  N   UNL     1      25.532  46.674  50.172  1.00  0.00    -0.289 NA
HETATM   12  H   UNL     1      25.556  45.928  49.480  1.00  0.00     0.128 HD
BRANCH  11  13
HETATM   13  C   UNL     1      25.906  47.961  49.605  1.00  0.00     0.131 C 
BRANCH  13  14
HETATM   14  C   UNL     1      24.668  48.683  49.128  1.00  0.00    -0.045 A 
HETATM   15  C   UNL     1      24.781  49.858  48.369  1.00  0.00     0.011 A 
HETATM   16  C   UNL     1      23.644  50.523  47.902  1.00  0.00     0.037 A 
HETATM   17  C   UNL     1      22.374  50.022  48.185  1.00  0.00     0.068 A 
HETATM   18  C   UNL     1      22.255  48.866  48.960  1.00  0.00     0.037 A 
HETATM   19  C   UNL     1      23.390  48.199  49.430  1.00  0.00     0.011 A 
BRANCH  17  20
HETATM   20  O   UNL     1      21.186  50.564  47.779  1.00  0.00    -0.351 OA
BRANCH  20  21
HETATM   21  C   UNL     1      20.629  51.592  48.601  1.00  0.00     0.179 C 
BRANCH  21  22
HETATM   22  C   UNL     1      19.156  51.257  48.883  1.00  0.00     0.002 C 
HETATM   23  C   UNL     1      18.296  52.522  48.923  1.00  0.00     0.011 C 
HETATM   24  C   UNL     1      19.027  50.487  50.195  1.00  0.00     0.011 C 
ENDBRANCH  21  22
ENDBRANCH  20  21
ENDBRANCH  17  20
ENDBRANCH  13  14
ENDBRANCH  11  13
ENDBRANCH   1  11
BRANCH   8  25
HETATM   25  C   UNL     1      27.814  42.008  52.471  1.00  0.00     0.270 C 
HETATM   26  N   UNL     1      27.366  40.876  53.095  1.00  0.00    -0.365 N 
HETATM   27  H   UNL     1      26.925  40.966  54.004  1.00  0.00     0.159 HD
HETATM   28  H   UNL     1      27.481  39.980  52.651  1.00  0.00     0.159 HD
HETATM   29  O   UNL     1      28.359  41.956  51.373  1.00  0.00    -0.266 OA
ENDBRANCH   8  25
TORSDOF 7
ENDMDL
MODEL 7
REMARK VINA RESULT:      -7.7      5.655      9.561
REMARK  7 active torsions:
REMARK  status: ('A' for Active; 'I' for Inactive)
REMARK    1  A    between atoms: C_2  and  C_3 
REMARK    2  A    between atoms: C_3  and  O_4 
REMARK    3  A    between atoms: O_4  and  C_5 
REMARK    4  A    between atoms: C_8  and  C_9 
REMARK    5  A    between atoms: C_9  and  N_10 
REMARK    6  A    between atoms: N_10  and  C_11 
REMARK    7  A    between atoms: C_18  and  C_19 
REMARK       I    between atoms: C_19  and  N_20 
ROOT
HETATM    1  C   UNL     1      27.210  41.668  50.349  1.00  0.00     0.009 A 
HETATM    2  C   UNL     1      27.924  40.479  50.584  1.00  0.00     0.039 A 
HETATM    3  C   UNL     1      28.263  39.624  49.515  1.00  0.00     0.030 A 
HETATM    4  C   UNL     1      27.911  39.997  48.226  1.00  0.00     0.063 A 
HETATM    5  N   UNL     1      28.372  38.995  47.420  1.00  0.00    -0.277 N 
HETATM    6  H   UNL     1      28.295  38.936  46.411  1.00  0.00     0.189 HD
HETATM    7  N   UNL     1      28.992  37.996  48.071  1.00  0.00    -0.168 NA
HETATM    8  C   UNL     1      28.935  38.373  49.369  1.00  0.00     0.156 A 
HETATM    9  C   UNL     1      27.240  41.185  47.939  1.00  0.00     0.034 A 
HETATM   10  C   UNL     1      26.913  42.013  49.025  1.00  0.00     0.026 A 
ENDROOT
BRANCH   1  11
HETATM   11  N   UNL     1      26.961  42.516  51.437  1.00  0.00    -0.289 NA
HETATM   12  H   UNL     1      25.966  42.695  51.562  1.00  0.00     0.128 HD
BRANCH  11  13
HETATM   13  C   UNL     1      27.761  43.720  51.608  1.00  0.00     0.131 C 
BRANCH  13  14
HETATM   14  C   UNL     1      26.936  44.932  51.242  1.00  0.00    -0.045 A 
HETATM   15  C   UNL     1      26.899  45.391  49.918  1.00  0.00     0.011 A 
HETATM   16  C   UNL     1      26.122  46.498  49.563  1.00  0.00     0.037 A 
HETATM   17  C   UNL     1      25.367  47.161  50.528  1.00  0.00     0.068 A 
HETATM   18  C   UNL     1      25.419  46.723  51.854  1.00  0.00     0.037 A 
HETATM   19  C   UNL     1      26.195  45.618  52.212  1.00  0.00     0.011 A 
BRANCH  17  20
HETATM   20  O   UNL     1      24.557  48.242  50.314  1.00  0.00    -0.351 OA
BRANCH  20  21
HETATM   21  C   UNL     1      23.786  48.244  49.111  1.00  0.00     0.179 C 
BRANCH  21  22
HETATM   22  C   UNL     1      24.023  49.571  48.373  1.00  0.00     0.002 C 
HETATM   23  C   UNL     1      25.514  49.905  48.293  1.00  0.00     0.011 C 
HETATM   24  C   UNL     1      23.262  50.705  49.056  1.00  0.00     0.011 C 
ENDBRANCH  21  22
ENDBRANCH  20  21
ENDBRANCH  17  20
ENDBRANCH  13  14
ENDBRANCH  11  13
ENDBRANCH   1  11
BRANCH   8  25
HETATM   25  C   UNL     1      29.511  37.541  50.432  1.00  0.00     0.270 C 
HETATM   26  N   UNL     1      28.693  36.530  50.856  1.00  0.00    -0.365 N 
HETATM   27  H   UNL     1      27.781  36.432  50.424  1.00  0.00     0.159 HD
HETATM   28  H   UNL     1      29.002  35.906  51.584  1.00  0.00     0.159 HD
HETATM   29  O   UNL     1      30.624  37.707  50.923  1.00  0.00    -0.266 OA
ENDBRANCH   8  25
TORSDOF 7
ENDMDL
MODEL 8
REMARK VINA RESULT:      -7.6      2.637     10.088
REMARK  7 active torsions:
REMARK  status: ('A' for Active; 'I' for Inactive)
REMARK    1  A    between atoms: C_2  and  C_3 
REMARK    2  A    between atoms: C_3  and  O_4 
REMARK    3  A    between atoms: O_4  and  C_5 
REMARK    4  A    between atoms: C_8  and  C_9 
REMARK    5  A    between atoms: C_9  and  N_10 
REMARK    6  A    between atoms: N_10  and  C_11 
REMARK    7  A    between atoms: C_18  and  C_19 
REMARK       I    between atoms: C_19  and  N_20 
ROOT
HETATM    1  C   UNL     1      25.372  46.289  51.802  1.00  0.00     0.009 A 
HETATM    2  C   UNL     1      26.374  46.250  52.788  1.00  0.00     0.039 A 
HETATM    3  C   UNL     1      26.786  45.021  53.344  1.00  0.00     0.030 A 
HETATM    4  C   UNL     1      26.209  43.850  52.871  1.00  0.00     0.063 A 
HETATM    5  N   UNL     1      26.803  42.843  53.577  1.00  0.00    -0.277 N 
HETATM    6  H   UNL     1      26.627  41.848  53.491  1.00  0.00     0.189 HD
HETATM    7  N   UNL     1      27.716  43.253  54.474  1.00  0.00    -0.168 NA
HETATM    8  C   UNL     1      27.718  44.599  54.338  1.00  0.00     0.156 A 
HETATM    9  C   UNL     1      25.243  43.835  51.866  1.00  0.00     0.034 A 
HETATM   10  C   UNL     1      24.851  45.075  51.337  1.00  0.00     0.026 A 
ENDROOT
BRANCH   1  11
HETATM   11  N   UNL     1      25.052  47.530  51.233  1.00  0.00    -0.289 NA
HETATM   12  H   UNL     1      24.107  47.826  51.471  1.00  0.00     0.128 HD
BRANCH  11  13
HETATM   13  C   UNL     1      25.373  47.785  49.837  1.00  0.00     0.131 C 
BRANCH  13  14
HETATM   14  C   UNL     1      24.211  48.482  49.170  1.00  0.00    -0.045 A 
HETATM   15  C   UNL     1      22.945  47.879  49.141  1.00  0.00     0.011 A 
HETATM   16  C   UNL     1      21.856  48.524  48.546  1.00  0.00     0.037 A 
HETATM   17  C   UNL     1      22.017  49.784  47.973  1.00  0.00     0.068 A 
HETATM   18  C   UNL     1      23.281  50.379  47.978  1.00  0.00     0.037 A 
HETATM   19  C   UNL     1      24.371  49.737  48.570  1.00  0.00     0.011 A 
BRANCH  17  20
HETATM   20  O   UNL     1      21.037  50.527  47.375  1.00  0.00    -0.351 OA
BRANCH  20  21
HETATM   21  C   UNL     1      19.719  49.976  47.368  1.00  0.00     0.179 C 
BRANCH  21  22
HETATM   22  C   UNL     1      18.717  51.079  47.744  1.00  0.00     0.002 C 
HETATM   23  C   UNL     1      17.949  51.574  46.516  1.00  0.00     0.011 C 
HETATM   24  C   UNL     1      19.436  52.242  48.424  1.00  0.00     0.011 C 
ENDBRANCH  21  22
ENDBRANCH  20  21
ENDBRANCH  17  20
ENDBRANCH  13  14
ENDBRANCH  11  13
ENDBRANCH   1  11
BRANCH   8  25
HETATM   25  C   UNL     1      28.597  45.447  55.154  1.00  0.00     0.270 C 
HETATM   26  N   UNL     1      29.755  44.835  55.549  1.00  0.00    -0.365 N 
HETATM   27  H   UNL     1      29.917  43.876  55.263  1.00  0.00     0.159 HD
HETATM   28  H   UNL     1      30.421  45.338  56.113  1.00  0.00     0.159 HD
HETATM   29  O   UNL     1      28.347  46.605  55.474  1.00  0.00    -0.266 OA
ENDBRANCH   8  25
TORSDOF 7
ENDMDL
MODEL 9
REMARK VINA RESULT:      -7.6     17.572     21.401
REMARK  7 active torsions:
REMARK  status: ('A' for Active; 'I' for Inactive)
REMARK    1  A    between atoms: C_2  and  C_3 
REMARK    2  A    between atoms: C_3  and  O_4 
REMARK    3  A    between atoms: O_4  and  C_5 
REMARK    4  A    between atoms: C_8  and  C_9 
REMARK    5  A    between atoms: C_9  and  N_10 
REMARK    6  A    between atoms: N_10  and  C_11 
REMARK    7  A    between atoms: C_18  and  C_19 
REMARK       I    between atoms: C_19  and  N_20 
ROOT
HETATM    1  C   UNL     1      40.447  38.725  64.781  1.00  0.00     0.009 A 
HETATM    2  C   UNL     1      39.828  37.742  65.575  1.00  0.00     0.039 A 
HETATM    3  C   UNL     1      40.479  36.518  65.837  1.00  0.00     0.030 A 
HETATM    4  C   UNL     1      41.755  36.320  65.327  1.00  0.00     0.063 A 
HETATM    5  N   UNL     1      42.122  35.073  65.747  1.00  0.00    -0.277 N 
HETATM    6  H   UNL     1      42.999  34.598  65.563  1.00  0.00     0.189 HD
HETATM    7  N   UNL     1      41.196  34.436  66.483  1.00  0.00    -0.168 NA
HETATM    8  C   UNL     1      40.174  35.320  66.550  1.00  0.00     0.156 A 
HETATM    9  C   UNL     1      42.425  37.280  64.571  1.00  0.00     0.034 A 
HETATM   10  C   UNL     1      41.749  38.485  64.323  1.00  0.00     0.026 A 
ENDROOT
BRANCH   1  11
HETATM   11  N   UNL     1      39.786  39.949  64.611  1.00  0.00    -0.289 NA
HETATM   12  H   UNL     1      38.900  39.977  65.112  1.00  0.00     0.128 HD
BRANCH  11  13
HETATM   13  C   UNL     1      39.685  40.532  63.281  1.00  0.00     0.131 C 
BRANCH  13  14
HETATM   14  C   UNL     1      38.902  41.822  63.353  1.00  0.00    -0.045 A 
HETATM   15  C   UNL     1      39.373  42.973  62.704  1.00  0.00     0.011 A 
HETATM   16  C   UNL     1      38.646  44.167  62.744  1.00  0.00     0.037 A 
HETATM   17  C   UNL     1      37.436  44.228  63.433  1.00  0.00     0.068 A 
HETATM   18  C   UNL     1      36.974  43.091  64.100  1.00  0.00     0.037 A 
HETATM   19  C   UNL     1      37.698  41.896  64.064  1.00  0.00     0.011 A 
BRANCH  17  20
HETATM   20  O   UNL     1      36.623  45.322  63.537  1.00  0.00    -0.351 OA
BRANCH  20  21
HETATM   21  C   UNL     1      36.067  45.594  64.825  1.00  0.00     0.179 C 
BRANCH  21  22
HETATM   22  C   UNL     1      36.621  46.935  65.332  1.00  0.00     0.002 C 
HETATM   23  C   UNL     1      35.692  47.563  66.373  1.00  0.00     0.011 C 
HETATM   24  C   UNL     1      36.839  47.897  64.166  1.00  0.00     0.011 C 
ENDBRANCH  21  22
ENDBRANCH  20  21
ENDBRANCH  17  20
ENDBRANCH  13  14
ENDBRANCH  11  13
ENDBRANCH   1  11
BRANCH   8  25
HETATM   25  C   UNL     1      38.939  35.007  67.281  1.00  0.00     0.270 C 
HETATM   26  N   UNL     1      37.965  34.434  66.511  1.00  0.00    -0.365 N 
HETATM   27  H   UNL     1      38.155  34.274  65.528  1.00  0.00     0.159 HD
HETATM   28  H   UNL     1      37.081  34.184  66.925  1.00  0.00     0.159 HD
HETATM   29  O   UNL     1      38.760  35.227  68.475  1.00  0.00    -0.266 OA
ENDBRANCH   8  25
TORSDOF 7
ENDMDL
MODEL 10
REMARK VINA RESULT:      -7.5      4.377     10.775
REMARK  7 active torsions:
REMARK  status: ('A' for Active; 'I' for Inactive)
REMARK    1  A    between atoms: C_2  and  C_3 
REMARK    2  A    between atoms: C_3  and  O_4 
REMARK    3  A    between atoms: O_4  and  C_5 
REMARK    4  A    between atoms: C_8  and  C_9 
REMARK    5  A    between atoms: C_9  and  N_10 
REMARK    6  A    between atoms: N_10  and  C_11 
REMARK    7  A    between atoms: C_18  and  C_19 
REMARK       I    between atoms: C_19  and  N_20 
ROOT
HETATM    1  C   UNL     1      23.538  49.229  49.172  1.00  0.00     0.009 A 
HETATM    2  C   UNL     1      24.233  48.080  49.591  1.00  0.00     0.039 A 
HETATM    3  C   UNL     1      25.615  47.947  49.344  1.00  0.00     0.030 A 
HETATM    4  C   UNL     1      26.281  48.989  48.714  1.00  0.00     0.063 A 
HETATM    5  N   UNL     1      27.583  48.584  48.624  1.00  0.00    -0.277 N 
HETATM    6  H   UNL     1      28.358  49.099  48.221  1.00  0.00     0.189 HD
HETATM    7  N   UNL     1      27.825  47.365  49.136  1.00  0.00    -0.168 NA
HETATM    8  C   UNL     1      26.616  46.960  49.589  1.00  0.00     0.156 A 
HETATM    9  C   UNL     1      25.645  50.165  48.319  1.00  0.00     0.034 A 
HETATM   10  C   UNL     1      24.268  50.264  48.574  1.00  0.00     0.026 A 
ENDROOT
BRANCH   1  11
HETATM   11  N   UNL     1      22.182  49.340  49.506  1.00  0.00    -0.289 NA
HETATM   12  H   UNL     1      21.591  48.784  48.890  1.00  0.00     0.128 HD
BRANCH  11  13
HETATM   13  C   UNL     1      21.613  50.652  49.775  1.00  0.00     0.131 C 
BRANCH  13  14
HETATM   14  C   UNL     1      20.512  50.940  48.782  1.00  0.00    -0.045 A 
HETATM   15  C   UNL     1      20.374  50.153  47.629  1.00  0.00     0.011 A 
HETATM   16  C   UNL     1      19.345  50.396  46.713  1.00  0.00     0.037 A 
HETATM   17  C   UNL     1      18.437  51.429  46.938  1.00  0.00     0.068 A 
HETATM   18  C   UNL     1      18.584  52.231  48.072  1.00  0.00     0.037 A 
HETATM   19  C   UNL     1      19.612  51.992  48.989  1.00  0.00     0.011 A 
BRANCH  17  20
HETATM   20  O   UNL     1      17.382  51.763  46.135  1.00  0.00    -0.351 OA
BRANCH  20  21
HETATM   21  C   UNL     1      16.101  51.871  46.760  1.00  0.00     0.179 C 
BRANCH  21  22
HETATM   22  C   UNL     1      15.326  50.564  46.532  1.00  0.00     0.002 C 
HETATM   23  C   UNL     1      15.525  49.589  47.695  1.00  0.00     0.011 C 
HETATM   24  C   UNL     1      15.751  49.914  45.217  1.00  0.00     0.011 C 
ENDBRANCH  21  22
ENDBRANCH  20  21
ENDBRANCH  17  20
ENDBRANCH  13  14
ENDBRANCH  11  13
ENDBRANCH   1  11
BRANCH   8  25
HETATM   25  C   UNL     1      26.441  45.653  50.234  1.00  0.00     0.270 C 
HETATM   26  N   UNL     1      26.136  44.639  49.368  1.00  0.00    -0.365 N 
HETATM   27  H   UNL     1      26.054  44.854  48.381  1.00  0.00     0.159 HD
HETATM   28  H   UNL     1      25.996  43.705  49.718  1.00  0.00     0.159 HD
HETATM   29  O   UNL     1      26.549  45.450  51.439  1.00  0.00    -0.266 OA
ENDBRANCH   8  25
TORSDOF 7
ENDMDL
