MODEL 1
REMARK VINA RESULT:      -7.9      0.000      0.000
REMARK  3 active torsions:
REMARK  status: ('A' for Active; 'I' for Inactive)
REMARK    1  A    between atoms: O_2  and  C_3 
REMARK    2  A    between atoms: C_4  and  C_5 
REMARK    3  A    between atoms: C_16  and  N_17 
ROOT
HETATM    1  C   UNL     1      26.123  44.996  50.618  1.00  0.00     0.246 A 
HETATM    2  N   UNL     1      25.524  46.189  50.063  1.00  0.00    -0.151 N 
HETATM    3  C   UNL     1      24.178  46.248  49.808  1.00  0.00     0.734 A 
HETATM    4  N   UNL     1      23.881  47.419  49.287  1.00  0.00    -0.060 NA
HETATM    5  C   UNL     1      25.064  48.105  49.173  1.00  0.00     0.103 A 
HETATM    6  C   UNL     1      26.128  47.343  49.642  1.00  0.00     0.083 A 
HETATM    7  C   UNL     1      25.307  49.390  48.667  1.00  0.00     0.034 A 
HETATM    8  C   UNL     1      26.623  49.868  48.650  1.00  0.00     0.002 A 
HETATM    9  C   UNL     1      27.675  49.082  49.126  1.00  0.00     0.002 A 
HETATM   10  C   UNL     1      27.453  47.796  49.635  1.00  0.00     0.033 A 
HETATM   11  N   UNL     1      23.338  45.221  50.065  1.00  0.00    -0.033 NA
HETATM   12  C   UNL     1      23.826  44.109  50.483  1.00  0.00     0.193 A 
HETATM   13  N   UNL     1      25.182  43.884  50.736  1.00  0.00    -0.338 N 
HETATM   14  H   UNL     1      25.516  43.017  51.127  1.00  0.00     0.164 HD
ENDROOT
BRANCH   1  15
HETATM   15  C   UNL     1      26.744  45.198  51.994  1.00  0.00     0.020 A 
HETATM   16  C   UNL     1      27.658  44.236  52.478  1.00  0.00     0.078 A 
HETATM   17  C   UNL     1      28.216  44.375  53.752  1.00  0.00     0.039 A 
HETATM   18  C   UNL     1      27.882  45.469  54.553  1.00  0.00     0.022 A 
HETATM   19  C   UNL     1      26.977  46.415  54.089  1.00  0.00     0.011 A 
HETATM   20  C   UNL     1      26.396  46.280  52.828  1.00  0.00     0.033 A 
HETATM   21 BR   UNL     1      26.520  47.892  55.177  1.00  0.00    -0.051 Br
BRANCH  16  22
HETATM   22  O   UNL     1      27.899  43.176  51.642  1.00  0.00    -0.355 OA
HETATM   23  C   UNL     1      27.892  41.878  52.234  1.00  0.00     0.210 C 
ENDBRANCH  16  22
ENDBRANCH   1  15
BRANCH  12  24
HETATM   24  N   UNL     1      23.066  43.024  50.736  1.00  0.00    -0.272 NA
HETATM   25  H   UNL     1      23.482  42.451  51.468  1.00  0.00     0.127 HD
HETATM   26  H   UNL     1      22.085  43.194  50.919  1.00  0.00     0.127 HD
ENDBRANCH  12  24
TORSDOF 3
ENDMDL
MODEL 2
REMARK VINA RESULT:      -7.8      6.185      8.071
REMARK  3 active torsions:
REMARK  status: ('A' for Active; 'I' for Inactive)
REMARK    1  A    between atoms: O_2  and  C_3 
REMARK    2  A    between atoms: C_4  and  C_5 
REMARK    3  A    between atoms: C_16  and  N_17 
ROOT
HETATM    1  C   UNL     1      19.125  47.983  49.065  1.00  0.00     0.246 A 
HETATM    2  N   UNL     1      18.701  49.280  48.585  1.00  0.00    -0.151 N 
HETATM    3  C   UNL     1      18.328  50.267  49.461  1.00  0.00     0.734 A 
HETATM    4  N   UNL     1      17.964  51.337  48.787  1.00  0.00    -0.060 NA
HETATM    5  C   UNL     1      18.072  51.014  47.457  1.00  0.00     0.103 A 
HETATM    6  C   UNL     1      18.523  49.708  47.297  1.00  0.00     0.083 A 
HETATM    7  C   UNL     1      17.794  51.791  46.324  1.00  0.00     0.034 A 
HETATM    8  C   UNL     1      17.979  51.221  45.058  1.00  0.00     0.002 A 
HETATM    9  C   UNL     1      18.431  49.907  44.924  1.00  0.00     0.002 A 
HETATM   10  C   UNL     1      18.714  49.115  46.044  1.00  0.00     0.033 A 
HETATM   11  N   UNL     1      18.342  50.100  50.803  1.00  0.00    -0.033 NA
HETATM   12  C   UNL     1      18.633  48.944  51.282  1.00  0.00     0.193 A 
HETATM   13  N   UNL     1      18.980  47.832  50.511  1.00  0.00    -0.338 N 
HETATM   14  H   UNL     1      19.265  46.960  50.930  1.00  0.00     0.164 HD
ENDROOT
BRANCH   1  15
HETATM   15  C   UNL     1      20.570  47.640  48.727  1.00  0.00     0.020 A 
HETATM   16  C   UNL     1      20.904  46.297  48.446  1.00  0.00     0.078 A 
HETATM   17  C   UNL     1      22.229  45.946  48.169  1.00  0.00     0.039 A 
HETATM   18  C   UNL     1      23.230  46.920  48.158  1.00  0.00     0.022 A 
HETATM   19  C   UNL     1      22.911  48.242  48.443  1.00  0.00     0.011 A 
HETATM   20  C   UNL     1      21.598  48.604  48.741  1.00  0.00     0.033 A 
HETATM   21 BR   UNL     1      24.268  49.557  48.434  1.00  0.00    -0.051 Br
BRANCH  16  22
HETATM   22  O   UNL     1      19.868  45.402  48.517  1.00  0.00    -0.355 OA
HETATM   23  C   UNL     1      19.473  44.781  47.295  1.00  0.00     0.210 C 
ENDBRANCH  16  22
ENDBRANCH   1  15
BRANCH  12  24
HETATM   24  N   UNL     1      18.642  48.681  52.605  1.00  0.00    -0.272 NA
HETATM   25  H   UNL     1      19.405  48.052  52.844  1.00  0.00     0.127 HD
HETATM   26  H   UNL     1      18.621  49.481  53.223  1.00  0.00     0.127 HD
ENDBRANCH  12  24
TORSDOF 3
ENDMDL
MODEL 3
REMARK VINA RESULT:      -7.5      2.501      5.445
REMARK  3 active torsions:
REMARK  status: ('A' for Active; 'I' for Inactive)
REMARK    1  A    between atoms: O_2  and  C_3 
REMARK    2  A    between atoms: C_4  and  C_5 
REMARK    3  A    between atoms: C_16  and  N_17 
ROOT
HETATM    1  C   UNL     1      24.377  45.933  50.389  1.00  0.00     0.246 A 
HETATM    2  N   UNL     1      25.431  45.435  51.245  1.00  0.00    -0.151 N 
HETATM    3  C   UNL     1      26.092  44.271  50.945  1.00  0.00     0.734 A 
HETATM    4  N   UNL     1      26.982  44.018  51.879  1.00  0.00    -0.060 NA
HETATM    5  C   UNL     1      26.862  45.018  52.812  1.00  0.00     0.103 A 
HETATM    6  C   UNL     1      25.873  45.924  52.445  1.00  0.00     0.083 A 
HETATM    7  C   UNL     1      27.565  45.212  54.009  1.00  0.00     0.034 A 
HETATM    8  C   UNL     1      27.246  46.321  54.802  1.00  0.00     0.002 A 
HETATM    9  C   UNL     1      26.247  47.216  54.413  1.00  0.00     0.002 A 
HETATM   10  C   UNL     1      25.533  47.039  53.221  1.00  0.00     0.033 A 
HETATM   11  N   UNL     1      25.816  43.535  49.844  1.00  0.00    -0.033 NA
HETATM   12  C   UNL     1      24.836  43.887  49.092  1.00  0.00     0.193 A 
HETATM   13  N   UNL     1      24.040  45.015  49.303  1.00  0.00    -0.338 N 
HETATM   14  H   UNL     1      23.323  45.293  48.651  1.00  0.00     0.164 HD
ENDROOT
BRANCH   1  15
HETATM   15  C   UNL     1      24.684  47.281  49.751  1.00  0.00     0.020 A 
HETATM   16  C   UNL     1      23.633  48.004  49.146  1.00  0.00     0.078 A 
HETATM   17  C   UNL     1      23.891  49.228  48.519  1.00  0.00     0.039 A 
HETATM   18  C   UNL     1      25.186  49.749  48.495  1.00  0.00     0.022 A 
HETATM   19  C   UNL     1      26.228  49.040  49.081  1.00  0.00     0.011 A 
HETATM   20  C   UNL     1      25.990  47.809  49.691  1.00  0.00     0.033 A 
HETATM   21 BR   UNL     1      27.981  49.744  49.041  1.00  0.00    -0.051 Br
BRANCH  16  22
HETATM   22  O   UNL     1      22.402  47.400  49.182  1.00  0.00    -0.355 OA
HETATM   23  C   UNL     1      21.278  48.215  48.851  1.00  0.00     0.210 C 
ENDBRANCH  16  22
ENDBRANCH   1  15
BRANCH  12  24
HETATM   24  N   UNL     1      24.472  43.195  47.992  1.00  0.00    -0.272 NA
HETATM   25  H   UNL     1      25.257  42.663  47.621  1.00  0.00     0.127 HD
HETATM   26  H   UNL     1      23.647  42.616  48.078  1.00  0.00     0.127 HD
ENDBRANCH  12  24
TORSDOF 3
ENDMDL
MODEL 4
REMARK VINA RESULT:      -7.5      2.749      5.433
REMARK  3 active torsions:
REMARK  status: ('A' for Active; 'I' for Inactive)
REMARK    1  A    between atoms: O_2  and  C_3 
REMARK    2  A    between atoms: C_4  and  C_5 
REMARK    3  A    between atoms: C_16  and  N_17 
ROOT
HETATM    1  C   UNL     1      25.875  43.822  52.242  1.00  0.00     0.246 A 
HETATM    2  N   UNL     1      27.066  44.137  53.000  1.00  0.00    -0.151 N 
HETATM    3  C   UNL     1      28.193  43.363  52.893  1.00  0.00     0.734 A 
HETATM    4  N   UNL     1      29.126  43.835  53.692  1.00  0.00    -0.060 NA
HETATM    5  C   UNL     1      28.572  44.906  54.348  1.00  0.00     0.103 A 
HETATM    6  C   UNL     1      27.258  45.112  53.941  1.00  0.00     0.083 A 
HETATM    7  C   UNL     1      29.134  45.750  55.316  1.00  0.00     0.034 A 
HETATM    8  C   UNL     1      28.348  46.781  55.845  1.00  0.00     0.002 A 
HETATM    9  C   UNL     1      27.031  46.966  55.422  1.00  0.00     0.002 A 
HETATM   10  C   UNL     1      26.451  46.133  54.456  1.00  0.00     0.033 A 
HETATM   11  N   UNL     1      28.269  42.285  52.081  1.00  0.00    -0.033 NA
HETATM   12  C   UNL     1      27.217  41.912  51.446  1.00  0.00     0.193 A 
HETATM   13  N   UNL     1      25.984  42.568  51.499  1.00  0.00    -0.338 N 
HETATM   14  H   UNL     1      25.201  42.281  50.933  1.00  0.00     0.164 HD
ENDROOT
BRANCH   1  15
HETATM   15  C   UNL     1      25.477  44.897  51.241  1.00  0.00     0.020 A 
HETATM   16  C   UNL     1      24.203  44.827  50.636  1.00  0.00     0.078 A 
HETATM   17  C   UNL     1      23.823  45.779  49.684  1.00  0.00     0.039 A 
HETATM   18  C   UNL     1      24.695  46.812  49.332  1.00  0.00     0.022 A 
HETATM   19  C   UNL     1      25.953  46.883  49.916  1.00  0.00     0.011 A 
HETATM   20  C   UNL     1      26.354  45.929  50.851  1.00  0.00     0.033 A 
HETATM   21 BR   UNL     1      27.135  48.276  49.433  1.00  0.00    -0.051 Br
BRANCH  16  22
HETATM   22  O   UNL     1      23.427  43.760  51.011  1.00  0.00    -0.355 OA
HETATM   23  C   UNL     1      22.767  43.048  49.966  1.00  0.00     0.210 C 
ENDBRANCH  16  22
ENDBRANCH   1  15
BRANCH  12  24
HETATM   24  N   UNL     1      27.193  40.832  50.638  1.00  0.00    -0.272 NA
HETATM   25  H   UNL     1      28.042  40.778  50.078  1.00  0.00     0.127 HD
HETATM   26  H   UNL     1      26.990  39.944  51.079  1.00  0.00     0.127 HD
ENDBRANCH  12  24
TORSDOF 3
ENDMDL
MODEL 5
REMARK VINA RESULT:      -7.2      7.135      9.687
REMARK  3 active torsions:
REMARK  status: ('A' for Active; 'I' for Inactive)
REMARK    1  A    between atoms: O_2  and  C_3 
REMARK    2  A    between atoms: C_4  and  C_5 
REMARK    3  A    between atoms: C_16  and  N_17 
ROOT
HETATM    1  C   UNL     1      18.666  49.153  48.681  1.00  0.00     0.246 A 
HETATM    2  N   UNL     1      20.038  48.742  48.481  1.00  0.00    -0.151 N 
HETATM    3  C   UNL     1      20.353  47.427  48.253  1.00  0.00     0.734 A 
HETATM    4  N   UNL     1      21.656  47.303  48.127  1.00  0.00    -0.060 NA
HETATM    5  C   UNL     1      22.186  48.555  48.315  1.00  0.00     0.103 A 
HETATM    6  C   UNL     1      21.183  49.488  48.558  1.00  0.00     0.083 A 
HETATM    7  C   UNL     1      23.525  48.971  48.299  1.00  0.00     0.034 A 
HETATM    8  C   UNL     1      23.811  50.322  48.530  1.00  0.00     0.002 A 
HETATM    9  C   UNL     1      22.786  51.239  48.773  1.00  0.00     0.002 A 
HETATM   10  C   UNL     1      21.442  50.843  48.794  1.00  0.00     0.033 A 
HETATM   11  N   UNL     1      19.419  46.450  48.190  1.00  0.00    -0.033 NA
HETATM   12  C   UNL     1      18.195  46.745  48.440  1.00  0.00     0.193 A 
HETATM   13  N   UNL     1      17.734  48.029  48.740  1.00  0.00    -0.338 N 
HETATM   14  H   UNL     1      16.754  48.229  48.865  1.00  0.00     0.164 HD
ENDROOT
BRANCH   1  15
HETATM   15  C   UNL     1      18.144  50.105  47.614  1.00  0.00     0.020 A 
HETATM   16  C   UNL     1      17.243  51.125  47.991  1.00  0.00     0.078 A 
HETATM   17  C   UNL     1      16.717  51.992  47.027  1.00  0.00     0.039 A 
HETATM   18  C   UNL     1      17.086  51.863  45.687  1.00  0.00     0.022 A 
HETATM   19  C   UNL     1      17.965  50.857  45.305  1.00  0.00     0.011 A 
HETATM   20  C   UNL     1      18.481  49.972  46.252  1.00  0.00     0.033 A 
HETATM   21 BR   UNL     1      18.457  50.679  43.489  1.00  0.00    -0.051 Br
BRANCH  16  22
HETATM   22  O   UNL     1      16.906  51.154  49.320  1.00  0.00    -0.355 OA
HETATM   23  C   UNL     1      16.686  52.441  49.898  1.00  0.00     0.210 C 
ENDBRANCH  16  22
ENDBRANCH   1  15
BRANCH  12  24
HETATM   24  N   UNL     1      17.204  45.829  48.429  1.00  0.00    -0.272 NA
HETATM   25  H   UNL     1      16.294  46.279  48.356  1.00  0.00     0.127 HD
HETATM   26  H   UNL     1      17.294  45.077  47.758  1.00  0.00     0.127 HD
ENDBRANCH  12  24
TORSDOF 3
ENDMDL
MODEL 6
REMARK VINA RESULT:      -7.1      3.004      6.143
REMARK  3 active torsions:
REMARK  status: ('A' for Active; 'I' for Inactive)
REMARK    1  A    between atoms: O_2  and  C_3 
REMARK    2  A    between atoms: C_4  and  C_5 
REMARK    3  A    between atoms: C_16  and  N_17 
ROOT
HETATM    1  C   UNL     1      26.557  46.220  52.110  1.00  0.00     0.246 A 
HETATM    2  N   UNL     1      26.816  45.081  52.962  1.00  0.00    -0.151 N 
HETATM    3  C   UNL     1      26.594  45.148  54.314  1.00  0.00     0.734 A 
HETATM    4  N   UNL     1      26.925  44.002  54.871  1.00  0.00    -0.060 NA
HETATM    5  C   UNL     1      27.401  43.203  53.861  1.00  0.00     0.103 A 
HETATM    6  C   UNL     1      27.360  43.866  52.640  1.00  0.00     0.083 A 
HETATM    7  C   UNL     1      27.896  41.892  53.917  1.00  0.00     0.034 A 
HETATM    8  C   UNL     1      28.336  41.290  52.733  1.00  0.00     0.002 A 
HETATM    9  C   UNL     1      28.286  41.978  51.519  1.00  0.00     0.002 A 
HETATM   10  C   UNL     1      27.795  43.288  51.442  1.00  0.00     0.033 A 
HETATM   11  N   UNL     1      26.117  46.256  54.924  1.00  0.00    -0.033 NA
HETATM   12  C   UNL     1      25.945  47.322  54.229  1.00  0.00     0.193 A 
HETATM   13  N   UNL     1      26.181  47.419  52.856  1.00  0.00    -0.338 N 
HETATM   14  H   UNL     1      25.970  48.256  52.335  1.00  0.00     0.164 HD
ENDROOT
BRANCH   1  15
HETATM   15  C   UNL     1      25.466  45.982  51.074  1.00  0.00     0.020 A 
HETATM   16  C   UNL     1      25.139  47.022  50.177  1.00  0.00     0.078 A 
HETATM   17  C   UNL     1      24.116  46.846  49.239  1.00  0.00     0.039 A 
HETATM   18  C   UNL     1      23.418  45.639  49.175  1.00  0.00     0.022 A 
HETATM   19  C   UNL     1      23.728  44.613  50.060  1.00  0.00     0.011 A 
HETATM   20  C   UNL     1      24.731  44.781  51.014  1.00  0.00     0.033 A 
HETATM   21 BR   UNL     1      22.777  42.982  49.976  1.00  0.00    -0.051 Br
BRANCH  16  22
HETATM   22  O   UNL     1      25.848  48.185  50.337  1.00  0.00    -0.355 OA
HETATM   23  C   UNL     1      26.701  48.569  49.259  1.00  0.00     0.210 C 
ENDBRANCH  16  22
ENDBRANCH   1  15
BRANCH  12  24
HETATM   24  N   UNL     1      25.502  48.480  54.761  1.00  0.00    -0.272 NA
HETATM   25  H   UNL     1      24.666  48.804  54.280  1.00  0.00     0.127 HD
HETATM   26  H   UNL     1      25.375  48.494  55.765  1.00  0.00     0.127 HD
ENDBRANCH  12  24
TORSDOF 3
ENDMDL
MODEL 7
REMARK VINA RESULT:      -7.1      4.834      7.175
REMARK  3 active torsions:
REMARK  status: ('A' for Active; 'I' for Inactive)
REMARK    1  A    between atoms: O_2  and  C_3 
REMARK    2  A    between atoms: C_4  and  C_5 
REMARK    3  A    between atoms: C_16  and  N_17 
ROOT
HETATM    1  C   UNL     1      22.871  48.504  49.100  1.00  0.00     0.246 A 
HETATM    2  N   UNL     1      21.954  49.610  48.931  1.00  0.00    -0.151 N 
HETATM    3  C   UNL     1      22.351  50.765  48.308  1.00  0.00     0.734 A 
HETATM    4  N   UNL     1      21.354  51.623  48.298  1.00  0.00    -0.060 NA
HETATM    5  C   UNL     1      20.315  51.019  48.960  1.00  0.00     0.103 A 
HETATM    6  C   UNL     1      20.671  49.745  49.389  1.00  0.00     0.083 A 
HETATM    7  C   UNL     1      19.030  51.507  49.240  1.00  0.00     0.034 A 
HETATM    8  C   UNL     1      18.142  50.689  49.948  1.00  0.00     0.002 A 
HETATM    9  C   UNL     1      18.524  49.414  50.370  1.00  0.00     0.002 A 
HETATM   10  C   UNL     1      19.802  48.909  50.100  1.00  0.00     0.033 A 
HETATM   11  N   UNL     1      23.596  50.937  47.809  1.00  0.00    -0.033 NA
HETATM   12  C   UNL     1      24.474  50.021  48.002  1.00  0.00     0.193 A 
HETATM   13  N   UNL     1      24.231  48.816  48.666  1.00  0.00    -0.338 N 
HETATM   14  H   UNL     1      24.931  48.095  48.738  1.00  0.00     0.164 HD
ENDROOT
BRANCH   1  15
HETATM   15  C   UNL     1      22.453  47.236  48.369  1.00  0.00     0.020 A 
HETATM   16  C   UNL     1      23.000  46.000  48.777  1.00  0.00     0.078 A 
HETATM   17  C   UNL     1      22.663  44.823  48.101  1.00  0.00     0.039 A 
HETATM   18  C   UNL     1      21.777  44.859  47.023  1.00  0.00     0.022 A 
HETATM   19  C   UNL     1      21.240  46.071  46.608  1.00  0.00     0.011 A 
HETATM   20  C   UNL     1      21.582  47.256  47.260  1.00  0.00     0.033 A 
HETATM   21 BR   UNL     1      20.046  46.118  45.144  1.00  0.00    -0.051 Br
BRANCH  16  22
HETATM   22  O   UNL     1      23.890  46.064  49.818  1.00  0.00    -0.355 OA
HETATM   23  C   UNL     1      24.130  44.851  50.532  1.00  0.00     0.210 C 
ENDBRANCH  16  22
ENDBRANCH   1  15
BRANCH  12  24
HETATM   24  N   UNL     1      25.747  50.123  47.566  1.00  0.00    -0.272 NA
HETATM   25  H   UNL     1      25.864  50.942  46.973  1.00  0.00     0.127 HD
HETATM   26  H   UNL     1      26.470  50.078  48.273  1.00  0.00     0.127 HD
ENDBRANCH  12  24
TORSDOF 3
ENDMDL
MODEL 8
REMARK VINA RESULT:      -7.1      3.470      5.465
REMARK  3 active torsions:
REMARK  status: ('A' for Active; 'I' for Inactive)
REMARK    1  A    between atoms: O_2  and  C_3 
REMARK    2  A    between atoms: C_4  and  C_5 
REMARK    3  A    between atoms: C_16  and  N_17 
ROOT
HETATM    1  C   UNL     1      24.613  48.179  49.913  1.00  0.00     0.246 A 
HETATM    2  N   UNL     1      23.920  49.008  48.951  1.00  0.00    -0.151 N 
HETATM    3  C   UNL     1      24.615  49.736  48.020  1.00  0.00     0.734 A 
HETATM    4  N   UNL     1      23.770  50.422  47.280  1.00  0.00    -0.060 NA
HETATM    5  C   UNL     1      22.517  50.156  47.772  1.00  0.00     0.103 A 
HETATM    6  C   UNL     1      22.581  49.273  48.845  1.00  0.00     0.083 A 
HETATM    7  C   UNL     1      21.270  50.641  47.353  1.00  0.00     0.034 A 
HETATM    8  C   UNL     1      20.122  50.219  48.034  1.00  0.00     0.002 A 
HETATM    9  C   UNL     1      20.214  49.333  49.110  1.00  0.00     0.002 A 
HETATM   10  C   UNL     1      21.449  48.837  49.544  1.00  0.00     0.033 A 
HETATM   11  N   UNL     1      25.964  49.718  47.933  1.00  0.00    -0.033 NA
HETATM   12  C   UNL     1      26.634  49.064  48.811  1.00  0.00     0.193 A 
HETATM   13  N   UNL     1      26.066  48.321  49.849  1.00  0.00    -0.338 N 
HETATM   14  H   UNL     1      26.626  47.767  50.479  1.00  0.00     0.164 HD
ENDROOT
BRANCH   1  15
HETATM   15  C   UNL     1      24.307  46.694  49.783  1.00  0.00     0.020 A 
HETATM   16  C   UNL     1      24.628  45.834  50.857  1.00  0.00     0.078 A 
HETATM   17  C   UNL     1      24.393  44.460  50.753  1.00  0.00     0.039 A 
HETATM   18  C   UNL     1      23.830  43.926  49.591  1.00  0.00     0.022 A 
HETATM   19  C   UNL     1      23.519  44.763  48.527  1.00  0.00     0.011 A 
HETATM   20  C   UNL     1      23.767  46.133  48.608  1.00  0.00     0.033 A 
HETATM   21 BR   UNL     1      22.764  44.039  46.953  1.00  0.00    -0.051 Br
BRANCH  16  22
HETATM   22  O   UNL     1      25.213  46.437  51.942  1.00  0.00    -0.355 OA
HETATM   23  C   UNL     1      26.297  45.741  52.555  1.00  0.00     0.210 C 
ENDBRANCH  16  22
ENDBRANCH   1  15
BRANCH  12  24
HETATM   24  N   UNL     1      27.982  49.016  48.819  1.00  0.00    -0.272 NA
HETATM   25  H   UNL     1      28.371  49.628  48.104  1.00  0.00     0.127 HD
HETATM   26  H   UNL     1      28.433  49.166  49.712  1.00  0.00     0.127 HD
ENDBRANCH  12  24
TORSDOF 3
ENDMDL
MODEL 9
REMARK VINA RESULT:      -6.8      3.691      5.910
REMARK  3 active torsions:
REMARK  status: ('A' for Active; 'I' for Inactive)
REMARK    1  A    between atoms: O_2  and  C_3 
REMARK    2  A    between atoms: C_4  and  C_5 
REMARK    3  A    between atoms: C_16  and  N_17 
ROOT
HETATM    1  C   UNL     1      23.531  46.125  49.804  1.00  0.00     0.246 A 
HETATM    2  N   UNL     1      24.906  46.565  49.715  1.00  0.00    -0.151 N 
HETATM    3  C   UNL     1      25.931  45.766  50.153  1.00  0.00     0.734 A 
HETATM    4  N   UNL     1      27.077  46.392  49.989  1.00  0.00    -0.060 NA
HETATM    5  C   UNL     1      26.774  47.627  49.472  1.00  0.00     0.103 A 
HETATM    6  C   UNL     1      25.402  47.773  49.302  1.00  0.00     0.083 A 
HETATM    7  C   UNL     1      27.628  48.685  49.126  1.00  0.00     0.034 A 
HETATM    8  C   UNL     1      27.066  49.862  48.619  1.00  0.00     0.002 A 
HETATM    9  C   UNL     1      25.684  49.985  48.460  1.00  0.00     0.002 A 
HETATM   10  C   UNL     1      24.815  48.940  48.799  1.00  0.00     0.033 A 
HETATM   11  N   UNL     1      25.729  44.535  50.675  1.00  0.00    -0.033 NA
HETATM   12  C   UNL     1      24.525  44.127  50.852  1.00  0.00     0.193 A 
HETATM   13  N   UNL     1      23.382  44.852  50.506  1.00  0.00    -0.338 N 
HETATM   14  H   UNL     1      22.455  44.467  50.601  1.00  0.00     0.164 HD
ENDROOT
BRANCH   1  15
HETATM   15  C   UNL     1      22.842  45.971  48.456  1.00  0.00     0.020 A 
HETATM   16  C   UNL     1      21.845  46.902  48.089  1.00  0.00     0.078 A 
HETATM   17  C   UNL     1      21.169  46.765  46.872  1.00  0.00     0.039 A 
HETATM   18  C   UNL     1      21.479  45.714  46.007  1.00  0.00     0.022 A 
HETATM   19  C   UNL     1      22.452  44.789  46.364  1.00  0.00     0.011 A 
HETATM   20  C   UNL     1      23.121  44.900  47.583  1.00  0.00     0.033 A 
HETATM   21 BR   UNL     1      22.866  43.363  45.195  1.00  0.00    -0.051 Br
BRANCH  16  22
HETATM   22  O   UNL     1      21.578  47.878  49.015  1.00  0.00    -0.355 OA
HETATM   23  C   UNL     1      20.230  48.341  49.087  1.00  0.00     0.210 C 
ENDBRANCH  16  22
ENDBRANCH   1  15
BRANCH  12  24
HETATM   24  N   UNL     1      24.231  42.926  51.394  1.00  0.00    -0.272 NA
HETATM   25  H   UNL     1      23.230  42.746  51.357  1.00  0.00     0.127 HD
HETATM   26  H   UNL     1      24.757  42.135  51.047  1.00  0.00     0.127 HD
ENDBRANCH  12  24
TORSDOF 3
ENDMDL
MODEL 10
REMARK VINA RESULT:      -6.8      6.459      8.451
REMARK  3 active torsions:
REMARK  status: ('A' for Active; 'I' for Inactive)
REMARK    1  A    between atoms: O_2  and  C_3 
REMARK    2  A    between atoms: C_4  and  C_5 
REMARK    3  A    between atoms: C_16  and  N_17 
ROOT
HETATM    1  C   UNL     1      18.746  47.773  49.030  1.00  0.00     0.246 A 
HETATM    2  N   UNL     1      18.535  49.106  48.511  1.00  0.00    -0.151 N 
HETATM    3  C   UNL     1      18.430  50.182  49.355  1.00  0.00     0.734 A 
HETATM    4  N   UNL     1      18.219  51.273  48.651  1.00  0.00    -0.060 NA
HETATM    5  C   UNL     1      18.150  50.881  47.337  1.00  0.00     0.103 A 
HETATM    6  C   UNL     1      18.330  49.507  47.218  1.00  0.00     0.083 A 
HETATM    7  C   UNL     1      17.927  51.649  46.186  1.00  0.00     0.034 A 
HETATM    8  C   UNL     1      17.892  51.003  44.944  1.00  0.00     0.002 A 
HETATM    9  C   UNL     1      18.074  49.622  44.851  1.00  0.00     0.002 A 
HETATM   10  C   UNL     1      18.298  48.837  45.989  1.00  0.00     0.033 A 
HETATM   11  N   UNL     1      18.528  50.071  50.699  1.00  0.00    -0.033 NA
HETATM   12  C   UNL     1      18.635  48.902  51.219  1.00  0.00     0.193 A 
HETATM   13  N   UNL     1      18.699  47.712  50.489  1.00  0.00    -0.338 N 
HETATM   14  H   UNL     1      18.849  46.820  50.934  1.00  0.00     0.164 HD
ENDROOT
BRANCH   1  15
HETATM   15  C   UNL     1      20.065  47.144  48.603  1.00  0.00     0.020 A 
HETATM   16  C   UNL     1      21.263  47.863  48.813  1.00  0.00     0.078 A 
HETATM   17  C   UNL     1      22.486  47.328  48.398  1.00  0.00     0.039 A 
HETATM   18  C   UNL     1      22.536  46.076  47.782  1.00  0.00     0.022 A 
HETATM   19  C   UNL     1      21.362  45.366  47.563  1.00  0.00     0.011 A 
HETATM   20  C   UNL     1      20.132  45.895  47.953  1.00  0.00     0.033 A 
HETATM   21 BR   UNL     1      21.430  43.674  46.723  1.00  0.00    -0.051 Br
BRANCH  16  22
HETATM   22  O   UNL     1      21.117  49.099  49.389  1.00  0.00    -0.355 OA
HETATM   23  C   UNL     1      22.260  49.953  49.372  1.00  0.00     0.210 C 
ENDBRANCH  16  22
ENDBRANCH   1  15
BRANCH  12  24
HETATM   24  N   UNL     1      18.708  48.696  52.551  1.00  0.00    -0.272 NA
HETATM   25  H   UNL     1      18.558  49.564  53.061  1.00  0.00     0.127 HD
HETATM   26  H   UNL     1      18.135  47.950  52.923  1.00  0.00     0.127 HD
ENDBRANCH  12  24
TORSDOF 3
ENDMDL
