MODEL 1
REMARK VINA RESULT:      -8.6      0.000      0.000
REMARK  3 active torsions:
REMARK  status: ('A' for Active; 'I' for Inactive)
REMARK    1  A    between atoms: C_7  and  C_8 
REMARK       I    between atoms: C_8  and  N_9 
REMARK    2  A    between atoms: N_9  and  C_10 
REMARK    3  A    between atoms: C_11  and  O_12 
ROOT
HETATM    1  C   UNL     1      23.156  46.427  48.810  1.00  0.00     0.252 C 
HETATM    2  N   UNL     1      23.168  47.793  48.958  1.00  0.00    -0.346 N 
HETATM    3  O   UNL     1      22.557  45.866  47.898  1.00  0.00    -0.268 OA
HETATM    4  H   UNL     1      23.606  48.214  49.766  1.00  0.00     0.163 HD
ENDROOT
BRANCH   1   5
HETATM    5  C   UNL     1      23.887  45.646  49.840  1.00  0.00     0.033 A 
HETATM    6  C   UNL     1      23.838  44.251  49.766  1.00  0.00     0.019 A 
HETATM    7  C   UNL     1      24.479  43.460  50.722  1.00  0.00     0.031 A 
HETATM    8  C   UNL     1      25.180  44.115  51.741  1.00  0.00     0.043 A 
HETATM    9  C   UNL     1      25.272  45.502  51.830  1.00  0.00    -0.001 A 
HETATM   10  N   UNL     1      25.890  43.594  52.796  1.00  0.00    -0.359 N 
HETATM   11  C   UNL     1      26.082  45.806  52.972  1.00  0.00    -0.027 A 
HETATM   12  C   UNL     1      24.612  46.285  50.858  1.00  0.00     0.031 A 
HETATM   13  C   UNL     1      26.474  47.158  53.459  1.00  0.00     0.051 C 
HETATM   14  C   UNL     1      26.439  44.599  53.552  1.00  0.00     0.012 A 
HETATM   15  C   UNL     1      27.260  44.310  54.756  1.00  0.00     0.068 C 
HETATM   16  H   UNL     1      25.994  42.606  52.980  1.00  0.00     0.166 HD
ENDBRANCH   1   5
BRANCH   2  17
HETATM   17  C   UNL     1      22.358  48.643  48.105  1.00  0.00     0.147 C 
HETATM   18  C   UNL     1      23.047  49.972  47.659  1.00  0.00     0.149 C 
HETATM   19  C   UNL     1      22.627  51.047  48.682  1.00  0.00     0.073 C 
HETATM   20  C   UNL     1      21.319  50.515  49.178  1.00  0.00    -0.047 A 
HETATM   21  C   UNL     1      21.167  49.162  48.857  1.00  0.00    -0.027 A 
HETATM   22  C   UNL     1      20.351  51.189  49.905  1.00  0.00     0.008 A 
HETATM   23  C   UNL     1      20.041  48.456  49.256  1.00  0.00     0.010 A 
HETATM   24  C   UNL     1      19.057  49.129  49.981  1.00  0.00     0.001 A 
HETATM   25  C   UNL     1      19.211  50.487  50.302  1.00  0.00     0.001 A 
BRANCH  18  26
HETATM   26  O   UNL     1      24.467  49.906  47.564  1.00  0.00    -0.393 OA
HETATM   27  H   UNL     1      24.818  50.204  48.429  1.00  0.00     0.210 HD
ENDBRANCH  18  26
ENDBRANCH   2  17
TORSDOF 3
ENDMDL
MODEL 2
REMARK VINA RESULT:      -8.5      1.554      2.140
REMARK  3 active torsions:
REMARK  status: ('A' for Active; 'I' for Inactive)
REMARK    1  A    between atoms: C_7  and  C_8 
REMARK       I    between atoms: C_8  and  N_9 
REMARK    2  A    between atoms: N_9  and  C_10 
REMARK    3  A    between atoms: C_11  and  O_12 
ROOT
HETATM    1  C   UNL     1      23.969  48.211  49.663  1.00  0.00     0.252 C 
HETATM    2  N   UNL     1      22.644  48.547  49.810  1.00  0.00    -0.346 N 
HETATM    3  O   UNL     1      24.749  48.875  48.987  1.00  0.00    -0.268 OA
HETATM    4  H   UNL     1      22.016  47.933  50.310  1.00  0.00     0.163 HD
ENDROOT
BRANCH   1   5
HETATM    5  C   UNL     1      24.414  46.969  50.345  1.00  0.00     0.033 A 
HETATM    6  C   UNL     1      24.021  45.743  49.801  1.00  0.00     0.019 A 
HETATM    7  C   UNL     1      24.380  44.539  50.412  1.00  0.00     0.031 A 
HETATM    8  C   UNL     1      25.158  44.610  51.574  1.00  0.00     0.043 A 
HETATM    9  C   UNL     1      25.590  45.813  52.128  1.00  0.00    -0.001 A 
HETATM   10  N   UNL     1      25.647  43.600  52.368  1.00  0.00    -0.359 N 
HETATM   11  C   UNL     1      26.377  45.496  53.283  1.00  0.00    -0.027 A 
HETATM   12  C   UNL     1      25.211  47.019  51.499  1.00  0.00     0.031 A 
HETATM   13  C   UNL     1      27.065  46.456  54.190  1.00  0.00     0.051 C 
HETATM   14  C   UNL     1      26.382  44.116  53.406  1.00  0.00     0.012 A 
HETATM   15  C   UNL     1      27.026  43.238  54.417  1.00  0.00     0.068 C 
HETATM   16  H   UNL     1      25.487  42.617  52.202  1.00  0.00     0.166 HD
ENDBRANCH   1   5
BRANCH   2  17
HETATM   17  C   UNL     1      22.067  49.648  49.062  1.00  0.00     0.147 C 
HETATM   18  C   UNL     1      21.574  50.847  49.934  1.00  0.00     0.149 C 
HETATM   19  C   UNL     1      20.078  50.598  50.214  1.00  0.00     0.073 C 
HETATM   20  C   UNL     1      19.675  49.757  49.042  1.00  0.00    -0.047 A 
HETATM   21  C   UNL     1      20.792  49.220  48.395  1.00  0.00    -0.027 A 
HETATM   22  C   UNL     1      18.391  49.461  48.614  1.00  0.00     0.008 A 
HETATM   23  C   UNL     1      20.647  48.376  47.303  1.00  0.00     0.010 A 
HETATM   24  C   UNL     1      19.358  48.079  46.859  1.00  0.00     0.001 A 
HETATM   25  C   UNL     1      18.238  48.619  47.510  1.00  0.00     0.001 A 
BRANCH  18  26
HETATM   26  O   UNL     1      22.283  51.028  51.156  1.00  0.00    -0.393 OA
HETATM   27  H   UNL     1      21.614  51.263  51.834  1.00  0.00     0.210 HD
ENDBRANCH  18  26
ENDBRANCH   2  17
TORSDOF 3
ENDMDL
MODEL 3
REMARK VINA RESULT:      -8.5      7.054      9.179
REMARK  3 active torsions:
REMARK  status: ('A' for Active; 'I' for Inactive)
REMARK    1  A    between atoms: C_7  and  C_8 
REMARK       I    between atoms: C_8  and  N_9 
REMARK    2  A    between atoms: N_9  and  C_10 
REMARK    3  A    between atoms: C_11  and  O_12 
ROOT
HETATM    1  C   UNL     1      28.026  43.225  51.713  1.00  0.00     0.252 C 
HETATM    2  N   UNL     1      28.047  41.923  51.272  1.00  0.00    -0.346 N 
HETATM    3  O   UNL     1      27.427  44.115  51.117  1.00  0.00    -0.268 OA
HETATM    4  H   UNL     1      28.616  41.235  51.746  1.00  0.00     0.163 HD
ENDROOT
BRANCH   1   5
HETATM    5  C   UNL     1      28.801  43.516  52.946  1.00  0.00     0.033 A 
HETATM    6  C   UNL     1      29.927  42.735  53.216  1.00  0.00     0.019 A 
HETATM    7  C   UNL     1      30.680  42.938  54.374  1.00  0.00     0.031 A 
HETATM    8  C   UNL     1      30.274  43.960  55.240  1.00  0.00     0.043 A 
HETATM    9  C   UNL     1      29.172  44.776  54.989  1.00  0.00    -0.001 A 
HETATM   10  N   UNL     1      30.819  44.374  56.432  1.00  0.00    -0.359 N 
HETATM   11  C   UNL     1      29.079  45.715  56.067  1.00  0.00    -0.027 A 
HETATM   12  C   UNL     1      28.420  44.550  53.816  1.00  0.00     0.031 A 
HETATM   13  C   UNL     1      28.070  46.799  56.227  1.00  0.00     0.051 C 
HETATM   14  C   UNL     1      30.110  45.430  56.947  1.00  0.00     0.012 A 
HETATM   15  C   UNL     1      30.491  46.071  58.232  1.00  0.00     0.068 C 
HETATM   16  H   UNL     1      31.634  43.956  56.860  1.00  0.00     0.166 HD
ENDBRANCH   1   5
BRANCH   2  17
HETATM   17  C   UNL     1      27.459  41.558  49.997  1.00  0.00     0.147 C 
HETATM   18  C   UNL     1      25.918  41.298  50.036  1.00  0.00     0.149 C 
HETATM   19  C   UNL     1      25.736  39.783  50.256  1.00  0.00     0.073 C 
HETATM   20  C   UNL     1      27.004  39.228  49.685  1.00  0.00    -0.047 A 
HETATM   21  C   UNL     1      27.975  40.223  49.542  1.00  0.00    -0.027 A 
HETATM   22  C   UNL     1      27.280  37.910  49.359  1.00  0.00     0.008 A 
HETATM   23  C   UNL     1      29.242  39.921  49.066  1.00  0.00     0.010 A 
HETATM   24  C   UNL     1      29.526  38.598  48.726  1.00  0.00     0.001 A 
HETATM   25  C   UNL     1      28.551  37.599  48.871  1.00  0.00     0.001 A 
BRANCH  18  26
HETATM   26  O   UNL     1      25.214  42.032  51.032  1.00  0.00    -0.393 OA
HETATM   27  H   UNL     1      25.222  42.971  50.746  1.00  0.00     0.210 HD
ENDBRANCH  18  26
ENDBRANCH   2  17
TORSDOF 3
ENDMDL
MODEL 4
REMARK VINA RESULT:      -8.4      2.620      8.305
REMARK  3 active torsions:
REMARK  status: ('A' for Active; 'I' for Inactive)
REMARK    1  A    between atoms: C_7  and  C_8 
REMARK       I    between atoms: C_8  and  N_9 
REMARK    2  A    between atoms: N_9  and  C_10 
REMARK    3  A    between atoms: C_11  and  O_12 
ROOT
HETATM    1  C   UNL     1      25.615  44.864  50.966  1.00  0.00     0.252 C 
HETATM    2  N   UNL     1      25.940  44.867  52.301  1.00  0.00    -0.346 N 
HETATM    3  O   UNL     1      25.443  43.829  50.330  1.00  0.00    -0.268 OA
HETATM    4  H   UNL     1      26.151  45.737  52.771  1.00  0.00     0.163 HD
ENDROOT
BRANCH   1   5
HETATM    5  C   UNL     1      25.510  46.192  50.309  1.00  0.00     0.033 A 
HETATM    6  C   UNL     1      26.693  46.863  49.991  1.00  0.00     0.019 A 
HETATM    7  C   UNL     1      26.663  48.128  49.400  1.00  0.00     0.031 A 
HETATM    8  C   UNL     1      25.408  48.686  49.127  1.00  0.00     0.043 A 
HETATM    9  C   UNL     1      24.209  48.034  49.407  1.00  0.00    -0.001 A 
HETATM   10  N   UNL     1      25.087  49.896  48.561  1.00  0.00    -0.359 N 
HETATM   11  C   UNL     1      23.144  48.887  48.971  1.00  0.00    -0.027 A 
HETATM   12  C   UNL     1      24.261  46.758  50.010  1.00  0.00     0.031 A 
HETATM   13  C   UNL     1      21.684  48.607  49.046  1.00  0.00     0.051 C 
HETATM   14  C   UNL     1      23.726  50.037  48.461  1.00  0.00     0.012 A 
HETATM   15  C   UNL     1      23.109  51.257  47.881  1.00  0.00     0.068 C 
HETATM   16  H   UNL     1      25.766  50.580  48.257  1.00  0.00     0.166 HD
ENDBRANCH   1   5
BRANCH   2  17
HETATM   17  C   UNL     1      26.223  43.629  53.002  1.00  0.00     0.147 C 
HETATM   18  C   UNL     1      25.714  43.580  54.479  1.00  0.00     0.149 C 
HETATM   19  C   UNL     1      26.889  44.043  55.363  1.00  0.00     0.073 C 
HETATM   20  C   UNL     1      28.075  43.688  54.520  1.00  0.00    -0.047 A 
HETATM   21  C   UNL     1      27.703  43.458  53.192  1.00  0.00    -0.027 A 
HETATM   22  C   UNL     1      29.402  43.619  54.911  1.00  0.00     0.008 A 
HETATM   23  C   UNL     1      28.652  43.151  52.228  1.00  0.00     0.010 A 
HETATM   24  C   UNL     1      29.990  43.071  52.615  1.00  0.00     0.001 A 
HETATM   25  C   UNL     1      30.362  43.302  53.948  1.00  0.00     0.001 A 
BRANCH  18  26
HETATM   26  O   UNL     1      24.558  44.371  54.738  1.00  0.00    -0.393 OA
HETATM   27  H   UNL     1      24.686  45.218  54.260  1.00  0.00     0.210 HD
ENDBRANCH  18  26
ENDBRANCH   2  17
TORSDOF 3
ENDMDL
MODEL 5
REMARK VINA RESULT:      -8.0      5.624      8.432
REMARK  3 active torsions:
REMARK  status: ('A' for Active; 'I' for Inactive)
REMARK    1  A    between atoms: C_7  and  C_8 
REMARK       I    between atoms: C_8  and  N_9 
REMARK    2  A    between atoms: N_9  and  C_10 
REMARK    3  A    between atoms: C_11  and  O_12 
ROOT
HETATM    1  C   UNL     1      27.290  43.939  50.596  1.00  0.00     0.252 C 
HETATM    2  N   UNL     1      27.250  42.568  50.508  1.00  0.00    -0.346 N 
HETATM    3  O   UNL     1      27.233  44.667  49.609  1.00  0.00    -0.268 OA
HETATM    4  H   UNL     1      27.379  42.001  51.334  1.00  0.00     0.163 HD
ENDROOT
BRANCH   1   5
HETATM    5  C   UNL     1      27.440  44.508  51.959  1.00  0.00     0.033 A 
HETATM    6  C   UNL     1      26.517  45.470  52.376  1.00  0.00     0.019 A 
HETATM    7  C   UNL     1      26.621  46.066  53.635  1.00  0.00     0.031 A 
HETATM    8  C   UNL     1      27.672  45.653  54.462  1.00  0.00     0.043 A 
HETATM    9  C   UNL     1      28.596  44.678  54.089  1.00  0.00    -0.001 A 
HETATM   10  N   UNL     1      28.009  46.064  55.729  1.00  0.00    -0.359 N 
HETATM   11  C   UNL     1      29.498  44.499  55.187  1.00  0.00    -0.027 A 
HETATM   12  C   UNL     1      28.476  44.092  52.810  1.00  0.00     0.031 A 
HETATM   13  C   UNL     1      30.643  43.549  55.260  1.00  0.00     0.051 C 
HETATM   14  C   UNL     1      29.110  45.382  56.182  1.00  0.00     0.012 A 
HETATM   15  C   UNL     1      29.685  45.635  57.529  1.00  0.00     0.068 C 
HETATM   16  H   UNL     1      27.508  46.769  56.251  1.00  0.00     0.166 HD
ENDBRANCH   1   5
BRANCH   2  17
HETATM   17  C   UNL     1      27.266  41.903  49.218  1.00  0.00     0.147 C 
HETATM   18  C   UNL     1      25.867  41.764  48.535  1.00  0.00     0.149 C 
HETATM   19  C   UNL     1      25.315  40.385  48.946  1.00  0.00     0.073 C 
HETATM   20  C   UNL     1      26.568  39.612  49.216  1.00  0.00    -0.047 A 
HETATM   21  C   UNL     1      27.666  40.464  49.373  1.00  0.00    -0.027 A 
HETATM   22  C   UNL     1      26.705  38.240  49.355  1.00  0.00     0.008 A 
HETATM   23  C   UNL     1      28.924  39.961  49.669  1.00  0.00     0.010 A 
HETATM   24  C   UNL     1      29.073  38.579  49.802  1.00  0.00     0.001 A 
HETATM   25  C   UNL     1      27.970  37.725  49.645  1.00  0.00     0.001 A 
BRANCH  18  26
HETATM   26  O   UNL     1      24.936  42.790  48.867  1.00  0.00    -0.393 OA
HETATM   27  H   UNL     1      25.465  43.565  49.152  1.00  0.00     0.210 HD
ENDBRANCH  18  26
ENDBRANCH   2  17
TORSDOF 3
ENDMDL
MODEL 6
REMARK VINA RESULT:      -8.0      5.828      7.749
REMARK  3 active torsions:
REMARK  status: ('A' for Active; 'I' for Inactive)
REMARK    1  A    between atoms: C_7  and  C_8 
REMARK       I    between atoms: C_8  and  N_9 
REMARK    2  A    between atoms: N_9  and  C_10 
REMARK    3  A    between atoms: C_11  and  O_12 
ROOT
HETATM    1  C   UNL     1      27.798  41.993  52.936  1.00  0.00     0.252 C 
HETATM    2  N   UNL     1      26.981  42.329  51.883  1.00  0.00    -0.346 N 
HETATM    3  O   UNL     1      28.177  40.843  53.138  1.00  0.00    -0.268 OA
HETATM    4  H   UNL     1      26.626  43.271  51.795  1.00  0.00     0.163 HD
ENDROOT
BRANCH   1   5
HETATM    5  C   UNL     1      28.181  43.097  53.852  1.00  0.00     0.033 A 
HETATM    6  C   UNL     1      27.416  44.266  53.831  1.00  0.00     0.019 A 
HETATM    7  C   UNL     1      27.742  45.352  54.646  1.00  0.00     0.031 A 
HETATM    8  C   UNL     1      28.851  45.218  55.491  1.00  0.00     0.043 A 
HETATM    9  C   UNL     1      29.620  44.058  55.557  1.00  0.00    -0.001 A 
HETATM   10  N   UNL     1      29.390  46.112  56.383  1.00  0.00    -0.359 N 
HETATM   11  C   UNL     1      30.640  44.275  56.540  1.00  0.00    -0.027 A 
HETATM   12  C   UNL     1      29.277  42.973  54.721  1.00  0.00     0.031 A 
HETATM   13  C   UNL     1      31.689  43.310  56.970  1.00  0.00     0.051 C 
HETATM   14  C   UNL     1      30.472  45.562  57.024  1.00  0.00     0.012 A 
HETATM   15  C   UNL     1      31.242  46.320  58.044  1.00  0.00     0.068 C 
HETATM   16  H   UNL     1      29.031  47.043  56.544  1.00  0.00     0.166 HD
ENDBRANCH   1   5
BRANCH   2  17
HETATM   17  C   UNL     1      26.418  41.307  51.021  1.00  0.00     0.147 C 
HETATM   18  C   UNL     1      27.371  40.806  49.888  1.00  0.00     0.149 C 
HETATM   19  C   UNL     1      27.057  41.659  48.643  1.00  0.00     0.073 C 
HETATM   20  C   UNL     1      25.634  42.057  48.886  1.00  0.00    -0.047 A 
HETATM   21  C   UNL     1      25.274  41.863  50.223  1.00  0.00    -0.027 A 
HETATM   22  C   UNL     1      24.739  42.598  47.977  1.00  0.00     0.008 A 
HETATM   23  C   UNL     1      24.009  42.204  50.678  1.00  0.00     0.010 A 
HETATM   24  C   UNL     1      23.097  42.741  49.768  1.00  0.00     0.001 A 
HETATM   25  C   UNL     1      23.460  42.935  48.426  1.00  0.00     0.001 A 
BRANCH  18  26
HETATM   26  O   UNL     1      28.759  40.878  50.201  1.00  0.00    -0.393 OA
HETATM   27  H   UNL     1      28.822  40.935  51.178  1.00  0.00     0.210 HD
ENDBRANCH  18  26
ENDBRANCH   2  17
TORSDOF 3
ENDMDL
MODEL 7
REMARK VINA RESULT:      -7.9      2.009      7.929
REMARK  3 active torsions:
REMARK  status: ('A' for Active; 'I' for Inactive)
REMARK    1  A    between atoms: C_7  and  C_8 
REMARK       I    between atoms: C_8  and  N_9 
REMARK    2  A    between atoms: N_9  and  C_10 
REMARK    3  A    between atoms: C_11  and  O_12 
ROOT
HETATM    1  C   UNL     1      22.115  48.078  48.526  1.00  0.00     0.252 C 
HETATM    2  N   UNL     1      22.724  47.414  49.564  1.00  0.00    -0.346 N 
HETATM    3  O   UNL     1      22.393  47.862  47.350  1.00  0.00    -0.268 OA
HETATM    4  H   UNL     1      22.527  47.675  50.520  1.00  0.00     0.163 HD
ENDROOT
BRANCH   1   5
HETATM    5  C   UNL     1      21.115  49.109  48.899  1.00  0.00     0.033 A 
HETATM    6  C   UNL     1      21.557  50.230  49.606  1.00  0.00     0.019 A 
HETATM    7  C   UNL     1      20.660  51.221  50.013  1.00  0.00     0.031 A 
HETATM    8  C   UNL     1      19.313  51.055  49.672  1.00  0.00     0.043 A 
HETATM    9  C   UNL     1      18.841  49.963  48.945  1.00  0.00    -0.001 A 
HETATM   10  N   UNL     1      18.231  51.859  49.940  1.00  0.00    -0.359 N 
HETATM   11  C   UNL     1      17.432  50.145  48.764  1.00  0.00    -0.027 A 
HETATM   12  C   UNL     1      19.762  48.970  48.548  1.00  0.00     0.031 A 
HETATM   13  C   UNL     1      16.499  49.244  48.032  1.00  0.00     0.051 C 
HETATM   14  C   UNL     1      17.087  51.325  49.402  1.00  0.00     0.012 A 
HETATM   15  C   UNL     1      15.771  51.999  49.545  1.00  0.00     0.068 C 
HETATM   16  H   UNL     1      18.281  52.726  50.457  1.00  0.00     0.166 HD
ENDBRANCH   1   5
BRANCH   2  17
HETATM   17  C   UNL     1      23.827  46.503  49.322  1.00  0.00     0.147 C 
HETATM   18  C   UNL     1      23.405  45.031  49.006  1.00  0.00     0.149 C 
HETATM   19  C   UNL     1      23.419  44.275  50.349  1.00  0.00     0.073 C 
HETATM   20  C   UNL     1      24.412  45.064  51.144  1.00  0.00    -0.047 A 
HETATM   21  C   UNL     1      24.641  46.318  50.570  1.00  0.00    -0.027 A 
HETATM   22  C   UNL     1      25.035  44.697  52.326  1.00  0.00     0.008 A 
HETATM   23  C   UNL     1      25.500  47.230  51.165  1.00  0.00     0.010 A 
HETATM   24  C   UNL     1      26.138  46.865  52.351  1.00  0.00     0.001 A 
HETATM   25  C   UNL     1      25.908  45.606  52.927  1.00  0.00     0.001 A 
BRANCH  18  26
HETATM   26  O   UNL     1      22.135  44.897  48.374  1.00  0.00    -0.393 OA
HETATM   27  H   UNL     1      21.737  44.071  48.724  1.00  0.00     0.210 HD
ENDBRANCH  18  26
ENDBRANCH   2  17
TORSDOF 3
ENDMDL
MODEL 8
REMARK VINA RESULT:      -7.8     19.752     21.981
REMARK  3 active torsions:
REMARK  status: ('A' for Active; 'I' for Inactive)
REMARK    1  A    between atoms: C_7  and  C_8 
REMARK       I    between atoms: C_8  and  N_9 
REMARK    2  A    between atoms: N_9  and  C_10 
REMARK    3  A    between atoms: C_11  and  O_12 
ROOT
HETATM    1  C   UNL     1      37.582  43.148  65.292  1.00  0.00     0.252 C 
HETATM    2  N   UNL     1      38.084  44.412  65.092  1.00  0.00    -0.346 N 
HETATM    3  O   UNL     1      36.558  42.937  65.936  1.00  0.00    -0.268 OA
HETATM    4  H   UNL     1      38.971  44.539  64.625  1.00  0.00     0.163 HD
ENDROOT
BRANCH   1   5
HETATM    5  C   UNL     1      38.365  42.028  64.711  1.00  0.00     0.033 A 
HETATM    6  C   UNL     1      38.366  41.876  63.322  1.00  0.00     0.019 A 
HETATM    7  C   UNL     1      39.058  40.825  62.717  1.00  0.00     0.031 A 
HETATM    8  C   UNL     1      39.757  39.944  63.550  1.00  0.00     0.043 A 
HETATM    9  C   UNL     1      39.799  40.080  64.937  1.00  0.00    -0.001 A 
HETATM   10  N   UNL     1      40.510  38.840  63.230  1.00  0.00    -0.359 N 
HETATM   11  C   UNL     1      40.623  39.025  65.447  1.00  0.00    -0.027 A 
HETATM   12  C   UNL     1      39.088  41.146  65.530  1.00  0.00     0.031 A 
HETATM   13  C   UNL     1      40.975  38.773  66.872  1.00  0.00     0.051 C 
HETATM   14  C   UNL     1      41.038  38.271  64.362  1.00  0.00     0.012 A 
HETATM   15  C   UNL     1      41.896  37.059  64.297  1.00  0.00     0.068 C 
HETATM   16  H   UNL     1      40.655  38.503  62.289  1.00  0.00     0.166 HD
ENDBRANCH   1   5
BRANCH   2  17
HETATM   17  C   UNL     1      37.490  45.562  65.747  1.00  0.00     0.147 C 
HETATM   18  C   UNL     1      36.292  46.208  64.978  1.00  0.00     0.149 C 
HETATM   19  C   UNL     1      36.886  47.337  64.113  1.00  0.00     0.073 C 
HETATM   20  C   UNL     1      38.122  47.702  64.876  1.00  0.00    -0.047 A 
HETATM   21  C   UNL     1      38.465  46.703  65.793  1.00  0.00    -0.027 A 
HETATM   22  C   UNL     1      38.908  48.832  64.725  1.00  0.00     0.008 A 
HETATM   23  C   UNL     1      39.601  46.817  66.581  1.00  0.00     0.010 A 
HETATM   24  C   UNL     1      40.394  47.957  66.442  1.00  0.00     0.001 A 
HETATM   25  C   UNL     1      40.049  48.958  65.521  1.00  0.00     0.001 A 
BRANCH  18  26
HETATM   26  O   UNL     1      35.545  45.304  64.170  1.00  0.00    -0.393 OA
HETATM   27  H   UNL     1      35.970  44.426  64.268  1.00  0.00     0.210 HD
ENDBRANCH  18  26
ENDBRANCH   2  17
TORSDOF 3
ENDMDL
MODEL 9
REMARK VINA RESULT:      -7.8      2.055      7.377
REMARK  3 active torsions:
REMARK  status: ('A' for Active; 'I' for Inactive)
REMARK    1  A    between atoms: C_7  and  C_8 
REMARK       I    between atoms: C_8  and  N_9 
REMARK    2  A    between atoms: N_9  and  C_10 
REMARK    3  A    between atoms: C_11  and  O_12 
ROOT
HETATM    1  C   UNL     1      24.694  47.564  49.530  1.00  0.00     0.252 C 
HETATM    2  N   UNL     1      25.121  46.293  49.831  1.00  0.00    -0.346 N 
HETATM    3  O   UNL     1      25.411  48.551  49.663  1.00  0.00    -0.268 OA
HETATM    4  H   UNL     1      24.477  45.515  49.784  1.00  0.00     0.163 HD
ENDROOT
BRANCH   1   5
HETATM    5  C   UNL     1      23.291  47.695  49.060  1.00  0.00     0.033 A 
HETATM    6  C   UNL     1      22.611  46.533  48.689  1.00  0.00     0.019 A 
HETATM    7  C   UNL     1      21.300  46.592  48.210  1.00  0.00     0.031 A 
HETATM    8  C   UNL     1      20.695  47.851  48.132  1.00  0.00     0.043 A 
HETATM    9  C   UNL     1      21.334  49.028  48.518  1.00  0.00    -0.001 A 
HETATM   10  N   UNL     1      19.435  48.198  47.704  1.00  0.00    -0.359 N 
HETATM   11  C   UNL     1      20.407  50.103  48.326  1.00  0.00    -0.027 A 
HETATM   12  C   UNL     1      22.661  48.948  48.994  1.00  0.00     0.031 A 
HETATM   13  C   UNL     1      20.636  51.545  48.618  1.00  0.00     0.051 C 
HETATM   14  C   UNL     1      19.245  49.553  47.811  1.00  0.00     0.012 A 
HETATM   15  C   UNL     1      17.964  50.193  47.415  1.00  0.00     0.068 C 
HETATM   16  H   UNL     1      18.749  47.540  47.364  1.00  0.00     0.166 HD
ENDBRANCH   1   5
BRANCH   2  17
HETATM   17  C   UNL     1      26.415  46.068  50.446  1.00  0.00     0.147 C 
HETATM   18  C   UNL     1      27.024  44.650  50.194  1.00  0.00     0.149 C 
HETATM   19  C   UNL     1      26.596  43.773  51.388  1.00  0.00     0.073 C 
HETATM   20  C   UNL     1      26.401  44.788  52.471  1.00  0.00    -0.047 A 
HETATM   21  C   UNL     1      26.296  46.079  51.943  1.00  0.00    -0.027 A 
HETATM   22  C   UNL     1      26.282  44.563  53.833  1.00  0.00     0.008 A 
HETATM   23  C   UNL     1      26.072  47.172  52.768  1.00  0.00     0.010 A 
HETATM   24  C   UNL     1      25.960  46.955  54.142  1.00  0.00     0.001 A 
HETATM   25  C   UNL     1      26.065  45.659  54.670  1.00  0.00     0.001 A 
BRANCH  18  26
HETATM   26  O   UNL     1      26.633  44.042  48.967  1.00  0.00    -0.393 OA
HETATM   27  H   UNL     1      26.828  43.085  49.056  1.00  0.00     0.210 HD
ENDBRANCH  18  26
ENDBRANCH   2  17
TORSDOF 3
ENDMDL
MODEL 10
REMARK VINA RESULT:      -7.7      6.144      8.742
REMARK  3 active torsions:
REMARK  status: ('A' for Active; 'I' for Inactive)
REMARK    1  A    between atoms: C_7  and  C_8 
REMARK       I    between atoms: C_8  and  N_9 
REMARK    2  A    between atoms: N_9  and  C_10 
REMARK    3  A    between atoms: C_11  and  O_12 
ROOT
HETATM    1  C   UNL     1      28.217  41.215  52.751  1.00  0.00     0.252 C 
HETATM    2  N   UNL     1      27.811  41.247  51.438  1.00  0.00    -0.346 N 
HETATM    3  O   UNL     1      28.388  40.166  53.364  1.00  0.00    -0.268 OA
HETATM    4  H   UNL     1      27.604  42.130  50.991  1.00  0.00     0.163 HD
ENDROOT
BRANCH   1   5
HETATM    5  C   UNL     1      28.411  42.529  53.413  1.00  0.00     0.033 A 
HETATM    6  C   UNL     1      29.552  42.707  54.200  1.00  0.00     0.019 A 
HETATM    7  C   UNL     1      29.777  43.910  54.875  1.00  0.00     0.031 A 
HETATM    8  C   UNL     1      28.829  44.927  54.719  1.00  0.00     0.043 A 
HETATM    9  C   UNL     1      27.693  44.793  53.922  1.00  0.00    -0.001 A 
HETATM   10  N   UNL     1      28.797  46.191  55.259  1.00  0.00    -0.359 N 
HETATM   11  C   UNL     1      26.978  46.033  53.983  1.00  0.00    -0.027 A 
HETATM   12  C   UNL     1      27.481  43.568  53.253  1.00  0.00     0.031 A 
HETATM   13  C   UNL     1      25.711  46.372  53.277  1.00  0.00     0.051 C 
HETATM   14  C   UNL     1      27.686  46.872  54.828  1.00  0.00     0.012 A 
HETATM   15  C   UNL     1      27.409  48.266  55.262  1.00  0.00     0.068 C 
HETATM   16  H   UNL     1      29.500  46.562  55.882  1.00  0.00     0.166 HD
ENDBRANCH   1   5
BRANCH   2  17
HETATM   17  C   UNL     1      27.439  40.030  50.742  1.00  0.00     0.147 C 
HETATM   18  C   UNL     1      28.642  39.169  50.237  1.00  0.00     0.149 C 
HETATM   19  C   UNL     1      28.911  39.606  48.783  1.00  0.00     0.073 C 
HETATM   20  C   UNL     1      27.569  40.110  48.352  1.00  0.00    -0.047 A 
HETATM   21  C   UNL     1      26.741  40.352  49.453  1.00  0.00    -0.027 A 
HETATM   22  C   UNL     1      27.137  40.375  47.063  1.00  0.00     0.008 A 
HETATM   23  C   UNL     1      25.462  40.862  49.285  1.00  0.00     0.010 A 
HETATM   24  C   UNL     1      25.015  41.123  47.989  1.00  0.00     0.001 A 
HETATM   25  C   UNL     1      25.848  40.880  46.885  1.00  0.00     0.001 A 
BRANCH  18  26
HETATM   26  O   UNL     1      29.828  39.285  51.017  1.00  0.00    -0.393 OA
HETATM   27  H   UNL     1      29.669  40.008  51.660  1.00  0.00     0.210 HD
ENDBRANCH  18  26
ENDBRANCH   2  17
TORSDOF 3
ENDMDL
