MODEL 1
REMARK VINA RESULT:      -8.7      0.000      0.000
REMARK  6 active torsions:
REMARK  status: ('A' for Active; 'I' for Inactive)
REMARK    1  A    between atoms: C_2  and  N_3 
REMARK    2  A    between atoms: C_10  and  N_11 
REMARK       I    between atoms: N_11  and  C_12 
REMARK       I    between atoms: C_12  and  N_13 
REMARK    3  A    between atoms: N_13  and  C_14 
REMARK    4  A    between atoms: C_14  and  C_15 
REMARK    5  A    between atoms: C_15  and  C_16 
REMARK    6  A    between atoms: C_19  and  O_20 
ROOT
HETATM    1  N   UNL     1      26.191  45.461  50.797  1.00  0.00    -0.307 N 
HETATM    2  C   UNL     1      26.230  44.200  50.278  1.00  0.00     0.320 C 
HETATM    3  N   UNL     1      26.753  43.241  51.098  1.00  0.00    -0.343 N 
HETATM    4  O   UNL     1      25.806  43.831  49.189  1.00  0.00    -0.247 OA
HETATM    5  H   UNL     1      26.404  45.555  51.773  1.00  0.00     0.170 HD
HETATM    6  H   UNL     1      26.672  42.318  50.689  1.00  0.00     0.164 HD
ENDROOT
BRANCH   1   7
HETATM    7  C   UNL     1      25.608  46.580  50.224  1.00  0.00     0.064 A 
HETATM    8  C   UNL     1      26.144  47.770  49.632  1.00  0.00     0.019 A 
HETATM    9  C   UNL     1      25.055  48.526  49.165  1.00  0.00     0.046 A 
HETATM   10  C   UNL     1      27.436  48.317  49.462  1.00  0.00     0.016 A 
HETATM   11  N   UNL     1      23.913  47.819  49.472  1.00  0.00    -0.354 N 
HETATM   12  C   UNL     1      25.220  49.764  48.519  1.00  0.00     0.030 A 
HETATM   13  C   UNL     1      24.233  46.680  50.160  1.00  0.00     0.121 A 
HETATM   14  C   UNL     1      26.514  50.261  48.354  1.00  0.00     0.002 A 
HETATM   15  C   UNL     1      27.609  49.550  48.823  1.00  0.00     0.001 A 
BRANCH  11  16
HETATM   16  C   UNL     1      22.557  48.190  49.102  1.00  0.00     0.124 C 
HETATM   17  C   UNL     1      22.098  47.509  47.826  1.00  0.00     0.027 C 
ENDBRANCH  11  16
ENDBRANCH   1   7
BRANCH   3  18
HETATM   18  C   UNL     1      27.258  43.322  52.459  1.00  0.00     0.129 C 
BRANCH  18  19
HETATM   19  C   UNL     1      28.786  43.276  52.581  1.00  0.00     0.058 C 
BRANCH  19  20
HETATM   20  C   UNL     1      29.325  43.719  53.918  1.00  0.00    -0.057 A 
HETATM   21  C   UNL     1      30.366  43.021  54.539  1.00  0.00     0.010 A 
HETATM   22  C   UNL     1      30.887  43.469  55.756  1.00  0.00     0.037 A 
HETATM   23  C   UNL     1      30.379  44.616  56.371  1.00  0.00     0.068 A 
HETATM   24  C   UNL     1      29.323  45.299  55.771  1.00  0.00     0.037 A 
HETATM   25  C   UNL     1      28.802  44.854  54.552  1.00  0.00     0.010 A 
BRANCH  23  26
HETATM   26  O   UNL     1      30.992  44.958  57.545  1.00  0.00    -0.356 OA
HETATM   27  C   UNL     1      30.472  46.095  58.224  1.00  0.00     0.210 C 
ENDBRANCH  23  26
ENDBRANCH  19  20
ENDBRANCH  18  19
ENDBRANCH   3  18
TORSDOF 6
ENDMDL
MODEL 2
REMARK VINA RESULT:      -8.6      2.813      7.166
REMARK  6 active torsions:
REMARK  status: ('A' for Active; 'I' for Inactive)
REMARK    1  A    between atoms: C_2  and  N_3 
REMARK    2  A    between atoms: C_10  and  N_11 
REMARK       I    between atoms: N_11  and  C_12 
REMARK       I    between atoms: C_12  and  N_13 
REMARK    3  A    between atoms: N_13  and  C_14 
REMARK    4  A    between atoms: C_14  and  C_15 
REMARK    5  A    between atoms: C_15  and  C_16 
REMARK    6  A    between atoms: C_19  and  O_20 
ROOT
HETATM    1  N   UNL     1      27.914  42.866  52.563  1.00  0.00    -0.307 N 
HETATM    2  C   UNL     1      27.827  41.513  52.715  1.00  0.00     0.320 C 
HETATM    3  N   UNL     1      27.658  40.799  51.562  1.00  0.00    -0.343 N 
HETATM    4  O   UNL     1      27.933  40.873  53.755  1.00  0.00    -0.247 OA
HETATM    5  H   UNL     1      27.997  43.210  51.624  1.00  0.00     0.170 HD
HETATM    6  H   UNL     1      27.690  39.802  51.735  1.00  0.00     0.164 HD
ENDROOT
BRANCH   1   7
HETATM    7  C   UNL     1      28.200  43.798  53.548  1.00  0.00     0.064 A 
HETATM    8  C   UNL     1      29.218  43.881  54.553  1.00  0.00     0.019 A 
HETATM    9  C   UNL     1      29.034  45.099  55.228  1.00  0.00     0.046 A 
HETATM   10  C   UNL     1      30.268  43.045  54.995  1.00  0.00     0.016 A 
HETATM   11  N   UNL     1      27.943  45.717  54.655  1.00  0.00    -0.354 N 
HETATM   12  C   UNL     1      29.868  45.509  56.283  1.00  0.00     0.030 A 
HETATM   13  C   UNL     1      27.403  44.915  53.686  1.00  0.00     0.121 A 
HETATM   14  C   UNL     1      30.905  44.663  56.678  1.00  0.00     0.002 A 
HETATM   15  C   UNL     1      31.101  43.443  56.046  1.00  0.00     0.001 A 
BRANCH  11  16
HETATM   16  C   UNL     1      27.441  47.039  54.987  1.00  0.00     0.124 C 
HETATM   17  C   UNL     1      26.234  47.428  54.155  1.00  0.00     0.027 C 
ENDBRANCH  11  16
ENDBRANCH   1   7
BRANCH   3  18
HETATM   18  C   UNL     1      27.582  41.232  50.176  1.00  0.00     0.129 C 
BRANCH  18  19
HETATM   19  C   UNL     1      26.183  41.660  49.714  1.00  0.00     0.058 C 
BRANCH  19  20
HETATM   20  C   UNL     1      25.802  43.071  50.084  1.00  0.00    -0.057 A 
HETATM   21  C   UNL     1      26.506  44.163  49.567  1.00  0.00     0.010 A 
HETATM   22  C   UNL     1      26.114  45.467  49.882  1.00  0.00     0.037 A 
HETATM   23  C   UNL     1      25.016  45.701  50.714  1.00  0.00     0.068 A 
HETATM   24  C   UNL     1      24.328  44.617  51.253  1.00  0.00     0.037 A 
HETATM   25  C   UNL     1      24.718  43.311  50.939  1.00  0.00     0.010 A 
BRANCH  23  26
HETATM   26  O   UNL     1      24.724  47.021  50.923  1.00  0.00    -0.356 OA
HETATM   27  C   UNL     1      24.127  47.719  49.836  1.00  0.00     0.210 C 
ENDBRANCH  23  26
ENDBRANCH  19  20
ENDBRANCH  18  19
ENDBRANCH   3  18
TORSDOF 6
ENDMDL
MODEL 3
REMARK VINA RESULT:      -8.4      4.030      7.213
REMARK  6 active torsions:
REMARK  status: ('A' for Active; 'I' for Inactive)
REMARK    1  A    between atoms: C_2  and  N_3 
REMARK    2  A    between atoms: C_10  and  N_11 
REMARK       I    between atoms: N_11  and  C_12 
REMARK       I    between atoms: C_12  and  N_13 
REMARK    3  A    between atoms: N_13  and  C_14 
REMARK    4  A    between atoms: C_14  and  C_15 
REMARK    5  A    between atoms: C_15  and  C_16 
REMARK    6  A    between atoms: C_19  and  O_20 
ROOT
HETATM    1  N   UNL     1      26.950  43.211  51.052  1.00  0.00    -0.307 N 
HETATM    2  C   UNL     1      26.902  43.810  49.827  1.00  0.00     0.320 C 
HETATM    3  N   UNL     1      26.397  43.043  48.815  1.00  0.00    -0.343 N 
HETATM    4  O   UNL     1      27.211  44.963  49.550  1.00  0.00    -0.247 OA
HETATM    5  H   UNL     1      26.482  42.328  51.142  1.00  0.00     0.170 HD
HETATM    6  H   UNL     1      26.307  43.574  47.957  1.00  0.00     0.164 HD
ENDROOT
BRANCH   1   7
HETATM    7  C   UNL     1      27.306  43.802  52.255  1.00  0.00     0.064 A 
HETATM    8  C   UNL     1      28.439  43.659  53.120  1.00  0.00     0.019 A 
HETATM    9  C   UNL     1      28.271  44.572  54.175  1.00  0.00     0.046 A 
HETATM   10  C   UNL     1      29.585  42.835  53.150  1.00  0.00     0.016 A 
HETATM   11  N   UNL     1      27.080  45.229  53.953  1.00  0.00    -0.354 N 
HETATM   12  C   UNL     1      29.209  44.703  55.213  1.00  0.00     0.030 A 
HETATM   13  C   UNL     1      26.467  44.731  52.836  1.00  0.00     0.121 A 
HETATM   14  C   UNL     1      30.338  43.883  55.198  1.00  0.00     0.002 A 
HETATM   15  C   UNL     1      30.523  42.956  54.182  1.00  0.00     0.001 A 
BRANCH  11  16
HETATM   16  C   UNL     1      26.547  46.319  54.753  1.00  0.00     0.124 C 
HETATM   17  C   UNL     1      26.105  47.498  53.907  1.00  0.00     0.027 C 
ENDBRANCH  11  16
ENDBRANCH   1   7
BRANCH   3  18
HETATM   18  C   UNL     1      25.867  41.689  48.819  1.00  0.00     0.129 C 
BRANCH  18  19
HETATM   19  C   UNL     1      26.560  40.726  47.847  1.00  0.00     0.058 C 
BRANCH  19  20
HETATM   20  C   UNL     1      27.606  39.840  48.476  1.00  0.00    -0.057 A 
HETATM   21  C   UNL     1      27.947  39.980  49.825  1.00  0.00     0.010 A 
HETATM   22  C   UNL     1      28.884  39.121  50.406  1.00  0.00     0.037 A 
HETATM   23  C   UNL     1      29.493  38.114  49.655  1.00  0.00     0.068 A 
HETATM   24  C   UNL     1      29.178  37.989  48.303  1.00  0.00     0.037 A 
HETATM   25  C   UNL     1      28.239  38.844  47.719  1.00  0.00     0.010 A 
BRANCH  23  26
HETATM   26  O   UNL     1      30.373  37.330  50.349  1.00  0.00    -0.356 OA
HETATM   27  C   UNL     1      29.898  36.768  51.567  1.00  0.00     0.210 C 
ENDBRANCH  23  26
ENDBRANCH  19  20
ENDBRANCH  18  19
ENDBRANCH   3  18
TORSDOF 6
ENDMDL
MODEL 4
REMARK VINA RESULT:      -8.3      2.975      7.325
REMARK  6 active torsions:
REMARK  status: ('A' for Active; 'I' for Inactive)
REMARK    1  A    between atoms: C_2  and  N_3 
REMARK    2  A    between atoms: C_10  and  N_11 
REMARK       I    between atoms: N_11  and  C_12 
REMARK       I    between atoms: C_12  and  N_13 
REMARK    3  A    between atoms: N_13  and  C_14 
REMARK    4  A    between atoms: C_14  and  C_15 
REMARK    5  A    between atoms: C_15  and  C_16 
REMARK    6  A    between atoms: C_19  and  O_20 
ROOT
HETATM    1  N   UNL     1      28.322  42.554  52.632  1.00  0.00    -0.307 N 
HETATM    2  C   UNL     1      28.271  41.200  52.796  1.00  0.00     0.320 C 
HETATM    3  N   UNL     1      27.984  40.480  51.671  1.00  0.00    -0.343 N 
HETATM    4  O   UNL     1      28.501  40.566  53.819  1.00  0.00    -0.247 OA
HETATM    5  H   UNL     1      28.294  42.896  51.689  1.00  0.00     0.170 HD
HETATM    6  H   UNL     1      28.049  39.484  51.842  1.00  0.00     0.164 HD
ENDROOT
BRANCH   1   7
HETATM    7  C   UNL     1      28.703  43.493  53.577  1.00  0.00     0.064 A 
HETATM    8  C   UNL     1      28.113  44.716  54.037  1.00  0.00     0.019 A 
HETATM    9  C   UNL     1      28.936  45.211  55.062  1.00  0.00     0.046 A 
HETATM   10  C   UNL     1      26.983  45.485  53.682  1.00  0.00     0.016 A 
HETATM   11  N   UNL     1      29.981  44.324  55.204  1.00  0.00    -0.354 N 
HETATM   12  C   UNL     1      28.650  46.405  55.747  1.00  0.00     0.030 A 
HETATM   13  C   UNL     1      29.879  43.323  54.277  1.00  0.00     0.121 A 
HETATM   14  C   UNL     1      27.514  47.127  55.379  1.00  0.00     0.002 A 
HETATM   15  C   UNL     1      26.692  46.677  54.356  1.00  0.00     0.001 A 
BRANCH  11  16
HETATM   16  C   UNL     1      31.031  44.398  56.207  1.00  0.00     0.124 C 
HETATM   17  C   UNL     1      31.335  43.048  56.829  1.00  0.00     0.027 C 
ENDBRANCH  11  16
ENDBRANCH   1   7
BRANCH   3  18
HETATM   18  C   UNL     1      27.748  40.906  50.301  1.00  0.00     0.129 C 
BRANCH  18  19
HETATM   19  C   UNL     1      26.286  41.241  49.976  1.00  0.00     0.058 C 
BRANCH  19  20
HETATM   20  C   UNL     1      25.909  42.686  50.188  1.00  0.00    -0.057 A 
HETATM   21  C   UNL     1      26.673  43.715  49.629  1.00  0.00     0.010 A 
HETATM   22  C   UNL     1      26.287  45.048  49.795  1.00  0.00     0.037 A 
HETATM   23  C   UNL     1      25.136  45.374  50.517  1.00  0.00     0.068 A 
HETATM   24  C   UNL     1      24.387  44.353  51.099  1.00  0.00     0.037 A 
HETATM   25  C   UNL     1      24.771  43.019  50.933  1.00  0.00     0.010 A 
BRANCH  23  26
HETATM   26  O   UNL     1      24.858  46.711  50.584  1.00  0.00    -0.356 OA
HETATM   27  C   UNL     1      25.961  47.597  50.428  1.00  0.00     0.210 C 
ENDBRANCH  23  26
ENDBRANCH  19  20
ENDBRANCH  18  19
ENDBRANCH   3  18
TORSDOF 6
ENDMDL
MODEL 5
REMARK VINA RESULT:      -8.3      2.642      4.655
REMARK  6 active torsions:
REMARK  status: ('A' for Active; 'I' for Inactive)
REMARK    1  A    between atoms: C_2  and  N_3 
REMARK    2  A    between atoms: C_10  and  N_11 
REMARK       I    between atoms: N_11  and  C_12 
REMARK       I    between atoms: C_12  and  N_13 
REMARK    3  A    between atoms: N_13  and  C_14 
REMARK    4  A    between atoms: C_14  and  C_15 
REMARK    5  A    between atoms: C_15  and  C_16 
REMARK    6  A    between atoms: C_19  and  O_20 
ROOT
HETATM    1  N   UNL     1      26.560  46.435  53.048  1.00  0.00    -0.307 N 
HETATM    2  C   UNL     1      26.406  47.289  54.102  1.00  0.00     0.320 C 
HETATM    3  N   UNL     1      27.457  47.346  54.973  1.00  0.00    -0.343 N 
HETATM    4  O   UNL     1      25.461  48.038  54.320  1.00  0.00    -0.247 OA
HETATM    5  H   UNL     1      27.472  46.038  52.918  1.00  0.00     0.170 HD
HETATM    6  H   UNL     1      27.316  48.060  55.678  1.00  0.00     0.164 HD
ENDROOT
BRANCH   1   7
HETATM    7  C   UNL     1      25.702  46.279  51.971  1.00  0.00     0.064 A 
HETATM    8  C   UNL     1      25.039  45.143  51.402  1.00  0.00     0.019 A 
HETATM    9  C   UNL     1      24.244  45.616  50.345  1.00  0.00     0.046 A 
HETATM   10  C   UNL     1      25.041  43.751  51.643  1.00  0.00     0.016 A 
HETATM   11  N   UNL     1      24.431  46.979  50.278  1.00  0.00    -0.354 N 
HETATM   12  C   UNL     1      23.446  44.762  49.563  1.00  0.00     0.030 A 
HETATM   13  C   UNL     1      25.349  47.376  51.212  1.00  0.00     0.121 A 
HETATM   14  C   UNL     1      23.462  43.395  49.843  1.00  0.00     0.002 A 
HETATM   15  C   UNL     1      24.252  42.893  50.868  1.00  0.00     0.001 A 
BRANCH  11  16
HETATM   16  C   UNL     1      23.741  47.891  49.381  1.00  0.00     0.124 C 
HETATM   17  C   UNL     1      24.636  49.014  48.893  1.00  0.00     0.027 C 
ENDBRANCH  11  16
ENDBRANCH   1   7
BRANCH   3  18
HETATM   18  C   UNL     1      28.743  46.667  54.961  1.00  0.00     0.129 C 
BRANCH  18  19
HETATM   19  C   UNL     1      28.761  45.314  55.685  1.00  0.00     0.058 C 
BRANCH  19  20
HETATM   20  C   UNL     1      28.810  44.113  54.774  1.00  0.00    -0.057 A 
HETATM   21  C   UNL     1      30.028  43.643  54.273  1.00  0.00     0.010 A 
HETATM   22  C   UNL     1      30.063  42.502  53.467  1.00  0.00     0.037 A 
HETATM   23  C   UNL     1      28.889  41.814  53.150  1.00  0.00     0.068 A 
HETATM   24  C   UNL     1      27.670  42.295  53.625  1.00  0.00     0.037 A 
HETATM   25  C   UNL     1      27.632  43.435  54.433  1.00  0.00     0.010 A 
BRANCH  23  26
HETATM   26  O   UNL     1      29.065  40.701  52.374  1.00  0.00    -0.356 OA
HETATM   27  C   UNL     1      28.282  40.625  51.188  1.00  0.00     0.210 C 
ENDBRANCH  23  26
ENDBRANCH  19  20
ENDBRANCH  18  19
ENDBRANCH   3  18
TORSDOF 6
ENDMDL
MODEL 6
REMARK VINA RESULT:      -8.0      4.083      9.804
REMARK  6 active torsions:
REMARK  status: ('A' for Active; 'I' for Inactive)
REMARK    1  A    between atoms: C_2  and  N_3 
REMARK    2  A    between atoms: C_10  and  N_11 
REMARK       I    between atoms: N_11  and  C_12 
REMARK       I    between atoms: C_12  and  N_13 
REMARK    3  A    between atoms: N_13  and  C_14 
REMARK    4  A    between atoms: C_14  and  C_15 
REMARK    5  A    between atoms: C_15  and  C_16 
REMARK    6  A    between atoms: C_19  and  O_20 
ROOT
HETATM    1  N   UNL     1      24.608  47.470  50.242  1.00  0.00    -0.307 N 
HETATM    2  C   UNL     1      25.134  48.412  49.407  1.00  0.00     0.320 C 
HETATM    3  N   UNL     1      24.251  49.343  48.937  1.00  0.00    -0.343 N 
HETATM    4  O   UNL     1      26.308  48.542  49.078  1.00  0.00    -0.247 OA
HETATM    5  H   UNL     1      23.667  47.621  50.557  1.00  0.00     0.170 HD
HETATM    6  H   UNL     1      24.721  50.061  48.398  1.00  0.00     0.164 HD
ENDROOT
BRANCH   1   7
HETATM    7  C   UNL     1      25.302  46.495  50.940  1.00  0.00     0.064 A 
HETATM    8  C   UNL     1      25.834  46.432  52.269  1.00  0.00     0.019 A 
HETATM    9  C   UNL     1      26.389  45.151  52.432  1.00  0.00     0.046 A 
HETATM   10  C   UNL     1      25.937  47.328  53.356  1.00  0.00     0.016 A 
HETATM   11  N   UNL     1      26.204  44.478  51.244  1.00  0.00    -0.354 N 
HETATM   12  C   UNL     1      26.999  44.742  53.631  1.00  0.00     0.030 A 
HETATM   13  C   UNL     1      25.607  45.298  50.325  1.00  0.00     0.121 A 
HETATM   14  C   UNL     1      27.066  45.651  54.687  1.00  0.00     0.002 A 
HETATM   15  C   UNL     1      26.546  46.931  54.552  1.00  0.00     0.001 A 
BRANCH  11  16
HETATM   16  C   UNL     1      26.553  43.090  50.988  1.00  0.00     0.124 C 
HETATM   17  C   UNL     1      25.342  42.242  50.648  1.00  0.00     0.027 C 
ENDBRANCH  11  16
ENDBRANCH   1   7
BRANCH   3  18
HETATM   18  C   UNL     1      22.833  49.527  49.197  1.00  0.00     0.129 C 
BRANCH  18  19
HETATM   19  C   UNL     1      22.296  50.926  48.866  1.00  0.00     0.058 C 
BRANCH  19  20
HETATM   20  C   UNL     1      20.818  51.105  49.101  1.00  0.00    -0.057 A 
HETATM   21  C   UNL     1      20.148  50.346  50.066  1.00  0.00     0.010 A 
HETATM   22  C   UNL     1      18.787  50.554  50.305  1.00  0.00     0.037 A 
HETATM   23  C   UNL     1      18.075  51.519  49.589  1.00  0.00     0.068 A 
HETATM   24  C   UNL     1      18.731  52.258  48.607  1.00  0.00     0.037 A 
HETATM   25  C   UNL     1      20.093  52.054  48.367  1.00  0.00     0.010 A 
BRANCH  23  26
HETATM   26  O   UNL     1      16.757  51.638  49.936  1.00  0.00    -0.356 OA
HETATM   27  C   UNL     1      16.249  52.962  50.056  1.00  0.00     0.210 C 
ENDBRANCH  23  26
ENDBRANCH  19  20
ENDBRANCH  18  19
ENDBRANCH   3  18
TORSDOF 6
ENDMDL
MODEL 7
REMARK VINA RESULT:      -8.0      2.314      4.120
REMARK  6 active torsions:
REMARK  status: ('A' for Active; 'I' for Inactive)
REMARK    1  A    between atoms: C_2  and  N_3 
REMARK    2  A    between atoms: C_10  and  N_11 
REMARK       I    between atoms: N_11  and  C_12 
REMARK       I    between atoms: C_12  and  N_13 
REMARK    3  A    between atoms: N_13  and  C_14 
REMARK    4  A    between atoms: C_14  and  C_15 
REMARK    5  A    between atoms: C_15  and  C_16 
REMARK    6  A    between atoms: C_19  and  O_20 
ROOT
HETATM    1  N   UNL     1      23.673  47.589  50.044  1.00  0.00    -0.307 N 
HETATM    2  C   UNL     1      24.964  48.021  49.946  1.00  0.00     0.320 C 
HETATM    3  N   UNL     1      25.835  47.483  50.850  1.00  0.00    -0.343 N 
HETATM    4  O   UNL     1      25.429  48.790  49.113  1.00  0.00    -0.247 OA
HETATM    5  H   UNL     1      23.501  46.815  50.660  1.00  0.00     0.170 HD
HETATM    6  H   UNL     1      26.788  47.776  50.666  1.00  0.00     0.164 HD
ENDROOT
BRANCH   1   7
HETATM    7  C   UNL     1      22.628  47.886  49.183  1.00  0.00     0.064 A 
HETATM    8  C   UNL     1      21.876  49.079  48.929  1.00  0.00     0.019 A 
HETATM    9  C   UNL     1      20.973  48.786  47.894  1.00  0.00     0.046 A 
HETATM   10  C   UNL     1      21.835  50.380  49.480  1.00  0.00     0.016 A 
HETATM   11  N   UNL     1      21.170  47.467  47.549  1.00  0.00    -0.354 N 
HETATM   12  C   UNL     1      20.075  49.741  47.386  1.00  0.00     0.030 A 
HETATM   13  C   UNL     1      22.119  46.904  48.358  1.00  0.00     0.121 A 
HETATM   14  C   UNL     1      20.077  51.020  47.944  1.00  0.00     0.002 A 
HETATM   15  C   UNL     1      20.943  51.336  48.982  1.00  0.00     0.001 A 
BRANCH  11  16
HETATM   16  C   UNL     1      20.505  46.762  46.466  1.00  0.00     0.124 C 
HETATM   17  C   UNL     1      21.465  45.923  45.644  1.00  0.00     0.027 C 
ENDBRANCH  11  16
ENDBRANCH   1   7
BRANCH   3  18
HETATM   18  C   UNL     1      25.634  46.494  51.896  1.00  0.00     0.129 C 
BRANCH  18  19
HETATM   19  C   UNL     1      25.877  47.009  53.321  1.00  0.00     0.058 C 
BRANCH  19  20
HETATM   20  C   UNL     1      27.041  46.366  54.033  1.00  0.00    -0.057 A 
HETATM   21  C   UNL     1      27.816  47.094  54.941  1.00  0.00     0.010 A 
HETATM   22  C   UNL     1      28.863  46.473  55.628  1.00  0.00     0.037 A 
HETATM   23  C   UNL     1      29.152  45.122  55.420  1.00  0.00     0.068 A 
HETATM   24  C   UNL     1      28.401  44.400  54.495  1.00  0.00     0.037 A 
HETATM   25  C   UNL     1      27.351  45.018  53.808  1.00  0.00     0.010 A 
BRANCH  23  26
HETATM   26  O   UNL     1      30.185  44.632  56.171  1.00  0.00    -0.356 OA
HETATM   27  C   UNL     1      30.806  43.442  55.697  1.00  0.00     0.210 C 
ENDBRANCH  23  26
ENDBRANCH  19  20
ENDBRANCH  18  19
ENDBRANCH   3  18
TORSDOF 6
ENDMDL
MODEL 8
REMARK VINA RESULT:      -8.0      3.599      7.836
REMARK  6 active torsions:
REMARK  status: ('A' for Active; 'I' for Inactive)
REMARK    1  A    between atoms: C_2  and  N_3 
REMARK    2  A    between atoms: C_10  and  N_11 
REMARK       I    between atoms: N_11  and  C_12 
REMARK       I    between atoms: C_12  and  N_13 
REMARK    3  A    between atoms: N_13  and  C_14 
REMARK    4  A    between atoms: C_14  and  C_15 
REMARK    5  A    between atoms: C_15  and  C_16 
REMARK    6  A    between atoms: C_19  and  O_20 
ROOT
HETATM    1  N   UNL     1      27.932  42.572  52.369  1.00  0.00    -0.307 N 
HETATM    2  C   UNL     1      28.051  41.240  52.643  1.00  0.00     0.320 C 
HETATM    3  N   UNL     1      27.993  40.409  51.561  1.00  0.00    -0.343 N 
HETATM    4  O   UNL     1      28.253  40.721  53.734  1.00  0.00    -0.247 OA
HETATM    5  H   UNL     1      27.961  42.839  51.402  1.00  0.00     0.170 HD
HETATM    6  H   UNL     1      28.177  39.447  51.822  1.00  0.00     0.164 HD
ENDROOT
BRANCH   1   7
HETATM    7  C   UNL     1      28.072  43.622  53.263  1.00  0.00     0.064 A 
HETATM    8  C   UNL     1      29.048  43.932  54.265  1.00  0.00     0.019 A 
HETATM    9  C   UNL     1      28.691  45.173  54.819  1.00  0.00     0.046 A 
HETATM   10  C   UNL     1      30.188  43.288  54.795  1.00  0.00     0.016 A 
HETATM   11  N   UNL     1      27.542  45.585  54.179  1.00  0.00    -0.354 N 
HETATM   12  C   UNL     1      29.441  45.787  55.838  1.00  0.00     0.030 A 
HETATM   13  C   UNL     1      27.132  44.632  53.287  1.00  0.00     0.121 A 
HETATM   14  C   UNL     1      30.571  45.126  56.322  1.00  0.00     0.002 A 
HETATM   15  C   UNL     1      30.939  43.889  55.811  1.00  0.00     0.001 A 
BRANCH  11  16
HETATM   16  C   UNL     1      26.864  46.855  54.379  1.00  0.00     0.124 C 
HETATM   17  C   UNL     1      25.770  47.096  53.356  1.00  0.00     0.027 C 
ENDBRANCH  11  16
ENDBRANCH   1   7
BRANCH   3  18
HETATM   18  C   UNL     1      27.853  40.698  50.143  1.00  0.00     0.129 C 
BRANCH  18  19
HETATM   19  C   UNL     1      26.672  39.997  49.459  1.00  0.00     0.058 C 
BRANCH  19  20
HETATM   20  C   UNL     1      25.475  40.880  49.209  1.00  0.00    -0.057 A 
HETATM   21  C   UNL     1      24.660  40.684  48.090  1.00  0.00     0.010 A 
HETATM   22  C   UNL     1      23.528  41.479  47.896  1.00  0.00     0.037 A 
HETATM   23  C   UNL     1      23.192  42.480  48.811  1.00  0.00     0.068 A 
HETATM   24  C   UNL     1      24.017  42.698  49.912  1.00  0.00     0.037 A 
HETATM   25  C   UNL     1      25.149  41.902  50.111  1.00  0.00     0.010 A 
BRANCH  23  26
HETATM   26  O   UNL     1      22.049  43.170  48.515  1.00  0.00    -0.356 OA
HETATM   27  C   UNL     1      21.925  44.467  49.087  1.00  0.00     0.210 C 
ENDBRANCH  23  26
ENDBRANCH  19  20
ENDBRANCH  18  19
ENDBRANCH   3  18
TORSDOF 6
ENDMDL
MODEL 9
REMARK VINA RESULT:      -7.9      2.944      9.113
REMARK  6 active torsions:
REMARK  status: ('A' for Active; 'I' for Inactive)
REMARK    1  A    between atoms: C_2  and  N_3 
REMARK    2  A    between atoms: C_10  and  N_11 
REMARK       I    between atoms: N_11  and  C_12 
REMARK       I    between atoms: C_12  and  N_13 
REMARK    3  A    between atoms: N_13  and  C_14 
REMARK    4  A    between atoms: C_14  and  C_15 
REMARK    5  A    between atoms: C_15  and  C_16 
REMARK    6  A    between atoms: C_19  and  O_20 
ROOT
HETATM    1  N   UNL     1      25.590  45.673  51.415  1.00  0.00    -0.307 N 
HETATM    2  C   UNL     1      24.384  45.088  51.158  1.00  0.00     0.320 C 
HETATM    3  N   UNL     1      23.682  45.617  50.113  1.00  0.00    -0.343 N 
HETATM    4  O   UNL     1      23.893  44.118  51.725  1.00  0.00    -0.247 OA
HETATM    5  H   UNL     1      25.925  46.333  50.737  1.00  0.00     0.170 HD
HETATM    6  H   UNL     1      22.843  45.082  49.922  1.00  0.00     0.164 HD
ENDROOT
BRANCH   1   7
HETATM    7  C   UNL     1      26.539  45.256  52.334  1.00  0.00     0.064 A 
HETATM    8  C   UNL     1      27.063  45.837  53.535  1.00  0.00     0.019 A 
HETATM    9  C   UNL     1      27.971  44.913  54.079  1.00  0.00     0.046 A 
HETATM   10  C   UNL     1      26.894  47.063  54.218  1.00  0.00     0.016 A 
HETATM   11  N   UNL     1      27.996  43.827  53.233  1.00  0.00    -0.354 N 
HETATM   12  C   UNL     1      28.671  45.160  55.273  1.00  0.00     0.030 A 
HETATM   13  C   UNL     1      27.185  44.051  52.153  1.00  0.00     0.121 A 
HETATM   14  C   UNL     1      28.464  46.375  55.927  1.00  0.00     0.002 A 
HETATM   15  C   UNL     1      27.589  47.319  55.405  1.00  0.00     0.001 A 
BRANCH  11  16
HETATM   16  C   UNL     1      28.739  42.596  53.448  1.00  0.00     0.124 C 
HETATM   17  C   UNL     1      30.221  42.758  53.170  1.00  0.00     0.027 C 
ENDBRANCH  11  16
ENDBRANCH   1   7
BRANCH   3  18
HETATM   18  C   UNL     1      24.010  46.694  49.193  1.00  0.00     0.129 C 
BRANCH  18  19
HETATM   19  C   UNL     1      23.892  48.104  49.786  1.00  0.00     0.058 C 
BRANCH  19  20
HETATM   20  C   UNL     1      22.781  48.941  49.205  1.00  0.00    -0.057 A 
HETATM   21  C   UNL     1      21.581  48.353  48.791  1.00  0.00     0.010 A 
HETATM   22  C   UNL     1      20.542  49.146  48.296  1.00  0.00     0.037 A 
HETATM   23  C   UNL     1      20.683  50.533  48.207  1.00  0.00     0.068 A 
HETATM   24  C   UNL     1      21.886  51.120  48.591  1.00  0.00     0.037 A 
HETATM   25  C   UNL     1      22.927  50.330  49.088  1.00  0.00     0.010 A 
BRANCH  23  26
HETATM   26  O   UNL     1      19.585  51.193  47.728  1.00  0.00    -0.356 OA
HETATM   27  C   UNL     1      19.196  52.369  48.428  1.00  0.00     0.210 C 
ENDBRANCH  23  26
ENDBRANCH  19  20
ENDBRANCH  18  19
ENDBRANCH   3  18
TORSDOF 6
ENDMDL
MODEL 10
REMARK VINA RESULT:      -7.7      3.749      6.652
REMARK  6 active torsions:
REMARK  status: ('A' for Active; 'I' for Inactive)
REMARK    1  A    between atoms: C_2  and  N_3 
REMARK    2  A    between atoms: C_10  and  N_11 
REMARK       I    between atoms: N_11  and  C_12 
REMARK       I    between atoms: C_12  and  N_13 
REMARK    3  A    between atoms: N_13  and  C_14 
REMARK    4  A    between atoms: C_14  and  C_15 
REMARK    5  A    between atoms: C_15  and  C_16 
REMARK    6  A    between atoms: C_19  and  O_20 
ROOT
HETATM    1  N   UNL     1      27.082  42.297  50.675  1.00  0.00    -0.307 N 
HETATM    2  C   UNL     1      25.763  42.559  50.908  1.00  0.00     0.320 C 
HETATM    3  N   UNL     1      25.507  43.678  51.649  1.00  0.00    -0.343 N 
HETATM    4  O   UNL     1      24.796  41.937  50.486  1.00  0.00    -0.247 OA
HETATM    5  H   UNL     1      27.738  43.011  50.933  1.00  0.00     0.170 HD
HETATM    6  H   UNL     1      24.513  43.863  51.709  1.00  0.00     0.164 HD
ENDROOT
BRANCH   1   7
HETATM    7  C   UNL     1      27.603  41.301  49.863  1.00  0.00     0.064 A 
HETATM    8  C   UNL     1      28.397  40.138  50.125  1.00  0.00     0.019 A 
HETATM    9  C   UNL     1      28.568  39.471  48.900  1.00  0.00     0.046 A 
HETATM   10  C   UNL     1      29.022  39.580  51.262  1.00  0.00     0.016 A 
HETATM   11  N   UNL     1      27.909  40.211  47.942  1.00  0.00    -0.354 N 
HETATM   12  C   UNL     1      29.300  38.275  48.790  1.00  0.00     0.030 A 
HETATM   13  C   UNL     1      27.378  41.341  48.502  1.00  0.00     0.121 A 
HETATM   14  C   UNL     1      29.888  37.746  49.940  1.00  0.00     0.002 A 
HETATM   15  C   UNL     1      29.756  38.392  51.161  1.00  0.00     0.001 A 
BRANCH  11  16
HETATM   16  C   UNL     1      27.756  39.849  46.543  1.00  0.00     0.124 C 
HETATM   17  C   UNL     1      28.171  40.967  45.606  1.00  0.00     0.027 C 
ENDBRANCH  11  16
ENDBRANCH   1   7
BRANCH   3  18
HETATM   18  C   UNL     1      26.404  44.669  52.220  1.00  0.00     0.129 C 
BRANCH  18  19
HETATM   19  C   UNL     1      26.466  44.672  53.753  1.00  0.00     0.058 C 
BRANCH  19  20
HETATM   20  C   UNL     1      27.848  44.481  54.327  1.00  0.00    -0.057 A 
HETATM   21  C   UNL     1      28.387  45.410  55.222  1.00  0.00     0.010 A 
HETATM   22  C   UNL     1      29.649  45.197  55.782  1.00  0.00     0.037 A 
HETATM   23  C   UNL     1      30.391  44.058  55.460  1.00  0.00     0.068 A 
HETATM   24  C   UNL     1      29.870  43.143  54.547  1.00  0.00     0.037 A 
HETATM   25  C   UNL     1      28.606  43.353  53.987  1.00  0.00     0.010 A 
BRANCH  23  26
HETATM   26  O   UNL     1      31.599  43.960  56.094  1.00  0.00    -0.356 OA
HETATM   27  C   UNL     1      31.613  43.246  57.325  1.00  0.00     0.210 C 
ENDBRANCH  23  26
ENDBRANCH  19  20
ENDBRANCH  18  19
ENDBRANCH   3  18
TORSDOF 6
ENDMDL
