MODEL 1
REMARK VINA RESULT:      -9.1      0.000      0.000
REMARK  6 active torsions:
REMARK  status: ('A' for Active; 'I' for Inactive)
REMARK    1  A    between atoms: C_2  and  C_3 
REMARK    2  A    between atoms: C_3  and  C_4 
REMARK    3  A    between atoms: C_3  and  C_10 
REMARK    4  A    between atoms: C_10  and  C_11 
REMARK       I    between atoms: C_11  and  N_12 
REMARK    5  A    between atoms: N_12  and  C_13 
REMARK    6  A    between atoms: C_15  and  C_16 
ROOT
HETATM    1  C   UNL     1      26.350  44.900  53.949  1.00  0.00     0.223 C 
HETATM    2  N   UNL     1      26.736  45.082  52.631  1.00  0.00    -0.327 N 
HETATM    3  O   UNL     1      25.227  45.081  54.409  1.00  0.00    -0.273 OA
HETATM    4  H   UNL     1      27.639  44.713  52.365  1.00  0.00     0.169 HD
ENDROOT
BRANCH   2   5
HETATM    5  C   UNL     1      25.979  45.668  51.594  1.00  0.00     0.035 A 
HETATM    6  C   UNL     1      26.366  46.825  50.907  1.00  0.00     0.042 A 
HETATM    7  C   UNL     1      25.591  47.350  49.857  1.00  0.00    -0.021 A 
HETATM    8  C   UNL     1      24.405  46.687  49.513  1.00  0.00     0.012 A 
HETATM    9  C   UNL     1      24.011  45.532  50.189  1.00  0.00     0.003 A 
HETATM   10  C   UNL     1      24.797  45.022  51.222  1.00  0.00     0.029 A 
BRANCH   7  11
HETATM   11  C   UNL     1      26.035  48.546  49.148  1.00  0.00     0.010 A 
HETATM   12  C   UNL     1      25.314  49.474  48.352  1.00  0.00     0.152 A 
HETATM   13  N   UNL     1      26.078  50.461  47.875  1.00  0.00    -0.187 NA
HETATM   14  N   UNL     1      27.294  50.174  48.359  1.00  0.00    -0.289 N 
HETATM   15  H   UNL     1      28.061  50.796  48.127  1.00  0.00     0.188 HD
HETATM   16  C   UNL     1      27.323  49.045  49.125  1.00  0.00     0.123 A 
ENDBRANCH   7  11
ENDBRANCH   2   5
BRANCH   1  17
HETATM   17  C   UNL     1      27.482  44.406  54.833  1.00  0.00     0.116 C 
BRANCH  17  18
HETATM   18  C   UNL     1      28.574  45.478  55.020  1.00  0.00     0.049 C 
BRANCH  18  19
HETATM   19  C   UNL     1      28.121  46.856  55.472  1.00  0.00    -0.027 C 
HETATM   20  C   UNL     1      27.890  47.940  54.720  1.00  0.00     0.007 C 
ENDBRANCH  18  19
BRANCH  18  21
HETATM   21  C   UNL     1      29.654  44.942  55.956  1.00  0.00    -0.050 A 
HETATM   22  C   UNL     1      29.917  45.561  57.190  1.00  0.00     0.008 A 
HETATM   23  C   UNL     1      30.906  45.062  58.039  1.00  0.00     0.001 A 
HETATM   24  C   UNL     1      31.640  43.938  57.669  1.00  0.00     0.000 A 
HETATM   25  C   UNL     1      31.389  43.311  56.451  1.00  0.00     0.001 A 
HETATM   26  C   UNL     1      30.402  43.810  55.598  1.00  0.00     0.008 A 
ENDBRANCH  18  21
ENDBRANCH  17  18
ENDBRANCH   1  17
TORSDOF 6
ENDMDL
MODEL 2
REMARK VINA RESULT:      -8.8      4.345      6.126
REMARK  6 active torsions:
REMARK  status: ('A' for Active; 'I' for Inactive)
REMARK    1  A    between atoms: C_2  and  C_3 
REMARK    2  A    between atoms: C_3  and  C_4 
REMARK    3  A    between atoms: C_3  and  C_10 
REMARK    4  A    between atoms: C_10  and  C_11 
REMARK       I    between atoms: C_11  and  N_12 
REMARK    5  A    between atoms: N_12  and  C_13 
REMARK    6  A    between atoms: C_15  and  C_16 
ROOT
HETATM    1  C   UNL     1      27.271  44.113  53.236  1.00  0.00     0.223 C 
HETATM    2  N   UNL     1      27.046  42.752  53.121  1.00  0.00    -0.327 N 
HETATM    3  O   UNL     1      27.300  44.925  52.316  1.00  0.00    -0.273 OA
HETATM    4  H   UNL     1      26.863  42.246  53.978  1.00  0.00     0.169 HD
ENDROOT
BRANCH   2   5
HETATM    5  C   UNL     1      26.976  41.995  51.931  1.00  0.00     0.035 A 
HETATM    6  C   UNL     1      27.895  40.996  51.591  1.00  0.00     0.042 A 
HETATM    7  C   UNL     1      27.760  40.247  50.407  1.00  0.00    -0.021 A 
HETATM    8  C   UNL     1      26.679  40.532  49.562  1.00  0.00     0.012 A 
HETATM    9  C   UNL     1      25.755  41.524  49.893  1.00  0.00     0.003 A 
HETATM   10  C   UNL     1      25.901  42.249  51.075  1.00  0.00     0.029 A 
BRANCH   7  11
HETATM   11  C   UNL     1      28.725  39.198  50.093  1.00  0.00     0.010 A 
HETATM   12  C   UNL     1      29.627  38.487  50.927  1.00  0.00     0.152 A 
HETATM   13  N   UNL     1      30.350  37.580  50.264  1.00  0.00    -0.187 NA
HETATM   14  N   UNL     1      29.921  37.702  49.001  1.00  0.00    -0.289 N 
HETATM   15  H   UNL     1      30.332  37.103  48.294  1.00  0.00     0.188 HD
HETATM   16  C   UNL     1      28.951  38.651  48.845  1.00  0.00     0.123 A 
ENDBRANCH   7  11
ENDBRANCH   2   5
BRANCH   1  17
HETATM   17  C   UNL     1      27.467  44.561  54.674  1.00  0.00     0.116 C 
BRANCH  17  18
HETATM   18  C   UNL     1      28.634  45.558  54.811  1.00  0.00     0.049 C 
BRANCH  18  19
HETATM   19  C   UNL     1      28.278  47.003  55.120  1.00  0.00    -0.027 C 
HETATM   20  C   UNL     1      27.104  47.623  54.938  1.00  0.00     0.007 C 
ENDBRANCH  18  19
BRANCH  18  21
HETATM   21  C   UNL     1      29.635  45.029  55.835  1.00  0.00    -0.050 A 
HETATM   22  C   UNL     1      29.800  45.659  57.080  1.00  0.00     0.008 A 
HETATM   23  C   UNL     1      30.717  45.165  58.010  1.00  0.00     0.001 A 
HETATM   24  C   UNL     1      31.476  44.037  57.709  1.00  0.00     0.000 A 
HETATM   25  C   UNL     1      31.321  43.400  56.480  1.00  0.00     0.001 A 
HETATM   26  C   UNL     1      30.406  43.893  55.547  1.00  0.00     0.008 A 
ENDBRANCH  18  21
ENDBRANCH  17  18
ENDBRANCH   1  17
TORSDOF 6
ENDMDL
MODEL 3
REMARK VINA RESULT:      -8.6      1.296      1.781
REMARK  6 active torsions:
REMARK  status: ('A' for Active; 'I' for Inactive)
REMARK    1  A    between atoms: C_2  and  C_3 
REMARK    2  A    between atoms: C_3  and  C_4 
REMARK    3  A    between atoms: C_3  and  C_10 
REMARK    4  A    between atoms: C_10  and  C_11 
REMARK       I    between atoms: C_11  and  N_12 
REMARK    5  A    between atoms: N_12  and  C_13 
REMARK    6  A    between atoms: C_15  and  C_16 
ROOT
HETATM    1  C   UNL     1      25.773  44.139  53.730  1.00  0.00     0.223 C 
HETATM    2  N   UNL     1      26.029  44.216  52.371  1.00  0.00    -0.327 N 
HETATM    3  O   UNL     1      24.678  44.263  54.271  1.00  0.00    -0.273 OA
HETATM    4  H   UNL     1      26.941  43.907  52.061  1.00  0.00     0.169 HD
ENDROOT
BRANCH   2   5
HETATM    5  C   UNL     1      25.135  44.617  51.356  1.00  0.00     0.035 A 
HETATM    6  C   UNL     1      24.974  45.945  50.942  1.00  0.00     0.042 A 
HETATM    7  C   UNL     1      24.093  46.288  49.900  1.00  0.00    -0.021 A 
HETATM    8  C   UNL     1      23.365  45.261  49.283  1.00  0.00     0.012 A 
HETATM    9  C   UNL     1      23.519  43.934  49.686  1.00  0.00     0.003 A 
HETATM   10  C   UNL     1      24.404  43.614  50.714  1.00  0.00     0.029 A 
BRANCH   7  11
HETATM   11  C   UNL     1      23.964  47.679  49.479  1.00  0.00     0.010 A 
HETATM   12  C   UNL     1      24.948  48.686  49.291  1.00  0.00     0.152 A 
HETATM   13  N   UNL     1      24.435  49.850  48.882  1.00  0.00    -0.187 NA
HETATM   14  N   UNL     1      23.121  49.602  48.807  1.00  0.00    -0.289 N 
HETATM   15  H   UNL     1      22.507  50.352  48.511  1.00  0.00     0.188 HD
HETATM   16  C   UNL     1      22.787  48.323  49.150  1.00  0.00     0.123 A 
ENDBRANCH   7  11
ENDBRANCH   2   5
BRANCH   1  17
HETATM   17  C   UNL     1      27.016  43.848  54.551  1.00  0.00     0.116 C 
BRANCH  17  18
HETATM   18  C   UNL     1      27.983  45.049  54.575  1.00  0.00     0.049 C 
BRANCH  18  19
HETATM   19  C   UNL     1      27.405  46.394  54.984  1.00  0.00    -0.027 C 
HETATM   20  C   UNL     1      27.117  47.443  54.202  1.00  0.00     0.007 C 
ENDBRANCH  18  19
BRANCH  18  21
HETATM   21  C   UNL     1      29.193  44.708  55.441  1.00  0.00    -0.050 A 
HETATM   22  C   UNL     1      29.542  45.504  56.545  1.00  0.00     0.008 A 
HETATM   23  C   UNL     1      30.650  45.182  57.331  1.00  0.00     0.001 A 
HETATM   24  C   UNL     1      31.419  44.061  57.026  1.00  0.00     0.000 A 
HETATM   25  C   UNL     1      31.083  43.261  55.937  1.00  0.00     0.001 A 
HETATM   26  C   UNL     1      29.977  43.583  55.146  1.00  0.00     0.008 A 
ENDBRANCH  18  21
ENDBRANCH  17  18
ENDBRANCH   1  17
TORSDOF 6
ENDMDL
MODEL 4
REMARK VINA RESULT:      -8.4      2.279      3.472
REMARK  6 active torsions:
REMARK  status: ('A' for Active; 'I' for Inactive)
REMARK    1  A    between atoms: C_2  and  C_3 
REMARK    2  A    between atoms: C_3  and  C_4 
REMARK    3  A    between atoms: C_3  and  C_10 
REMARK    4  A    between atoms: C_10  and  C_11 
REMARK       I    between atoms: C_11  and  N_12 
REMARK    5  A    between atoms: N_12  and  C_13 
REMARK    6  A    between atoms: C_15  and  C_16 
ROOT
HETATM    1  C   UNL     1      26.210  44.530  53.716  1.00  0.00     0.223 C 
HETATM    2  N   UNL     1      26.622  44.997  52.478  1.00  0.00    -0.327 N 
HETATM    3  O   UNL     1      25.050  44.424  54.103  1.00  0.00    -0.273 OA
HETATM    4  H   UNL     1      27.592  44.849  52.235  1.00  0.00     0.169 HD
ENDROOT
BRANCH   2   5
HETATM    5  C   UNL     1      25.821  45.599  51.484  1.00  0.00     0.035 A 
HETATM    6  C   UNL     1      24.958  44.886  50.644  1.00  0.00     0.042 A 
HETATM    7  C   UNL     1      24.155  45.538  49.690  1.00  0.00    -0.021 A 
HETATM    8  C   UNL     1      24.245  46.934  49.591  1.00  0.00     0.012 A 
HETATM    9  C   UNL     1      25.101  47.655  50.425  1.00  0.00     0.003 A 
HETATM   10  C   UNL     1      25.881  46.990  51.370  1.00  0.00     0.029 A 
BRANCH   7  11
HETATM   11  C   UNL     1      23.250  44.766  48.844  1.00  0.00     0.010 A 
HETATM   12  C   UNL     1      22.719  43.460  49.006  1.00  0.00     0.152 A 
HETATM   13  N   UNL     1      21.903  43.099  48.010  1.00  0.00    -0.187 NA
HETATM   14  N   UNL     1      21.906  44.168  47.203  1.00  0.00    -0.289 N 
HETATM   15  H   UNL     1      21.346  44.133  46.359  1.00  0.00     0.188 HD
HETATM   16  C   UNL     1      22.691  45.190  47.655  1.00  0.00     0.123 A 
ENDBRANCH   7  11
ENDBRANCH   2   5
BRANCH   1  17
HETATM   17  C   UNL     1      27.367  44.112  54.604  1.00  0.00     0.116 C 
BRANCH  17  18
HETATM   18  C   UNL     1      28.360  45.268  54.838  1.00  0.00     0.049 C 
BRANCH  18  19
HETATM   19  C   UNL     1      27.788  46.575  55.363  1.00  0.00    -0.027 C 
HETATM   20  C   UNL     1      27.786  47.775  54.769  1.00  0.00     0.007 C 
ENDBRANCH  18  19
BRANCH  18  21
HETATM   21  C   UNL     1      29.495  44.788  55.738  1.00  0.00    -0.050 A 
HETATM   22  C   UNL     1      30.261  43.659  55.400  1.00  0.00     0.008 A 
HETATM   23  C   UNL     1      31.298  43.230  56.230  1.00  0.00     0.001 A 
HETATM   24  C   UNL     1      31.585  43.924  57.403  1.00  0.00     0.000 A 
HETATM   25  C   UNL     1      30.837  45.046  57.750  1.00  0.00     0.001 A 
HETATM   26  C   UNL     1      29.796  45.476  56.923  1.00  0.00     0.008 A 
ENDBRANCH  18  21
ENDBRANCH  17  18
ENDBRANCH   1  17
TORSDOF 6
ENDMDL
MODEL 5
REMARK VINA RESULT:      -8.3      2.452      3.857
REMARK  6 active torsions:
REMARK  status: ('A' for Active; 'I' for Inactive)
REMARK    1  A    between atoms: C_2  and  C_3 
REMARK    2  A    between atoms: C_3  and  C_4 
REMARK    3  A    between atoms: C_3  and  C_10 
REMARK    4  A    between atoms: C_10  and  C_11 
REMARK       I    between atoms: C_11  and  N_12 
REMARK    5  A    between atoms: N_12  and  C_13 
REMARK    6  A    between atoms: C_15  and  C_16 
ROOT
HETATM    1  C   UNL     1      26.390  45.181  50.292  1.00  0.00     0.223 C 
HETATM    2  N   UNL     1      26.628  46.515  50.578  1.00  0.00    -0.327 N 
HETATM    3  O   UNL     1      25.938  44.732  49.243  1.00  0.00    -0.273 OA
HETATM    4  H   UNL     1      27.176  46.714  51.404  1.00  0.00     0.169 HD
ENDROOT
BRANCH   2   5
HETATM    5  C   UNL     1      26.248  47.634  49.806  1.00  0.00     0.035 A 
HETATM    6  C   UNL     1      24.917  47.988  49.553  1.00  0.00     0.042 A 
HETATM    7  C   UNL     1      24.591  49.134  48.805  1.00  0.00    -0.021 A 
HETATM    8  C   UNL     1      25.639  49.919  48.305  1.00  0.00     0.012 A 
HETATM    9  C   UNL     1      26.969  49.577  48.553  1.00  0.00     0.003 A 
HETATM   10  C   UNL     1      27.271  48.442  49.304  1.00  0.00     0.029 A 
BRANCH   7  11
HETATM   11  C   UNL     1      23.193  49.485  48.578  1.00  0.00     0.010 A 
HETATM   12  C   UNL     1      22.576  50.747  48.373  1.00  0.00     0.152 A 
HETATM   13  N   UNL     1      21.255  50.660  48.186  1.00  0.00    -0.187 NA
HETATM   14  N   UNL     1      21.015  49.345  48.271  1.00  0.00    -0.289 N 
HETATM   15  H   UNL     1      20.060  49.024  48.159  1.00  0.00     0.188 HD
HETATM   16  C   UNL     1      22.136  48.600  48.502  1.00  0.00     0.123 A 
ENDBRANCH   7  11
ENDBRANCH   2   5
BRANCH   1  17
HETATM   17  C   UNL     1      26.776  44.255  51.432  1.00  0.00     0.116 C 
BRANCH  17  18
HETATM   18  C   UNL     1      27.250  45.037  52.673  1.00  0.00     0.049 C 
BRANCH  18  19
HETATM   19  C   UNL     1      26.201  45.375  53.720  1.00  0.00    -0.027 C 
HETATM   20  C   UNL     1      25.835  46.585  54.163  1.00  0.00     0.007 C 
ENDBRANCH  18  19
BRANCH  18  21
HETATM   21  C   UNL     1      28.422  44.303  53.317  1.00  0.00    -0.050 A 
HETATM   22  C   UNL     1      29.124  43.304  52.622  1.00  0.00     0.008 A 
HETATM   23  C   UNL     1      30.196  42.640  53.220  1.00  0.00     0.001 A 
HETATM   24  C   UNL     1      30.583  42.969  54.517  1.00  0.00     0.000 A 
HETATM   25  C   UNL     1      29.900  43.959  55.218  1.00  0.00     0.001 A 
HETATM   26  C   UNL     1      28.824  44.623  54.623  1.00  0.00     0.008 A 
ENDBRANCH  18  21
ENDBRANCH  17  18
ENDBRANCH   1  17
TORSDOF 6
ENDMDL
MODEL 6
REMARK VINA RESULT:      -8.2      5.344      6.485
REMARK  6 active torsions:
REMARK  status: ('A' for Active; 'I' for Inactive)
REMARK    1  A    between atoms: C_2  and  C_3 
REMARK    2  A    between atoms: C_3  and  C_4 
REMARK    3  A    between atoms: C_3  and  C_10 
REMARK    4  A    between atoms: C_10  and  C_11 
REMARK       I    between atoms: C_11  and  N_12 
REMARK    5  A    between atoms: N_12  and  C_13 
REMARK    6  A    between atoms: C_15  and  C_16 
ROOT
HETATM    1  C   UNL     1      28.999  41.829  52.677  1.00  0.00     0.223 C 
HETATM    2  N   UNL     1      28.803  40.469  52.511  1.00  0.00    -0.327 N 
HETATM    3  O   UNL     1      29.187  42.651  51.784  1.00  0.00    -0.273 OA
HETATM    4  H   UNL     1      28.474  39.953  53.316  1.00  0.00     0.169 HD
ENDROOT
BRANCH   2   5
HETATM    5  C   UNL     1      28.947  39.725  51.320  1.00  0.00     0.035 A 
HETATM    6  C   UNL     1      28.403  40.113  50.090  1.00  0.00     0.042 A 
HETATM    7  C   UNL     1      28.605  39.352  48.924  1.00  0.00    -0.021 A 
HETATM    8  C   UNL     1      29.364  38.178  49.022  1.00  0.00     0.012 A 
HETATM    9  C   UNL     1      29.914  37.782  50.242  1.00  0.00     0.003 A 
HETATM   10  C   UNL     1      29.710  38.555  51.385  1.00  0.00     0.029 A 
BRANCH   7  11
HETATM   11  C   UNL     1      28.040  39.797  47.654  1.00  0.00     0.010 A 
HETATM   12  C   UNL     1      27.668  39.064  46.497  1.00  0.00     0.152 A 
HETATM   13  N   UNL     1      27.169  39.835  45.526  1.00  0.00    -0.187 NA
HETATM   14  N   UNL     1      27.220  41.067  46.049  1.00  0.00    -0.289 N 
HETATM   15  H   UNL     1      26.887  41.841  45.487  1.00  0.00     0.188 HD
HETATM   16  C   UNL     1      27.729  41.100  47.316  1.00  0.00     0.123 A 
ENDBRANCH   7  11
ENDBRANCH   2   5
BRANCH   1  17
HETATM   17  C   UNL     1      28.937  42.263  54.130  1.00  0.00     0.116 C 
BRANCH  17  18
HETATM   18  C   UNL     1      29.157  43.780  54.287  1.00  0.00     0.049 C 
BRANCH  18  19
HETATM   19  C   UNL     1      27.922  44.666  54.252  1.00  0.00    -0.027 C 
HETATM   20  C   UNL     1      26.654  44.328  54.518  1.00  0.00     0.007 C 
ENDBRANCH  18  19
BRANCH  18  21
HETATM   21  C   UNL     1      29.963  44.047  55.556  1.00  0.00    -0.050 A 
HETATM   22  C   UNL     1      29.768  45.219  56.307  1.00  0.00     0.008 A 
HETATM   23  C   UNL     1      30.510  45.451  57.466  1.00  0.00     0.001 A 
HETATM   24  C   UNL     1      31.451  44.516  57.891  1.00  0.00     0.000 A 
HETATM   25  C   UNL     1      31.653  43.349  57.159  1.00  0.00     0.001 A 
HETATM   26  C   UNL     1      30.915  43.115  55.997  1.00  0.00     0.008 A 
ENDBRANCH  18  21
ENDBRANCH  17  18
ENDBRANCH   1  17
TORSDOF 6
ENDMDL
MODEL 7
REMARK VINA RESULT:      -8.0      1.979      2.668
REMARK  6 active torsions:
REMARK  status: ('A' for Active; 'I' for Inactive)
REMARK    1  A    between atoms: C_2  and  C_3 
REMARK    2  A    between atoms: C_3  and  C_4 
REMARK    3  A    between atoms: C_3  and  C_10 
REMARK    4  A    between atoms: C_10  and  C_11 
REMARK       I    between atoms: C_11  and  N_12 
REMARK    5  A    between atoms: N_12  and  C_13 
REMARK    6  A    between atoms: C_15  and  C_16 
ROOT
HETATM    1  C   UNL     1      26.891  44.637  51.139  1.00  0.00     0.223 C 
HETATM    2  N   UNL     1      25.589  45.031  51.399  1.00  0.00    -0.327 N 
HETATM    3  O   UNL     1      27.495  44.777  50.080  1.00  0.00    -0.273 OA
HETATM    4  H   UNL     1      25.294  45.023  52.367  1.00  0.00     0.169 HD
ENDROOT
BRANCH   2   5
HETATM    5  C   UNL     1      24.641  45.511  50.470  1.00  0.00     0.035 A 
HETATM    6  C   UNL     1      24.446  46.868  50.188  1.00  0.00     0.042 A 
HETATM    7  C   UNL     1      23.510  47.292  49.226  1.00  0.00    -0.021 A 
HETATM    8  C   UNL     1      22.762  46.315  48.555  1.00  0.00     0.012 A 
HETATM    9  C   UNL     1      22.949  44.959  48.826  1.00  0.00     0.003 A 
HETATM   10  C   UNL     1      23.888  44.559  49.777  1.00  0.00     0.029 A 
BRANCH   7  11
HETATM   11  C   UNL     1      23.348  48.714  48.942  1.00  0.00     0.010 A 
HETATM   12  C   UNL     1      22.251  49.586  49.169  1.00  0.00     0.152 A 
HETATM   13  N   UNL     1      22.490  50.841  48.778  1.00  0.00    -0.187 NA
HETATM   14  N   UNL     1      23.738  50.785  48.295  1.00  0.00    -0.289 N 
HETATM   15  H   UNL     1      24.150  51.636  47.931  1.00  0.00     0.188 HD
HETATM   16  C   UNL     1      24.296  49.541  48.371  1.00  0.00     0.123 A 
ENDBRANCH   7  11
ENDBRANCH   2   5
BRANCH   1  17
HETATM   17  C   UNL     1      27.567  44.002  52.341  1.00  0.00     0.116 C 
BRANCH  17  18
HETATM   18  C   UNL     1      27.521  44.921  53.578  1.00  0.00     0.049 C 
BRANCH  18  19
HETATM   19  C   UNL     1      26.257  44.885  54.421  1.00  0.00    -0.027 C 
HETATM   20  C   UNL     1      25.604  43.812  54.887  1.00  0.00     0.007 C 
ENDBRANCH  18  19
BRANCH  18  21
HETATM   21  C   UNL     1      28.746  44.659  54.451  1.00  0.00    -0.050 A 
HETATM   22  C   UNL     1      29.129  45.565  55.455  1.00  0.00     0.008 A 
HETATM   23  C   UNL     1      30.250  45.314  56.248  1.00  0.00     0.001 A 
HETATM   24  C   UNL     1      30.998  44.156  56.051  1.00  0.00     0.000 A 
HETATM   25  C   UNL     1      30.629  43.247  55.062  1.00  0.00     0.001 A 
HETATM   26  C   UNL     1      29.509  43.497  54.264  1.00  0.00     0.008 A 
ENDBRANCH  18  21
ENDBRANCH  17  18
ENDBRANCH   1  17
TORSDOF 6
ENDMDL
MODEL 8
REMARK VINA RESULT:      -7.9      2.540      8.475
REMARK  6 active torsions:
REMARK  status: ('A' for Active; 'I' for Inactive)
REMARK    1  A    between atoms: C_2  and  C_3 
REMARK    2  A    between atoms: C_3  and  C_4 
REMARK    3  A    between atoms: C_3  and  C_10 
REMARK    4  A    between atoms: C_10  and  C_11 
REMARK       I    between atoms: C_11  and  N_12 
REMARK    5  A    between atoms: N_12  and  C_13 
REMARK    6  A    between atoms: C_15  and  C_16 
ROOT
HETATM    1  C   UNL     1      26.134  45.979  51.186  1.00  0.00     0.223 C 
HETATM    2  N   UNL     1      26.684  44.734  50.928  1.00  0.00    -0.327 N 
HETATM    3  O   UNL     1      26.242  46.618  52.228  1.00  0.00    -0.273 OA
HETATM    4  H   UNL     1      26.671  44.420  49.967  1.00  0.00     0.169 HD
ENDROOT
BRANCH   2   5
HETATM    5  C   UNL     1      27.327  43.877  51.848  1.00  0.00     0.035 A 
HETATM    6  C   UNL     1      28.141  44.329  52.893  1.00  0.00     0.042 A 
HETATM    7  C   UNL     1      28.731  43.434  53.804  1.00  0.00    -0.021 A 
HETATM    8  C   UNL     1      28.491  42.063  53.636  1.00  0.00     0.012 A 
HETATM    9  C   UNL     1      27.678  41.602  52.600  1.00  0.00     0.003 A 
HETATM   10  C   UNL     1      27.095  42.506  51.713  1.00  0.00     0.029 A 
BRANCH   7  11
HETATM   11  C   UNL     1      29.558  43.941  54.895  1.00  0.00     0.010 A 
HETATM   12  C   UNL     1      30.676  43.366  55.555  1.00  0.00     0.152 A 
HETATM   13  N   UNL     1      31.181  44.152  56.510  1.00  0.00    -0.187 NA
HETATM   14  N   UNL     1      30.392  45.234  56.472  1.00  0.00    -0.289 N 
HETATM   15  H   UNL     1      30.583  45.990  57.121  1.00  0.00     0.188 HD
HETATM   16  C   UNL     1      29.411  45.160  55.526  1.00  0.00     0.123 A 
ENDBRANCH   7  11
ENDBRANCH   2   5
BRANCH   1  17
HETATM   17  C   UNL     1      25.362  46.540  50.006  1.00  0.00     0.116 C 
BRANCH  17  18
HETATM   18  C   UNL     1      25.701  48.022  49.750  1.00  0.00     0.049 C 
BRANCH  18  19
HETATM   19  C   UNL     1      26.966  48.316  48.961  1.00  0.00    -0.027 C 
HETATM   20  C   UNL     1      27.999  49.092  49.313  1.00  0.00     0.007 C 
ENDBRANCH  18  19
BRANCH  18  21
HETATM   21  C   UNL     1      24.502  48.712  49.104  1.00  0.00    -0.050 A 
HETATM   22  C   UNL     1      24.619  49.993  48.539  1.00  0.00     0.008 A 
HETATM   23  C   UNL     1      23.517  50.613  47.949  1.00  0.00     0.001 A 
HETATM   24  C   UNL     1      22.287  49.961  47.913  1.00  0.00     0.000 A 
HETATM   25  C   UNL     1      22.155  48.690  48.466  1.00  0.00     0.001 A 
HETATM   26  C   UNL     1      23.256  48.067  49.060  1.00  0.00     0.008 A 
ENDBRANCH  18  21
ENDBRANCH  17  18
ENDBRANCH   1  17
TORSDOF 6
ENDMDL
MODEL 9
REMARK VINA RESULT:      -7.8      3.134      4.309
REMARK  6 active torsions:
REMARK  status: ('A' for Active; 'I' for Inactive)
REMARK    1  A    between atoms: C_2  and  C_3 
REMARK    2  A    between atoms: C_3  and  C_4 
REMARK    3  A    between atoms: C_3  and  C_10 
REMARK    4  A    between atoms: C_10  and  C_11 
REMARK       I    between atoms: C_11  and  N_12 
REMARK    5  A    between atoms: N_12  and  C_13 
REMARK    6  A    between atoms: C_15  and  C_16 
ROOT
HETATM    1  C   UNL     1      26.819  44.023  51.587  1.00  0.00     0.223 C 
HETATM    2  N   UNL     1      26.784  45.115  50.736  1.00  0.00    -0.327 N 
HETATM    3  O   UNL     1      25.869  43.305  51.886  1.00  0.00    -0.273 OA
HETATM    4  H   UNL     1      27.676  45.490  50.438  1.00  0.00     0.169 HD
ENDROOT
BRANCH   2   5
HETATM    5  C   UNL     1      25.641  45.728  50.179  1.00  0.00     0.035 A 
HETATM    6  C   UNL     1      24.662  45.035  49.457  1.00  0.00     0.042 A 
HETATM    7  C   UNL     1      23.522  45.687  48.952  1.00  0.00    -0.021 A 
HETATM    8  C   UNL     1      23.391  47.064  49.181  1.00  0.00     0.012 A 
HETATM    9  C   UNL     1      24.359  47.764  49.902  1.00  0.00     0.003 A 
HETATM   10  C   UNL     1      25.477  47.097  50.402  1.00  0.00     0.029 A 
BRANCH   7  11
HETATM   11  C   UNL     1      22.510  44.931  48.222  1.00  0.00     0.010 A 
HETATM   12  C   UNL     1      21.094  44.960  48.301  1.00  0.00     0.152 A 
HETATM   13  N   UNL     1      20.503  44.116  47.450  1.00  0.00    -0.187 NA
HETATM   14  N   UNL     1      21.534  43.538  46.820  1.00  0.00    -0.289 N 
HETATM   15  H   UNL     1      21.333  42.843  46.110  1.00  0.00     0.188 HD
HETATM   16  C   UNL     1      22.752  43.989  47.241  1.00  0.00     0.123 A 
ENDBRANCH   7  11
ENDBRANCH   2   5
BRANCH   1  17
HETATM   17  C   UNL     1      28.206  43.747  52.137  1.00  0.00     0.116 C 
BRANCH  17  18
HETATM   18  C   UNL     1      28.151  43.040  53.507  1.00  0.00     0.049 C 
BRANCH  18  19
HETATM   19  C   UNL     1      28.506  41.562  53.538  1.00  0.00    -0.027 C 
HETATM   20  C   UNL     1      28.913  40.788  52.523  1.00  0.00     0.007 C 
ENDBRANCH  18  19
BRANCH  18  21
HETATM   21  C   UNL     1      29.004  43.811  54.510  1.00  0.00    -0.050 A 
HETATM   22  C   UNL     1      28.627  45.090  54.952  1.00  0.00     0.008 A 
HETATM   23  C   UNL     1      29.414  45.785  55.872  1.00  0.00     0.001 A 
HETATM   24  C   UNL     1      30.584  45.210  56.363  1.00  0.00     0.000 A 
HETATM   25  C   UNL     1      30.969  43.941  55.937  1.00  0.00     0.001 A 
HETATM   26  C   UNL     1      30.185  43.244  55.014  1.00  0.00     0.008 A 
ENDBRANCH  18  21
ENDBRANCH  17  18
ENDBRANCH   1  17
TORSDOF 6
ENDMDL
MODEL 10
REMARK VINA RESULT:      -7.8      2.457      3.587
REMARK  6 active torsions:
REMARK  status: ('A' for Active; 'I' for Inactive)
REMARK    1  A    between atoms: C_2  and  C_3 
REMARK    2  A    between atoms: C_3  and  C_4 
REMARK    3  A    between atoms: C_3  and  C_10 
REMARK    4  A    between atoms: C_10  and  C_11 
REMARK       I    between atoms: C_11  and  N_12 
REMARK    5  A    between atoms: N_12  and  C_13 
REMARK    6  A    between atoms: C_15  and  C_16 
ROOT
HETATM    1  C   UNL     1      25.677  45.618  52.331  1.00  0.00     0.223 C 
HETATM    2  N   UNL     1      26.258  46.757  51.798  1.00  0.00    -0.327 N 
HETATM    3  O   UNL     1      24.739  44.989  51.852  1.00  0.00    -0.273 OA
HETATM    4  H   UNL     1      27.137  47.052  52.201  1.00  0.00     0.169 HD
ENDROOT
BRANCH   2   5
HETATM    5  C   UNL     1      25.793  47.521  50.706  1.00  0.00     0.035 A 
HETATM    6  C   UNL     1      24.444  47.619  50.344  1.00  0.00     0.042 A 
HETATM    7  C   UNL     1      24.030  48.422  49.266  1.00  0.00    -0.021 A 
HETATM    8  C   UNL     1      25.008  49.123  48.547  1.00  0.00     0.012 A 
HETATM    9  C   UNL     1      26.355  49.035  48.901  1.00  0.00     0.003 A 
HETATM   10  C   UNL     1      26.745  48.240  49.979  1.00  0.00     0.029 A 
BRANCH   7  11
HETATM   11  C   UNL     1      22.613  48.519  48.929  1.00  0.00     0.010 A 
HETATM   12  C   UNL     1      21.760  47.616  48.241  1.00  0.00     0.152 A 
HETATM   13  N   UNL     1      20.503  48.059  48.137  1.00  0.00    -0.187 NA
HETATM   14  N   UNL     1      20.540  49.248  48.753  1.00  0.00    -0.289 N 
HETATM   15  H   UNL     1      19.684  49.788  48.805  1.00  0.00     0.188 HD
HETATM   16  C   UNL     1      21.773  49.568  49.245  1.00  0.00     0.123 A 
ENDBRANCH   7  11
ENDBRANCH   2   5
BRANCH   1  17
HETATM   17  C   UNL     1      26.342  45.162  53.617  1.00  0.00     0.116 C 
BRANCH  17  18
HETATM   18  C   UNL     1      27.323  43.997  53.376  1.00  0.00     0.049 C 
BRANCH  18  19
HETATM   19  C   UNL     1      27.786  43.768  51.946  1.00  0.00    -0.027 C 
HETATM   20  C   UNL     1      27.610  42.680  51.184  1.00  0.00     0.007 C 
ENDBRANCH  18  19
BRANCH  18  21
HETATM   21  C   UNL     1      28.526  44.147  54.303  1.00  0.00    -0.050 A 
HETATM   22  C   UNL     1      28.678  45.282  55.118  1.00  0.00     0.008 A 
HETATM   23  C   UNL     1      29.781  45.407  55.963  1.00  0.00     0.001 A 
HETATM   24  C   UNL     1      30.742  44.400  56.010  1.00  0.00     0.000 A 
HETATM   25  C   UNL     1      30.603  43.267  55.212  1.00  0.00     0.001 A 
HETATM   26  C   UNL     1      29.502  43.140  54.361  1.00  0.00     0.008 A 
ENDBRANCH  18  21
ENDBRANCH  17  18
ENDBRANCH   1  17
TORSDOF 6
ENDMDL
