MODEL 1
REMARK VINA RESULT:      -9.1      0.000      0.000
REMARK  2 active torsions:
REMARK  status: ('A' for Active; 'I' for Inactive)
REMARK    1  A    between atoms: C_2  and  N_3 
REMARK    2  A    between atoms: N_3  and  C_4 
ROOT
HETATM    1  C   UNL     1      19.715  47.943  49.020  1.00  0.00     0.143 A 
HETATM    2  N   UNL     1      19.781  46.654  48.607  1.00  0.00    -0.223 NA
HETATM    3  C   UNL     1      18.724  46.088  48.014  1.00  0.00     0.236 A 
HETATM    4  N   UNL     1      17.545  46.649  47.767  1.00  0.00    -0.234 NA
HETATM    5  C   UNL     1      17.492  47.928  48.170  1.00  0.00     0.114 A 
HETATM    6  C   UNL     1      18.511  48.659  48.773  1.00  0.00     0.053 A 
HETATM    7  S   UNL     1      16.053  48.813  47.968  1.00  0.00    -0.073 SA
HETATM    8  C   UNL     1      16.735  50.195  48.675  1.00  0.00    -0.008 A 
HETATM    9  C   UNL     1      18.063  50.021  49.028  1.00  0.00    -0.028 A 
HETATM   10  C   UNL     1      18.849  51.148  49.641  1.00  0.00     0.041 C 
HETATM   11  C   UNL     1      18.140  52.506  49.515  1.00  0.00     0.005 C 
HETATM   12  C   UNL     1      16.643  52.401  49.826  1.00  0.00     0.005 C 
HETATM   13  C   UNL     1      15.942  51.454  48.844  1.00  0.00     0.047 C 
ENDROOT
BRANCH   1  14
HETATM   14  N   UNL     1      20.823  48.531  49.653  1.00  0.00    -0.340 N 
HETATM   15  H   UNL     1      20.791  48.478  50.657  1.00  0.00     0.167 HD
BRANCH  14  16
HETATM   16  C   UNL     1      22.078  48.945  49.166  1.00  0.00     0.036 A 
HETATM   17  C   UNL     1      22.106  49.826  48.071  1.00  0.00     0.032 A 
HETATM   18  C   UNL     1      23.313  50.279  47.530  1.00  0.00     0.042 A 
HETATM   19  C   UNL     1      24.517  49.851  48.076  1.00  0.00     0.102 A 
HETATM   20  C   UNL     1      24.511  48.935  49.130  1.00  0.00     0.104 A 
HETATM   21  O   UNL     1      25.664  50.362  47.527  1.00  0.00    -0.346 OA
HETATM   22  C   UNL     1      23.302  48.490  49.670  1.00  0.00     0.069 A 
HETATM   23  O   UNL     1      25.659  48.440  49.698  1.00  0.00    -0.346 OA
HETATM   24  C   UNL     1      26.803  48.699  48.878  1.00  0.00     0.202 C 
HETATM   25  C   UNL     1      26.792  50.134  48.379  1.00  0.00     0.202 C 
ENDBRANCH  14  16
ENDBRANCH   1  14
TORSDOF 2
ENDMDL
MODEL 2
REMARK VINA RESULT:      -9.1      8.466     11.710
REMARK  2 active torsions:
REMARK  status: ('A' for Active; 'I' for Inactive)
REMARK    1  A    between atoms: C_2  and  N_3 
REMARK    2  A    between atoms: N_3  and  C_4 
ROOT
HETATM    1  C   UNL     1      26.634  43.914  53.135  1.00  0.00     0.143 A 
HETATM    2  N   UNL     1      25.566  44.517  52.557  1.00  0.00    -0.223 NA
HETATM    3  C   UNL     1      25.348  45.821  52.754  1.00  0.00     0.236 A 
HETATM    4  N   UNL     1      26.073  46.656  53.490  1.00  0.00    -0.234 NA
HETATM    5  C   UNL     1      27.133  46.053  54.051  1.00  0.00     0.114 A 
HETATM    6  C   UNL     1      27.506  44.719  53.918  1.00  0.00     0.053 A 
HETATM    7  S   UNL     1      28.172  46.949  55.058  1.00  0.00    -0.073 SA
HETATM    8  C   UNL     1      29.151  45.595  55.351  1.00  0.00    -0.008 A 
HETATM    9  C   UNL     1      28.734  44.469  54.660  1.00  0.00    -0.028 A 
HETATM   10  C   UNL     1      29.496  43.177  54.768  1.00  0.00     0.041 C 
HETATM   11  C   UNL     1      30.878  43.352  55.419  1.00  0.00     0.005 C 
HETATM   12  C   UNL     1      30.821  44.275  56.641  1.00  0.00     0.005 C 
HETATM   13  C   UNL     1      30.346  45.680  56.249  1.00  0.00     0.047 C 
ENDROOT
BRANCH   1  14
HETATM   14  N   UNL     1      26.853  42.542  52.935  1.00  0.00    -0.340 N 
HETATM   15  H   UNL     1      26.415  41.956  53.627  1.00  0.00     0.167 HD
BRANCH  14  16
HETATM   16  C   UNL     1      27.341  41.814  51.832  1.00  0.00     0.036 A 
HETATM   17  C   UNL     1      28.238  40.759  52.078  1.00  0.00     0.032 A 
HETATM   18  C   UNL     1      28.767  39.993  51.035  1.00  0.00     0.042 A 
HETATM   19  C   UNL     1      28.410  40.276  49.723  1.00  0.00     0.102 A 
HETATM   20  C   UNL     1      27.563  41.353  49.453  1.00  0.00     0.104 A 
HETATM   21  O   UNL     1      28.932  39.464  48.750  1.00  0.00    -0.346 OA
HETATM   22  C   UNL     1      27.032  42.111  50.500  1.00  0.00     0.069 A 
HETATM   23  O   UNL     1      27.193  41.715  48.182  1.00  0.00    -0.346 OA
HETATM   24  C   UNL     1      28.029  41.098  47.197  1.00  0.00     0.202 C 
HETATM   25  C   UNL     1      28.229  39.624  47.512  1.00  0.00     0.202 C 
ENDBRANCH  14  16
ENDBRANCH   1  14
TORSDOF 2
ENDMDL
MODEL 3
REMARK VINA RESULT:      -9.0      6.534     10.358
REMARK  2 active torsions:
REMARK  status: ('A' for Active; 'I' for Inactive)
REMARK    1  A    between atoms: C_2  and  N_3 
REMARK    2  A    between atoms: N_3  and  C_4 
ROOT
HETATM    1  C   UNL     1      26.385  46.278  53.698  1.00  0.00     0.143 A 
HETATM    2  N   UNL     1      25.734  47.377  54.151  1.00  0.00    -0.223 NA
HETATM    3  C   UNL     1      26.182  48.018  55.236  1.00  0.00     0.236 A 
HETATM    4  N   UNL     1      27.236  47.702  55.979  1.00  0.00    -0.234 NA
HETATM    5  C   UNL     1      27.880  46.619  55.518  1.00  0.00     0.114 A 
HETATM    6  C   UNL     1      27.555  45.866  54.394  1.00  0.00     0.053 A 
HETATM    7  S   UNL     1      29.244  46.035  56.351  1.00  0.00    -0.073 SA
HETATM    8  C   UNL     1      29.446  44.763  55.249  1.00  0.00    -0.008 A 
HETATM    9  C   UNL     1      28.521  44.790  54.218  1.00  0.00    -0.028 A 
HETATM   10  C   UNL     1      28.560  43.759  53.123  1.00  0.00     0.041 C 
HETATM   11  C   UNL     1      29.865  42.948  53.116  1.00  0.00     0.005 C 
HETATM   12  C   UNL     1      30.289  42.534  54.529  1.00  0.00     0.005 C 
HETATM   13  C   UNL     1      30.550  43.763  55.408  1.00  0.00     0.047 C 
ENDROOT
BRANCH   1  14
HETATM   14  N   UNL     1      25.906  45.600  52.565  1.00  0.00    -0.340 N 
HETATM   15  H   UNL     1      25.970  44.598  52.636  1.00  0.00     0.167 HD
BRANCH  14  16
HETATM   16  C   UNL     1      25.125  46.023  51.472  1.00  0.00     0.036 A 
HETATM   17  C   UNL     1      24.428  45.046  50.738  1.00  0.00     0.032 A 
HETATM   18  C   UNL     1      23.635  45.387  49.639  1.00  0.00     0.042 A 
HETATM   19  C   UNL     1      23.532  46.717  49.250  1.00  0.00     0.102 A 
HETATM   20  C   UNL     1      24.258  47.695  49.932  1.00  0.00     0.104 A 
HETATM   21  O   UNL     1      22.708  46.991  48.189  1.00  0.00    -0.346 OA
HETATM   22  C   UNL     1      25.044  47.349  51.034  1.00  0.00     0.069 A 
HETATM   23  O   UNL     1      24.234  49.024  49.585  1.00  0.00    -0.346 OA
HETATM   24  C   UNL     1      23.677  49.215  48.281  1.00  0.00     0.202 C 
HETATM   25  C   UNL     1      22.411  48.390  48.113  1.00  0.00     0.202 C 
ENDBRANCH  14  16
ENDBRANCH   1  14
TORSDOF 2
ENDMDL
MODEL 4
REMARK VINA RESULT:      -8.7      6.018      9.514
REMARK  2 active torsions:
REMARK  status: ('A' for Active; 'I' for Inactive)
REMARK    1  A    between atoms: C_2  and  N_3 
REMARK    2  A    between atoms: N_3  and  C_4 
ROOT
HETATM    1  C   UNL     1      26.599  44.748  50.788  1.00  0.00     0.143 A 
HETATM    2  N   UNL     1      26.174  44.204  49.621  1.00  0.00    -0.223 NA
HETATM    3  C   UNL     1      26.509  42.948  49.310  1.00  0.00     0.236 A 
HETATM    4  N   UNL     1      27.251  42.112  50.028  1.00  0.00    -0.234 NA
HETATM    5  C   UNL     1      27.659  42.655  51.185  1.00  0.00     0.114 A 
HETATM    6  C   UNL     1      27.372  43.932  51.658  1.00  0.00     0.053 A 
HETATM    7  S   UNL     1      28.648  41.751  52.234  1.00  0.00    -0.073 SA
HETATM    8  C   UNL     1      28.729  43.025  53.351  1.00  0.00    -0.008 A 
HETATM    9  C   UNL     1      27.977  44.124  52.969  1.00  0.00    -0.028 A 
HETATM   10  C   UNL     1      27.898  45.343  53.848  1.00  0.00     0.041 C 
HETATM   11  C   UNL     1      28.438  45.091  55.265  1.00  0.00     0.005 C 
HETATM   12  C   UNL     1      29.739  44.283  55.246  1.00  0.00     0.005 C 
HETATM   13  C   UNL     1      29.522  42.902  54.615  1.00  0.00     0.047 C 
ENDROOT
BRANCH   1  14
HETATM   14  N   UNL     1      26.256  46.072  51.106  1.00  0.00    -0.340 N 
HETATM   15  H   UNL     1      26.591  46.373  52.006  1.00  0.00     0.167 HD
BRANCH  14  16
HETATM   16  C   UNL     1      25.766  47.135  50.323  1.00  0.00     0.036 A 
HETATM   17  C   UNL     1      26.698  47.953  49.658  1.00  0.00     0.032 A 
HETATM   18  C   UNL     1      26.289  49.029  48.865  1.00  0.00     0.042 A 
HETATM   19  C   UNL     1      24.935  49.309  48.728  1.00  0.00     0.102 A 
HETATM   20  C   UNL     1      23.997  48.542  49.422  1.00  0.00     0.104 A 
HETATM   21  O   UNL     1      24.598  50.352  47.905  1.00  0.00    -0.346 OA
HETATM   22  C   UNL     1      24.411  47.465  50.209  1.00  0.00     0.069 A 
HETATM   23  O   UNL     1      22.646  48.780  49.364  1.00  0.00    -0.346 OA
HETATM   24  C   UNL     1      22.364  50.070  48.812  1.00  0.00     0.202 C 
HETATM   25  C   UNL     1      23.206  50.317  47.570  1.00  0.00     0.202 C 
ENDBRANCH  14  16
ENDBRANCH   1  14
TORSDOF 2
ENDMDL
MODEL 5
REMARK VINA RESULT:      -8.2      1.802      3.431
REMARK  2 active torsions:
REMARK  status: ('A' for Active; 'I' for Inactive)
REMARK    1  A    between atoms: C_2  and  N_3 
REMARK    2  A    between atoms: N_3  and  C_4 
ROOT
HETATM    1  C   UNL     1      20.072  49.196  49.328  1.00  0.00     0.143 A 
HETATM    2  N   UNL     1      19.637  50.089  50.250  1.00  0.00    -0.223 NA
HETATM    3  C   UNL     1      18.465  50.709  50.079  1.00  0.00     0.236 A 
HETATM    4  N   UNL     1      17.621  50.567  49.064  1.00  0.00    -0.234 NA
HETATM    5  C   UNL     1      18.053  49.674  48.160  1.00  0.00     0.114 A 
HETATM    6  C   UNL     1      19.230  48.933  48.212  1.00  0.00     0.053 A 
HETATM    7  S   UNL     1      17.125  49.371  46.767  1.00  0.00    -0.073 SA
HETATM    8  C   UNL     1      18.254  48.248  46.186  1.00  0.00    -0.008 A 
HETATM    9  C   UNL     1      19.316  48.054  47.053  1.00  0.00    -0.028 A 
HETATM   10  C   UNL     1      20.405  47.070  46.725  1.00  0.00     0.041 C 
HETATM   11  C   UNL     1      20.033  46.136  45.563  1.00  0.00     0.005 C 
HETATM   12  C   UNL     1      19.359  46.893  44.414  1.00  0.00     0.005 C 
HETATM   13  C   UNL     1      18.051  47.547  44.878  1.00  0.00     0.047 C 
ENDROOT
BRANCH   1  14
HETATM   14  N   UNL     1      21.309  48.555  49.504  1.00  0.00    -0.340 N 
HETATM   15  H   UNL     1      21.230  47.586  49.764  1.00  0.00     0.167 HD
BRANCH  14  16
HETATM   16  C   UNL     1      22.620  48.920  49.144  1.00  0.00     0.036 A 
HETATM   17  C   UNL     1      22.786  49.928  48.178  1.00  0.00     0.032 A 
HETATM   18  C   UNL     1      24.056  50.343  47.766  1.00  0.00     0.042 A 
HETATM   19  C   UNL     1      25.186  49.748  48.314  1.00  0.00     0.102 A 
HETATM   20  C   UNL     1      25.043  48.709  49.236  1.00  0.00     0.104 A 
HETATM   21  O   UNL     1      26.402  50.227  47.899  1.00  0.00    -0.346 OA
HETATM   22  C   UNL     1      23.771  48.303  49.647  1.00  0.00     0.069 A 
HETATM   23  O   UNL     1      26.111  48.051  49.794  1.00  0.00    -0.346 OA
HETATM   24  C   UNL     1      27.321  48.314  49.077  1.00  0.00     0.202 C 
HETATM   25  C   UNL     1      27.452  49.797  48.773  1.00  0.00     0.202 C 
ENDBRANCH  14  16
ENDBRANCH   1  14
TORSDOF 2
ENDMDL
MODEL 6
REMARK VINA RESULT:      -8.1      3.944      5.794
REMARK  2 active torsions:
REMARK  status: ('A' for Active; 'I' for Inactive)
REMARK    1  A    between atoms: C_2  and  N_3 
REMARK    2  A    between atoms: N_3  and  C_4 
ROOT
HETATM    1  C   UNL     1      23.757  45.776  49.284  1.00  0.00     0.143 A 
HETATM    2  N   UNL     1      23.230  44.528  49.339  1.00  0.00    -0.223 NA
HETATM    3  C   UNL     1      21.970  44.318  48.944  1.00  0.00     0.236 A 
HETATM    4  N   UNL     1      21.110  45.220  48.485  1.00  0.00    -0.234 NA
HETATM    5  C   UNL     1      21.642  46.450  48.425  1.00  0.00     0.114 A 
HETATM    6  C   UNL     1      22.938  46.820  48.772  1.00  0.00     0.053 A 
HETATM    7  S   UNL     1      20.688  47.754  47.891  1.00  0.00    -0.073 SA
HETATM    8  C   UNL     1      21.963  48.851  48.103  1.00  0.00    -0.008 A 
HETATM    9  C   UNL     1      23.131  48.243  48.533  1.00  0.00    -0.028 A 
HETATM   10  C   UNL     1      24.382  49.051  48.748  1.00  0.00     0.041 C 
HETATM   11  C   UNL     1      24.292  50.462  48.144  1.00  0.00     0.005 C 
HETATM   12  C   UNL     1      22.937  51.119  48.428  1.00  0.00     0.005 C 
HETATM   13  C   UNL     1      21.791  50.309  47.808  1.00  0.00     0.047 C 
ENDROOT
BRANCH   1  14
HETATM   14  N   UNL     1      25.077  45.995  49.711  1.00  0.00    -0.340 N 
HETATM   15  H   UNL     1      25.671  46.392  49.002  1.00  0.00     0.167 HD
BRANCH  14  16
HETATM   16  C   UNL     1      25.665  46.013  50.990  1.00  0.00     0.036 A 
HETATM   17  C   UNL     1      26.375  44.873  51.409  1.00  0.00     0.032 A 
HETATM   18  C   UNL     1      26.984  44.814  52.666  1.00  0.00     0.042 A 
HETATM   19  C   UNL     1      26.885  45.896  53.531  1.00  0.00     0.102 A 
HETATM   20  C   UNL     1      26.140  47.016  53.156  1.00  0.00     0.104 A 
HETATM   21  O   UNL     1      27.537  45.792  54.732  1.00  0.00    -0.346 OA
HETATM   22  C   UNL     1      25.539  47.072  51.895  1.00  0.00     0.069 A 
HETATM   23  O   UNL     1      25.969  48.109  53.969  1.00  0.00    -0.346 OA
HETATM   24  C   UNL     1      26.338  47.818  55.321  1.00  0.00     0.202 C 
HETATM   25  C   UNL     1      27.660  47.070  55.367  1.00  0.00     0.202 C 
ENDBRANCH  14  16
ENDBRANCH   1  14
TORSDOF 2
ENDMDL
MODEL 7
REMARK VINA RESULT:      -7.8      8.498     10.641
REMARK  2 active torsions:
REMARK  status: ('A' for Active; 'I' for Inactive)
REMARK    1  A    between atoms: C_2  and  N_3 
REMARK    2  A    between atoms: N_3  and  C_4 
ROOT
HETATM    1  C   UNL     1      27.429  40.762  51.097  1.00  0.00     0.143 A 
HETATM    2  N   UNL     1      28.507  39.975  50.860  1.00  0.00    -0.223 NA
HETATM    3  C   UNL     1      28.736  39.510  49.627  1.00  0.00     0.236 A 
HETATM    4  N   UNL     1      28.003  39.719  48.539  1.00  0.00    -0.234 NA
HETATM    5  C   UNL     1      26.944  40.507  48.781  1.00  0.00     0.114 A 
HETATM    6  C   UNL     1      26.590  41.086  49.996  1.00  0.00     0.053 A 
HETATM    7  S   UNL     1      25.863  40.871  47.518  1.00  0.00    -0.073 SA
HETATM    8  C   UNL     1      24.889  41.808  48.542  1.00  0.00    -0.008 A 
HETATM    9  C   UNL     1      25.390  41.895  49.831  1.00  0.00    -0.028 A 
HETATM   10  C   UNL     1      24.681  42.711  50.877  1.00  0.00     0.041 C 
HETATM   11  C   UNL     1      23.606  43.636  50.283  1.00  0.00     0.005 C 
HETATM   12  C   UNL     1      22.769  42.927  49.213  1.00  0.00     0.005 C 
HETATM   13  C   UNL     1      23.645  42.473  48.039  1.00  0.00     0.047 C 
ENDROOT
BRANCH   1  14
HETATM   14  N   UNL     1      27.185  41.239  52.395  1.00  0.00    -0.340 N 
HETATM   15  H   UNL     1      26.645  40.608  52.964  1.00  0.00     0.167 HD
BRANCH  14  16
HETATM   16  C   UNL     1      27.754  42.292  53.136  1.00  0.00     0.036 A 
HETATM   17  C   UNL     1      27.209  43.580  52.982  1.00  0.00     0.032 A 
HETATM   18  C   UNL     1      27.721  44.677  53.682  1.00  0.00     0.042 A 
HETATM   19  C   UNL     1      28.796  44.503  54.545  1.00  0.00     0.102 A 
HETATM   20  C   UNL     1      29.385  43.243  54.671  1.00  0.00     0.104 A 
HETATM   21  O   UNL     1      29.226  45.609  55.230  1.00  0.00    -0.346 OA
HETATM   22  C   UNL     1      28.864  42.150  53.974  1.00  0.00     0.069 A 
HETATM   23  O   UNL     1      30.469  43.001  55.478  1.00  0.00    -0.346 OA
HETATM   24  C   UNL     1      31.107  44.219  55.877  1.00  0.00     0.202 C 
HETATM   25  C   UNL     1      30.076  45.243  56.323  1.00  0.00     0.202 C 
ENDBRANCH  14  16
ENDBRANCH   1  14
TORSDOF 2
ENDMDL
MODEL 8
REMARK VINA RESULT:      -7.8     12.085     13.690
REMARK  2 active torsions:
REMARK  status: ('A' for Active; 'I' for Inactive)
REMARK    1  A    between atoms: C_2  and  N_3 
REMARK    2  A    between atoms: N_3  and  C_4 
ROOT
HETATM    1  C   UNL     1      29.978  50.832  41.676  1.00  0.00     0.143 A 
HETATM    2  N   UNL     1      29.634  52.098  42.017  1.00  0.00    -0.223 NA
HETATM    3  C   UNL     1      28.636  52.714  41.375  1.00  0.00     0.236 A 
HETATM    4  N   UNL     1      27.896  52.229  40.384  1.00  0.00    -0.234 NA
HETATM    5  C   UNL     1      28.236  50.972  40.060  1.00  0.00     0.114 A 
HETATM    6  C   UNL     1      29.227  50.194  40.650  1.00  0.00     0.053 A 
HETATM    7  S   UNL     1      27.423  50.183  38.791  1.00  0.00    -0.073 SA
HETATM    8  C   UNL     1      28.359  48.783  38.983  1.00  0.00    -0.008 A 
HETATM    9  C   UNL     1      29.261  48.876  40.030  1.00  0.00    -0.028 A 
HETATM   10  C   UNL     1      30.158  47.720  40.376  1.00  0.00     0.041 C 
HETATM   11  C   UNL     1      29.735  46.411  39.690  1.00  0.00     0.005 C 
HETATM   12  C   UNL     1      29.355  46.632  38.223  1.00  0.00     0.005 C 
HETATM   13  C   UNL     1      28.164  47.589  38.099  1.00  0.00     0.047 C 
ENDROOT
BRANCH   1  14
HETATM   14  N   UNL     1      31.034  50.191  42.344  1.00  0.00    -0.340 N 
HETATM   15  H   UNL     1      30.774  49.316  42.768  1.00  0.00     0.167 HD
BRANCH  14  16
HETATM   16  C   UNL     1      32.427  50.396  42.321  1.00  0.00     0.036 A 
HETATM   17  C   UNL     1      33.208  49.549  41.515  1.00  0.00     0.032 A 
HETATM   18  C   UNL     1      34.598  49.687  41.442  1.00  0.00     0.042 A 
HETATM   19  C   UNL     1      35.231  50.677  42.184  1.00  0.00     0.102 A 
HETATM   20  C   UNL     1      34.480  51.494  43.031  1.00  0.00     0.104 A 
HETATM   21  O   UNL     1      36.589  50.787  42.039  1.00  0.00    -0.346 OA
HETATM   22  C   UNL     1      33.091  51.354  43.095  1.00  0.00     0.069 A 
HETATM   23  O   UNL     1      35.038  52.469  43.820  1.00  0.00    -0.346 OA
HETATM   24  C   UNL     1      36.457  52.311  43.923  1.00  0.00     0.202 C 
HETATM   25  C   UNL     1      37.066  52.034  42.558  1.00  0.00     0.202 C 
ENDBRANCH  14  16
ENDBRANCH   1  14
TORSDOF 2
ENDMDL
MODEL 9
REMARK VINA RESULT:      -7.7     23.441     26.185
REMARK  2 active torsions:
REMARK  status: ('A' for Active; 'I' for Inactive)
REMARK    1  A    between atoms: C_2  and  N_3 
REMARK    2  A    between atoms: N_3  and  C_4 
ROOT
HETATM    1  C   UNL     1      38.533  43.983  63.500  1.00  0.00     0.143 A 
HETATM    2  N   UNL     1      37.180  43.962  63.563  1.00  0.00    -0.223 NA
HETATM    3  C   UNL     1      36.525  44.937  64.202  1.00  0.00     0.236 A 
HETATM    4  N   UNL     1      37.053  45.983  64.829  1.00  0.00    -0.234 NA
HETATM    5  C   UNL     1      38.392  46.002  64.754  1.00  0.00     0.114 A 
HETATM    6  C   UNL     1      39.208  45.080  64.106  1.00  0.00     0.053 A 
HETATM    7  S   UNL     1      39.259  47.249  65.521  1.00  0.00    -0.073 SA
HETATM    8  C   UNL     1      40.745  46.606  65.019  1.00  0.00    -0.008 A 
HETATM    9  C   UNL     1      40.604  45.475  64.232  1.00  0.00    -0.028 A 
HETATM   10  C   UNL     1      41.811  44.780  63.664  1.00  0.00     0.041 C 
HETATM   11  C   UNL     1      43.092  45.621  63.778  1.00  0.00     0.005 C 
HETATM   12  C   UNL     1      43.211  46.298  65.148  1.00  0.00     0.005 C 
HETATM   13  C   UNL     1      42.041  47.257  65.393  1.00  0.00     0.047 C 
ENDROOT
BRANCH   1  14
HETATM   14  N   UNL     1      39.219  42.952  62.838  1.00  0.00    -0.340 N 
HETATM   15  H   UNL     1      39.624  43.232  61.961  1.00  0.00     0.167 HD
BRANCH  14  16
HETATM   16  C   UNL     1      39.668  41.688  63.270  1.00  0.00     0.036 A 
HETATM   17  C   UNL     1      39.263  40.556  62.540  1.00  0.00     0.032 A 
HETATM   18  C   UNL     1      39.665  39.269  62.907  1.00  0.00     0.042 A 
HETATM   19  C   UNL     1      40.477  39.092  64.021  1.00  0.00     0.102 A 
HETATM   20  C   UNL     1      40.847  40.198  64.789  1.00  0.00     0.104 A 
HETATM   21  O   UNL     1      40.869  37.810  64.305  1.00  0.00    -0.346 OA
HETATM   22  C   UNL     1      40.447  41.483  64.413  1.00  0.00     0.069 A 
HETATM   23  O   UNL     1      41.618  40.099  65.921  1.00  0.00    -0.346 OA
HETATM   24  C   UNL     1      41.694  38.748  66.386  1.00  0.00     0.202 C 
HETATM   25  C   UNL     1      41.962  37.797  65.231  1.00  0.00     0.202 C 
ENDBRANCH  14  16
ENDBRANCH   1  14
TORSDOF 2
ENDMDL
MODEL 10
REMARK VINA RESULT:      -7.7      7.831     10.642
REMARK  2 active torsions:
REMARK  status: ('A' for Active; 'I' for Inactive)
REMARK    1  A    between atoms: C_2  and  N_3 
REMARK    2  A    between atoms: N_3  and  C_4 
ROOT
HETATM    1  C   UNL     1      25.376  43.402  51.351  1.00  0.00     0.143 A 
HETATM    2  N   UNL     1      24.466  43.626  50.371  1.00  0.00    -0.223 NA
HETATM    3  C   UNL     1      24.045  44.870  50.122  1.00  0.00     0.236 A 
HETATM    4  N   UNL     1      24.414  45.984  50.745  1.00  0.00    -0.234 NA
HETATM    5  C   UNL     1      25.322  45.755  51.706  1.00  0.00     0.114 A 
HETATM    6  C   UNL     1      25.873  44.529  52.063  1.00  0.00     0.053 A 
HETATM    7  S   UNL     1      25.900  47.054  52.641  1.00  0.00    -0.073 SA
HETATM    8  C   UNL     1      26.900  46.031  53.551  1.00  0.00    -0.008 A 
HETATM    9  C   UNL     1      26.845  44.712  53.132  1.00  0.00    -0.028 A 
HETATM   10  C   UNL     1      27.688  43.659  53.799  1.00  0.00     0.041 C 
HETATM   11  C   UNL     1      28.782  44.254  54.700  1.00  0.00     0.005 C 
HETATM   12  C   UNL     1      28.255  45.417  55.547  1.00  0.00     0.005 C 
HETATM   13  C   UNL     1      27.755  46.563  54.660  1.00  0.00     0.047 C 
ENDROOT
BRANCH   1  14
HETATM   14  N   UNL     1      25.807  42.093  51.619  1.00  0.00    -0.340 N 
HETATM   15  H   UNL     1      25.288  41.637  52.351  1.00  0.00     0.167 HD
BRANCH  14  16
HETATM   16  C   UNL     1      26.637  41.208  50.905  1.00  0.00     0.036 A 
HETATM   17  C   UNL     1      27.894  40.892  51.450  1.00  0.00     0.032 A 
HETATM   18  C   UNL     1      28.775  40.024  50.799  1.00  0.00     0.042 A 
HETATM   19  C   UNL     1      28.413  39.459  49.583  1.00  0.00     0.102 A 
HETATM   20  C   UNL     1      27.192  39.801  48.998  1.00  0.00     0.104 A 
HETATM   21  O   UNL     1      29.303  38.585  49.015  1.00  0.00    -0.346 OA
HETATM   22  C   UNL     1      26.313  40.665  49.657  1.00  0.00     0.069 A 
HETATM   23  O   UNL     1      26.780  39.311  47.783  1.00  0.00    -0.346 OA
HETATM   24  C   UNL     1      27.864  38.714  47.064  1.00  0.00     0.202 C 
HETATM   25  C   UNL     1      28.683  37.817  47.977  1.00  0.00     0.202 C 
ENDBRANCH  14  16
ENDBRANCH   1  14
TORSDOF 2
ENDMDL
