MODEL 1
REMARK VINA RESULT:      -9.7      0.000      0.000
REMARK  8 active torsions:
REMARK  status: ('A' for Active; 'I' for Inactive)
REMARK    1  A    between atoms: O_2  and  C_3 
REMARK    2  A    between atoms: C_5  and  O_6 
REMARK    3  A    between atoms: C_8  and  C_9 
REMARK    4  A    between atoms: N_10  and  C_12 
REMARK    5  A    between atoms: C_12  and  C_13 
REMARK       I    between atoms: C_13  and  N_14 
REMARK    6  A    between atoms: N_14  and  C_15 
REMARK    7  A    between atoms: C_16  and  C_17 
REMARK    8  A    between atoms: C_17  and  C_18 
ROOT
HETATM    1  C   UNL     1      24.704  45.045  52.346  1.00  0.00     0.338 C 
ENDROOT
BRANCH   1   2
HETATM    2  N   UNL     1      25.843  44.035  52.251  1.00  0.00    -0.054 N 
HETATM    3  C   UNL     1      27.231  44.678  52.025  1.00  0.00     0.224 C 
HETATM    4  C   UNL     1      27.534  44.316  50.569  1.00  0.00     0.040 C 
HETATM    5  C   UNL     1      26.947  42.929  50.413  1.00  0.00     0.030 C 
HETATM    6  C   UNL     1      25.623  43.027  51.141  1.00  0.00     0.236 C 
HETATM    7  H   UNL     1      25.880  43.558  53.154  1.00  0.00     0.281 HD
BRANCH   3   8
HETATM    8  C   UNL     1      28.322  44.196  52.975  1.00  0.00     0.006 A 
HETATM    9  C   UNL     1      28.365  44.743  54.276  1.00  0.00     0.079 A 
HETATM   10  C   UNL     1      29.335  44.319  55.190  1.00  0.00     0.074 A 
HETATM   11  C   UNL     1      30.295  43.372  54.831  1.00  0.00     0.070 A 
HETATM   12  C   UNL     1      30.295  42.863  53.537  1.00  0.00     0.037 A 
HETATM   13  C   UNL     1      29.325  43.275  52.615  1.00  0.00     0.015 A 
BRANCH   9  14
HETATM   14  O   UNL     1      27.412  45.691  54.551  1.00  0.00    -0.355 OA
HETATM   15  C   UNL     1      27.874  46.931  55.088  1.00  0.00     0.210 C 
ENDBRANCH   9  14
BRANCH  11  16
HETATM   16  O   UNL     1      31.179  43.052  55.820  1.00  0.00    -0.356 OA
HETATM   17  C   UNL     1      31.288  43.951  56.918  1.00  0.00     0.210 C 
ENDBRANCH  11  16
ENDBRANCH   3   8
ENDBRANCH   1   2
BRANCH   1  18
HETATM   18  C   UNL     1      25.040  46.403  51.727  1.00  0.00     0.248 C 
HETATM   19  N   UNL     1      24.721  46.496  50.378  1.00  0.00    -0.325 N 
HETATM   20  H   UNL     1      23.964  45.918  50.037  1.00  0.00     0.169 HD
HETATM   21  O   UNL     1      25.475  47.309  52.429  1.00  0.00    -0.271 OA
BRANCH  19  22
HETATM   22  C   UNL     1      24.933  47.676  49.627  1.00  0.00     0.041 A 
HETATM   23  C   UNL     1      23.916  48.384  48.960  1.00  0.00    -0.027 A 
HETATM   24  C   UNL     1      24.281  49.512  48.195  1.00  0.00     0.010 A 
HETATM   25  C   UNL     1      25.602  49.951  48.129  1.00  0.00     0.001 A 
HETATM   26  C   UNL     1      26.586  49.285  48.848  1.00  0.00     0.002 A 
HETATM   27  C   UNL     1      26.252  48.162  49.603  1.00  0.00     0.030 A 
BRANCH  23  28
HETATM   28  C   UNL     1      22.432  48.128  49.143  1.00  0.00     0.079 C 
BRANCH  28  29
HETATM   29  C   UNL     1      21.582  49.348  48.841  1.00  0.00    -0.054 A 
HETATM   30  C   UNL     1      21.394  50.344  49.811  1.00  0.00     0.007 A 
HETATM   31  C   UNL     1      20.587  51.452  49.542  1.00  0.00     0.001 A 
HETATM   32  C   UNL     1      19.960  51.577  48.304  1.00  0.00     0.000 A 
HETATM   33  C   UNL     1      20.139  50.595  47.333  1.00  0.00     0.001 A 
HETATM   34  C   UNL     1      20.944  49.485  47.599  1.00  0.00     0.007 A 
ENDBRANCH  28  29
ENDBRANCH  23  28
ENDBRANCH  19  22
ENDBRANCH   1  18
TORSDOF 8
ENDMDL
MODEL 2
REMARK VINA RESULT:      -9.1      3.759     10.355
REMARK  8 active torsions:
REMARK  status: ('A' for Active; 'I' for Inactive)
REMARK    1  A    between atoms: O_2  and  C_3 
REMARK    2  A    between atoms: C_5  and  O_6 
REMARK    3  A    between atoms: C_8  and  C_9 
REMARK    4  A    between atoms: N_10  and  C_12 
REMARK    5  A    between atoms: C_12  and  C_13 
REMARK       I    between atoms: C_13  and  N_14 
REMARK    6  A    between atoms: N_14  and  C_15 
REMARK    7  A    between atoms: C_16  and  C_17 
REMARK    8  A    between atoms: C_17  and  C_18 
ROOT
HETATM    1  C   UNL     1      20.487  47.325  48.823  1.00  0.00     0.338 C 
ENDROOT
BRANCH   1   2
HETATM    2  N   UNL     1      19.508  48.235  48.087  1.00  0.00    -0.054 N 
HETATM    3  C   UNL     1      18.100  48.281  48.722  1.00  0.00     0.224 C 
HETATM    4  C   UNL     1      17.254  47.492  47.719  1.00  0.00     0.040 C 
HETATM    5  C   UNL     1      17.847  47.865  46.377  1.00  0.00     0.030 C 
HETATM    6  C   UNL     1      19.338  47.837  46.634  1.00  0.00     0.236 C 
HETATM    7  H   UNL     1      19.892  49.179  48.148  1.00  0.00     0.281 HD
BRANCH   3   8
HETATM    8  C   UNL     1      17.549  49.683  48.959  1.00  0.00     0.006 A 
HETATM    9  C   UNL     1      18.314  50.578  49.738  1.00  0.00     0.079 A 
HETATM   10  C   UNL     1      17.861  51.882  49.967  1.00  0.00     0.074 A 
HETATM   11  C   UNL     1      16.635  52.315  49.459  1.00  0.00     0.070 A 
HETATM   12  C   UNL     1      15.849  51.428  48.733  1.00  0.00     0.037 A 
HETATM   13  C   UNL     1      16.295  50.122  48.491  1.00  0.00     0.015 A 
BRANCH   9  14
HETATM   14  O   UNL     1      19.491  50.075  50.233  1.00  0.00    -0.355 OA
HETATM   15  C   UNL     1      20.622  50.946  50.209  1.00  0.00     0.210 C 
ENDBRANCH   9  14
BRANCH  11  16
HETATM   16  O   UNL     1      16.319  53.609  49.759  1.00  0.00    -0.356 OA
HETATM   17  C   UNL     1      15.233  53.827  50.652  1.00  0.00     0.210 C 
ENDBRANCH  11  16
ENDBRANCH   3   8
ENDBRANCH   1   2
BRANCH   1  18
HETATM   18  C   UNL     1      21.946  47.552  48.425  1.00  0.00     0.248 C 
HETATM   19  N   UNL     1      22.709  48.152  49.419  1.00  0.00    -0.325 N 
HETATM   20  H   UNL     1      22.427  48.001  50.378  1.00  0.00     0.169 HD
HETATM   21  O   UNL     1      22.360  47.147  47.344  1.00  0.00    -0.271 OA
BRANCH  19  22
HETATM   22  C   UNL     1      24.087  48.427  49.256  1.00  0.00     0.041 A 
HETATM   23  C   UNL     1      25.121  47.658  49.823  1.00  0.00    -0.027 A 
HETATM   24  C   UNL     1      26.452  48.085  49.631  1.00  0.00     0.010 A 
HETATM   25  C   UNL     1      26.752  49.210  48.865  1.00  0.00     0.001 A 
HETATM   26  C   UNL     1      25.728  49.920  48.254  1.00  0.00     0.002 A 
HETATM   27  C   UNL     1      24.404  49.525  48.437  1.00  0.00     0.030 A 
BRANCH  23  28
HETATM   28  C   UNL     1      24.921  46.305  50.479  1.00  0.00     0.079 C 
BRANCH  28  29
HETATM   29  C   UNL     1      25.664  46.173  51.795  1.00  0.00    -0.054 A 
HETATM   30  C   UNL     1      26.497  45.071  52.037  1.00  0.00     0.007 A 
HETATM   31  C   UNL     1      27.157  44.935  53.260  1.00  0.00     0.001 A 
HETATM   32  C   UNL     1      26.993  45.898  54.254  1.00  0.00     0.000 A 
HETATM   33  C   UNL     1      26.169  46.997  54.026  1.00  0.00     0.001 A 
HETATM   34  C   UNL     1      25.506  47.134  52.805  1.00  0.00     0.007 A 
ENDBRANCH  28  29
ENDBRANCH  23  28
ENDBRANCH  19  22
ENDBRANCH   1  18
TORSDOF 8
ENDMDL
MODEL 3
REMARK VINA RESULT:      -9.0      2.206      3.398
REMARK  8 active torsions:
REMARK  status: ('A' for Active; 'I' for Inactive)
REMARK    1  A    between atoms: O_2  and  C_3 
REMARK    2  A    between atoms: C_5  and  O_6 
REMARK    3  A    between atoms: C_8  and  C_9 
REMARK    4  A    between atoms: N_10  and  C_12 
REMARK    5  A    between atoms: C_12  and  C_13 
REMARK       I    between atoms: C_13  and  N_14 
REMARK    6  A    between atoms: N_14  and  C_15 
REMARK    7  A    between atoms: C_16  and  C_17 
REMARK    8  A    between atoms: C_17  and  C_18 
ROOT
HETATM    1  C   UNL     1      25.109  43.754  51.865  1.00  0.00     0.338 C 
ENDROOT
BRANCH   1   2
HETATM    2  N   UNL     1      26.222  44.660  52.382  1.00  0.00    -0.054 N 
HETATM    3  C   UNL     1      26.318  44.716  53.923  1.00  0.00     0.224 C 
HETATM    4  C   UNL     1      25.791  46.118  54.241  1.00  0.00     0.040 C 
HETATM    5  C   UNL     1      26.305  46.963  53.094  1.00  0.00     0.030 C 
HETATM    6  C   UNL     1      26.078  46.084  51.883  1.00  0.00     0.236 C 
HETATM    7  H   UNL     1      27.099  44.259  52.043  1.00  0.00     0.281 HD
BRANCH   3   8
HETATM    8  C   UNL     1      27.716  44.487  54.487  1.00  0.00     0.006 A 
HETATM    9  C   UNL     1      28.329  43.234  54.266  1.00  0.00     0.079 A 
HETATM   10  C   UNL     1      29.618  42.983  54.746  1.00  0.00     0.074 A 
HETATM   11  C   UNL     1      30.313  43.948  55.476  1.00  0.00     0.070 A 
HETATM   12  C   UNL     1      29.702  45.167  55.744  1.00  0.00     0.037 A 
HETATM   13  C   UNL     1      28.413  45.433  55.263  1.00  0.00     0.015 A 
BRANCH   9  14
HETATM   14  O   UNL     1      27.576  42.322  53.569  1.00  0.00    -0.355 OA
HETATM   15  C   UNL     1      28.279  41.238  52.962  1.00  0.00     0.210 C 
ENDBRANCH   9  14
BRANCH  11  16
HETATM   16  O   UNL     1      31.560  43.568  55.882  1.00  0.00    -0.356 OA
HETATM   17  C   UNL     1      31.772  43.406  57.279  1.00  0.00     0.210 C 
ENDBRANCH  11  16
ENDBRANCH   3   8
ENDBRANCH   1   2
BRANCH   1  18
HETATM   18  C   UNL     1      24.685  44.068  50.430  1.00  0.00     0.248 C 
HETATM   19  N   UNL     1      23.376  44.521  50.322  1.00  0.00    -0.325 N 
HETATM   20  H   UNL     1      22.980  44.999  51.119  1.00  0.00     0.169 HD
HETATM   21  O   UNL     1      25.496  43.983  49.514  1.00  0.00    -0.271 OA
BRANCH  19  22
HETATM   22  C   UNL     1      22.799  44.887  49.082  1.00  0.00     0.041 A 
HETATM   23  C   UNL     1      22.772  46.200  48.578  1.00  0.00    -0.027 A 
HETATM   24  C   UNL     1      22.106  46.432  47.355  1.00  0.00     0.010 A 
HETATM   25  C   UNL     1      21.528  45.390  46.633  1.00  0.00     0.001 A 
HETATM   26  C   UNL     1      21.622  44.088  47.106  1.00  0.00     0.002 A 
HETATM   27  C   UNL     1      22.265  43.835  48.317  1.00  0.00     0.030 A 
BRANCH  23  28
HETATM   28  C   UNL     1      23.555  47.360  49.165  1.00  0.00     0.079 C 
BRANCH  28  29
HETATM   29  C   UNL     1      22.898  48.704  48.908  1.00  0.00    -0.054 A 
HETATM   30  C   UNL     1      23.624  49.752  48.323  1.00  0.00     0.007 A 
HETATM   31  C   UNL     1      23.028  50.997  48.115  1.00  0.00     0.001 A 
HETATM   32  C   UNL     1      21.702  51.210  48.489  1.00  0.00     0.000 A 
HETATM   33  C   UNL     1      20.971  50.177  49.071  1.00  0.00     0.001 A 
HETATM   34  C   UNL     1      21.565  48.931  49.282  1.00  0.00     0.007 A 
ENDBRANCH  28  29
ENDBRANCH  23  28
ENDBRANCH  19  22
ENDBRANCH   1  18
TORSDOF 8
ENDMDL
MODEL 4
REMARK VINA RESULT:      -8.8      3.804     10.936
REMARK  8 active torsions:
REMARK  status: ('A' for Active; 'I' for Inactive)
REMARK    1  A    between atoms: O_2  and  C_3 
REMARK    2  A    between atoms: C_5  and  O_6 
REMARK    3  A    between atoms: C_8  and  C_9 
REMARK    4  A    between atoms: N_10  and  C_12 
REMARK    5  A    between atoms: C_12  and  C_13 
REMARK       I    between atoms: C_13  and  N_14 
REMARK    6  A    between atoms: N_14  and  C_15 
REMARK    7  A    between atoms: C_16  and  C_17 
REMARK    8  A    between atoms: C_17  and  C_18 
ROOT
HETATM    1  C   UNL     1      20.501  47.768  49.035  1.00  0.00     0.338 C 
ENDROOT
BRANCH   1   2
HETATM    2  N   UNL     1      19.682  49.052  48.942  1.00  0.00    -0.054 N 
HETATM    3  C   UNL     1      20.135  50.001  47.810  1.00  0.00     0.224 C 
HETATM    4  C   UNL     1      20.803  51.144  48.579  1.00  0.00     0.040 C 
HETATM    5  C   UNL     1      19.960  51.278  49.830  1.00  0.00     0.030 C 
HETATM    6  C   UNL     1      19.709  49.841  50.236  1.00  0.00     0.236 C 
HETATM    7  H   UNL     1      18.726  48.767  48.727  1.00  0.00     0.281 HD
BRANCH   3   8
HETATM    8  C   UNL     1      19.013  50.498  46.905  1.00  0.00     0.006 A 
HETATM    9  C   UNL     1      18.498  49.614  45.931  1.00  0.00     0.079 A 
HETATM   10  C   UNL     1      17.456  50.017  45.091  1.00  0.00     0.074 A 
HETATM   11  C   UNL     1      16.924  51.304  45.173  1.00  0.00     0.070 A 
HETATM   12  C   UNL     1      17.456  52.201  46.091  1.00  0.00     0.037 A 
HETATM   13  C   UNL     1      18.496  51.807  46.944  1.00  0.00     0.015 A 
BRANCH   9  14
HETATM   14  O   UNL     1      19.090  48.377  45.885  1.00  0.00    -0.355 OA
HETATM   15  C   UNL     1      18.217  47.248  45.841  1.00  0.00     0.210 C 
ENDBRANCH   9  14
BRANCH  11  16
HETATM   16  O   UNL     1      15.913  51.561  44.292  1.00  0.00    -0.356 OA
HETATM   17  C   UNL     1      15.700  52.916  43.916  1.00  0.00     0.210 C 
ENDBRANCH  11  16
ENDBRANCH   3   8
ENDBRANCH   1   2
BRANCH   1  18
HETATM   18  C   UNL     1      21.950  47.935  48.573  1.00  0.00     0.248 C 
HETATM   19  N   UNL     1      22.816  48.330  49.584  1.00  0.00    -0.325 N 
HETATM   20  H   UNL     1      22.577  48.071  50.531  1.00  0.00     0.169 HD
HETATM   21  O   UNL     1      22.266  47.652  47.422  1.00  0.00    -0.271 OA
BRANCH  19  22
HETATM   22  C   UNL     1      24.202  48.519  49.367  1.00  0.00     0.041 A 
HETATM   23  C   UNL     1      25.207  47.705  49.919  1.00  0.00    -0.027 A 
HETATM   24  C   UNL     1      26.554  48.047  49.670  1.00  0.00     0.010 A 
HETATM   25  C   UNL     1      26.892  49.131  48.862  1.00  0.00     0.001 A 
HETATM   26  C   UNL     1      25.890  49.884  48.266  1.00  0.00     0.002 A 
HETATM   27  C   UNL     1      24.552  49.574  48.506  1.00  0.00     0.030 A 
BRANCH  23  28
HETATM   28  C   UNL     1      24.952  46.384  50.621  1.00  0.00     0.079 C 
BRANCH  28  29
HETATM   29  C   UNL     1      25.734  46.243  51.914  1.00  0.00    -0.054 A 
HETATM   30  C   UNL     1      26.527  45.110  52.148  1.00  0.00     0.007 A 
HETATM   31  C   UNL     1      27.223  44.967  53.350  1.00  0.00     0.001 A 
HETATM   32  C   UNL     1      27.134  45.953  54.331  1.00  0.00     0.000 A 
HETATM   33  C   UNL     1      26.350  47.083  54.111  1.00  0.00     0.001 A 
HETATM   34  C   UNL     1      25.652  47.227  52.910  1.00  0.00     0.007 A 
ENDBRANCH  28  29
ENDBRANCH  23  28
ENDBRANCH  19  22
ENDBRANCH   1  18
TORSDOF 8
ENDMDL
MODEL 5
REMARK VINA RESULT:      -8.7      1.568      2.217
REMARK  8 active torsions:
REMARK  status: ('A' for Active; 'I' for Inactive)
REMARK    1  A    between atoms: O_2  and  C_3 
REMARK    2  A    between atoms: C_5  and  O_6 
REMARK    3  A    between atoms: C_8  and  C_9 
REMARK    4  A    between atoms: N_10  and  C_12 
REMARK    5  A    between atoms: C_12  and  C_13 
REMARK       I    between atoms: C_13  and  N_14 
REMARK    6  A    between atoms: N_14  and  C_15 
REMARK    7  A    between atoms: C_16  and  C_17 
REMARK    8  A    between atoms: C_17  and  C_18 
ROOT
HETATM    1  C   UNL     1      25.300  45.987  51.871  1.00  0.00     0.338 C 
ENDROOT
BRANCH   1   2
HETATM    2  N   UNL     1      25.963  44.652  52.195  1.00  0.00    -0.054 N 
HETATM    3  C   UNL     1      27.436  44.558  51.734  1.00  0.00     0.224 C 
HETATM    4  C   UNL     1      27.354  43.594  50.547  1.00  0.00     0.040 C 
HETATM    5  C   UNL     1      26.285  42.605  50.961  1.00  0.00     0.030 C 
HETATM    6  C   UNL     1      25.220  43.481  51.583  1.00  0.00     0.236 C 
HETATM    7  H   UNL     1      25.965  44.572  53.213  1.00  0.00     0.281 HD
BRANCH   3   8
HETATM    8  C   UNL     1      28.411  44.073  52.801  1.00  0.00     0.006 A 
HETATM    9  C   UNL     1      28.385  44.701  54.066  1.00  0.00     0.079 A 
HETATM   10  C   UNL     1      29.247  44.278  55.083  1.00  0.00     0.074 A 
HETATM   11  C   UNL     1      30.167  43.252  54.864  1.00  0.00     0.070 A 
HETATM   12  C   UNL     1      30.237  42.659  53.609  1.00  0.00     0.037 A 
HETATM   13  C   UNL     1      29.375  43.070  52.584  1.00  0.00     0.015 A 
BRANCH   9  14
HETATM   14  O   UNL     1      27.479  45.723  54.199  1.00  0.00    -0.355 OA
HETATM   15  C   UNL     1      27.939  46.908  54.849  1.00  0.00     0.210 C 
ENDBRANCH   9  14
BRANCH  11  16
HETATM   16  O   UNL     1      30.943  42.943  55.944  1.00  0.00    -0.356 OA
HETATM   17  C   UNL     1      31.255  43.995  56.850  1.00  0.00     0.210 C 
ENDBRANCH  11  16
ENDBRANCH   3   8
ENDBRANCH   1   2
BRANCH   1  18
HETATM   18  C   UNL     1      24.868  46.115  50.410  1.00  0.00     0.248 C 
HETATM   19  N   UNL     1      23.503  45.945  50.215  1.00  0.00    -0.325 N 
HETATM   20  H   UNL     1      22.889  46.180  50.982  1.00  0.00     0.169 HD
HETATM   21  O   UNL     1      25.687  46.419  49.549  1.00  0.00    -0.271 OA
BRANCH  19  22
HETATM   22  C   UNL     1      22.900  46.047  48.938  1.00  0.00     0.041 A 
HETATM   23  C   UNL     1      22.414  47.246  48.385  1.00  0.00    -0.027 A 
HETATM   24  C   UNL     1      21.778  47.190  47.126  1.00  0.00     0.010 A 
HETATM   25  C   UNL     1      21.669  45.994  46.418  1.00  0.00     0.001 A 
HETATM   26  C   UNL     1      22.215  44.831  46.943  1.00  0.00     0.002 A 
HETATM   27  C   UNL     1      22.839  44.858  48.190  1.00  0.00     0.030 A 
BRANCH  23  28
HETATM   28  C   UNL     1      22.675  48.624  48.963  1.00  0.00     0.079 C 
BRANCH  28  29
HETATM   29  C   UNL     1      21.436  49.499  48.985  1.00  0.00    -0.054 A 
HETATM   30  C   UNL     1      20.231  49.015  49.514  1.00  0.00     0.007 A 
HETATM   31  C   UNL     1      19.082  49.809  49.507  1.00  0.00     0.001 A 
HETATM   32  C   UNL     1      19.125  51.095  48.971  1.00  0.00     0.000 A 
HETATM   33  C   UNL     1      20.316  51.587  48.442  1.00  0.00     0.001 A 
HETATM   34  C   UNL     1      21.465  50.794  48.446  1.00  0.00     0.007 A 
ENDBRANCH  28  29
ENDBRANCH  23  28
ENDBRANCH  19  22
ENDBRANCH   1  18
TORSDOF 8
ENDMDL
MODEL 6
REMARK VINA RESULT:      -8.6      2.032      2.742
REMARK  8 active torsions:
REMARK  status: ('A' for Active; 'I' for Inactive)
REMARK    1  A    between atoms: O_2  and  C_3 
REMARK    2  A    between atoms: C_5  and  O_6 
REMARK    3  A    between atoms: C_8  and  C_9 
REMARK    4  A    between atoms: N_10  and  C_12 
REMARK    5  A    between atoms: C_12  and  C_13 
REMARK       I    between atoms: C_13  and  N_14 
REMARK    6  A    between atoms: N_14  and  C_15 
REMARK    7  A    between atoms: C_16  and  C_17 
REMARK    8  A    between atoms: C_17  and  C_18 
ROOT
HETATM    1  C   UNL     1      23.712  44.028  50.698  1.00  0.00     0.338 C 
ENDROOT
BRANCH   1   2
HETATM    2  N   UNL     1      24.955  43.278  51.168  1.00  0.00    -0.054 N 
HETATM    3  C   UNL     1      26.277  44.036  50.914  1.00  0.00     0.224 C 
HETATM    4  C   UNL     1      26.909  43.234  49.773  1.00  0.00     0.040 C 
HETATM    5  C   UNL     1      26.526  41.803  50.084  1.00  0.00     0.030 C 
HETATM    6  C   UNL     1      25.080  41.914  50.517  1.00  0.00     0.236 C 
HETATM    7  H   UNL     1      24.861  43.174  52.180  1.00  0.00     0.281 HD
BRANCH   3   8
HETATM    8  C   UNL     1      27.200  44.137  52.123  1.00  0.00     0.006 A 
HETATM    9  C   UNL     1      26.900  45.097  53.115  1.00  0.00     0.079 A 
HETATM   10  C   UNL     1      27.706  45.213  54.252  1.00  0.00     0.074 A 
HETATM   11  C   UNL     1      28.835  44.410  54.418  1.00  0.00     0.070 A 
HETATM   12  C   UNL     1      29.170  43.496  53.426  1.00  0.00     0.037 A 
HETATM   13  C   UNL     1      28.367  43.365  52.285  1.00  0.00     0.015 A 
BRANCH   9  14
HETATM   14  O   UNL     1      25.796  45.873  52.871  1.00  0.00    -0.355 OA
HETATM   15  C   UNL     1      25.767  47.160  53.489  1.00  0.00     0.210 C 
ENDBRANCH   9  14
BRANCH  11  16
HETATM   16  O   UNL     1      29.528  44.631  55.573  1.00  0.00    -0.356 OA
HETATM   17  C   UNL     1      29.344  45.887  56.217  1.00  0.00     0.210 C 
ENDBRANCH  11  16
ENDBRANCH   3   8
ENDBRANCH   1   2
BRANCH   1  18
HETATM   18  C   UNL     1      24.021  45.165  49.722  1.00  0.00     0.248 C 
HETATM   19  N   UNL     1      24.094  46.414  50.325  1.00  0.00    -0.325 N 
HETATM   20  H   UNL     1      24.367  46.447  51.298  1.00  0.00     0.169 HD
HETATM   21  O   UNL     1      24.251  44.919  48.543  1.00  0.00    -0.271 OA
BRANCH  19  22
HETATM   22  C   UNL     1      24.391  47.592  49.599  1.00  0.00     0.041 A 
HETATM   23  C   UNL     1      23.426  48.391  48.958  1.00  0.00    -0.027 A 
HETATM   24  C   UNL     1      23.870  49.505  48.214  1.00  0.00     0.010 A 
HETATM   25  C   UNL     1      25.221  49.844  48.147  1.00  0.00     0.001 A 
HETATM   26  C   UNL     1      26.155  49.088  48.841  1.00  0.00     0.002 A 
HETATM   27  C   UNL     1      25.743  47.976  49.574  1.00  0.00     0.030 A 
BRANCH  23  28
HETATM   28  C   UNL     1      21.928  48.244  49.148  1.00  0.00     0.079 C 
BRANCH  28  29
HETATM   29  C   UNL     1      21.333  47.129  48.309  1.00  0.00    -0.054 A 
HETATM   30  C   UNL     1      21.767  46.919  46.992  1.00  0.00     0.007 A 
HETATM   31  C   UNL     1      21.198  45.911  46.210  1.00  0.00     0.001 A 
HETATM   32  C   UNL     1      20.190  45.104  46.734  1.00  0.00     0.000 A 
HETATM   33  C   UNL     1      19.750  45.303  48.041  1.00  0.00     0.001 A 
HETATM   34  C   UNL     1      20.316  46.311  48.824  1.00  0.00     0.007 A 
ENDBRANCH  28  29
ENDBRANCH  23  28
ENDBRANCH  19  22
ENDBRANCH   1  18
TORSDOF 8
ENDMDL
MODEL 7
REMARK VINA RESULT:      -8.6      2.850      4.696
REMARK  8 active torsions:
REMARK  status: ('A' for Active; 'I' for Inactive)
REMARK    1  A    between atoms: O_2  and  C_3 
REMARK    2  A    between atoms: C_5  and  O_6 
REMARK    3  A    between atoms: C_8  and  C_9 
REMARK    4  A    between atoms: N_10  and  C_12 
REMARK    5  A    between atoms: C_12  and  C_13 
REMARK       I    between atoms: C_13  and  N_14 
REMARK    6  A    between atoms: N_14  and  C_15 
REMARK    7  A    between atoms: C_16  and  C_17 
REMARK    8  A    between atoms: C_17  and  C_18 
ROOT
HETATM    1  C   UNL     1      23.152  45.313  48.131  1.00  0.00     0.338 C 
ENDROOT
BRANCH   1   2
HETATM    2  N   UNL     1      23.230  44.870  49.589  1.00  0.00    -0.054 N 
HETATM    3  C   UNL     1      24.670  44.600  50.084  1.00  0.00     0.224 C 
HETATM    4  C   UNL     1      24.704  43.074  50.200  1.00  0.00     0.040 C 
HETATM    5  C   UNL     1      23.312  42.719  50.678  1.00  0.00     0.030 C 
HETATM    6  C   UNL     1      22.418  43.617  49.850  1.00  0.00     0.236 C 
HETATM    7  H   UNL     1      22.865  45.644  50.145  1.00  0.00     0.281 HD
BRANCH   3   8
HETATM    8  C   UNL     1      25.033  45.283  51.397  1.00  0.00     0.006 A 
HETATM    9  C   UNL     1      25.222  46.683  51.393  1.00  0.00     0.079 A 
HETATM   10  C   UNL     1      25.538  47.358  52.577  1.00  0.00     0.074 A 
HETATM   11  C   UNL     1      25.702  46.664  53.777  1.00  0.00     0.070 A 
HETATM   12  C   UNL     1      25.569  45.281  53.785  1.00  0.00     0.037 A 
HETATM   13  C   UNL     1      25.246  44.594  52.607  1.00  0.00     0.015 A 
BRANCH   9  14
HETATM   14  O   UNL     1      25.078  47.295  50.174  1.00  0.00    -0.355 OA
HETATM   15  C   UNL     1      26.170  48.098  49.724  1.00  0.00     0.210 C 
ENDBRANCH   9  14
BRANCH  11  16
HETATM   16  O   UNL     1      26.008  47.448  54.851  1.00  0.00    -0.356 OA
HETATM   17  C   UNL     1      27.345  47.400  55.338  1.00  0.00     0.210 C 
ENDBRANCH  11  16
ENDBRANCH   3   8
ENDBRANCH   1   2
BRANCH   1  18
HETATM   18  C   UNL     1      22.464  46.666  47.942  1.00  0.00     0.248 C 
HETATM   19  N   UNL     1      22.354  47.404  49.114  1.00  0.00    -0.325 N 
HETATM   20  H   UNL     1      23.047  47.246  49.832  1.00  0.00     0.169 HD
HETATM   21  O   UNL     1      22.135  47.039  46.822  1.00  0.00    -0.271 OA
BRANCH  19  22
HETATM   22  C   UNL     1      21.767  48.692  49.148  1.00  0.00     0.041 A 
HETATM   23  C   UNL     1      20.383  48.929  49.237  1.00  0.00    -0.027 A 
HETATM   24  C   UNL     1      19.931  50.266  49.197  1.00  0.00     0.010 A 
HETATM   25  C   UNL     1      20.824  51.333  49.119  1.00  0.00     0.001 A 
HETATM   26  C   UNL     1      22.191  51.089  49.102  1.00  0.00     0.002 A 
HETATM   27  C   UNL     1      22.661  49.777  49.129  1.00  0.00     0.030 A 
BRANCH  23  28
HETATM   28  C   UNL     1      19.349  47.863  49.548  1.00  0.00     0.079 C 
BRANCH  28  29
HETATM   29  C   UNL     1      18.303  47.722  48.458  1.00  0.00    -0.054 A 
HETATM   30  C   UNL     1      18.667  47.302  47.170  1.00  0.00     0.007 A 
HETATM   31  C   UNL     1      17.708  47.201  46.160  1.00  0.00     0.001 A 
HETATM   32  C   UNL     1      16.378  47.518  46.424  1.00  0.00     0.000 A 
HETATM   33  C   UNL     1      16.003  47.936  47.698  1.00  0.00     0.001 A 
HETATM   34  C   UNL     1      16.960  48.040  48.710  1.00  0.00     0.007 A 
ENDBRANCH  28  29
ENDBRANCH  23  28
ENDBRANCH  19  22
ENDBRANCH   1  18
TORSDOF 8
ENDMDL
MODEL 8
REMARK VINA RESULT:      -8.6      3.498      8.008
REMARK  8 active torsions:
REMARK  status: ('A' for Active; 'I' for Inactive)
REMARK    1  A    between atoms: O_2  and  C_3 
REMARK    2  A    between atoms: C_5  and  O_6 
REMARK    3  A    between atoms: C_8  and  C_9 
REMARK    4  A    between atoms: N_10  and  C_12 
REMARK    5  A    between atoms: C_12  and  C_13 
REMARK       I    between atoms: C_13  and  N_14 
REMARK    6  A    between atoms: N_14  and  C_15 
REMARK    7  A    between atoms: C_16  and  C_17 
REMARK    8  A    between atoms: C_17  and  C_18 
ROOT
HETATM    1  C   UNL     1      21.052  49.487  49.089  1.00  0.00     0.338 C 
ENDROOT
BRANCH   1   2
HETATM    2  N   UNL     1      20.624  48.022  49.091  1.00  0.00    -0.054 N 
HETATM    3  C   UNL     1      20.764  47.329  47.716  1.00  0.00     0.224 C 
HETATM    4  C   UNL     1      19.307  47.173  47.270  1.00  0.00     0.040 C 
HETATM    5  C   UNL     1      18.566  46.882  48.558  1.00  0.00     0.030 C 
HETATM    6  C   UNL     1      19.189  47.846  49.545  1.00  0.00     0.236 C 
HETATM    7  H   UNL     1      21.255  47.540  49.733  1.00  0.00     0.281 HD
BRANCH   3   8
HETATM    8  C   UNL     1      21.500  45.994  47.745  1.00  0.00     0.006 A 
HETATM    9  C   UNL     1      22.044  45.504  46.536  1.00  0.00     0.079 A 
HETATM   10  C   UNL     1      22.745  44.294  46.515  1.00  0.00     0.074 A 
HETATM   11  C   UNL     1      22.897  43.532  47.674  1.00  0.00     0.070 A 
HETATM   12  C   UNL     1      22.324  43.977  48.860  1.00  0.00     0.037 A 
HETATM   13  C   UNL     1      21.625  45.191  48.895  1.00  0.00     0.015 A 
BRANCH   9  14
HETATM   14  O   UNL     1      21.828  46.289  45.431  1.00  0.00    -0.355 OA
HETATM   15  C   UNL     1      21.176  45.670  44.322  1.00  0.00     0.210 C 
ENDBRANCH   9  14
BRANCH  11  16
HETATM   16  O   UNL     1      23.603  42.376  47.508  1.00  0.00    -0.356 OA
HETATM   17  C   UNL     1      23.451  41.367  48.500  1.00  0.00     0.210 C 
ENDBRANCH  11  16
ENDBRANCH   3   8
ENDBRANCH   1   2
BRANCH   1  18
HETATM   18  C   UNL     1      22.528  49.691  49.430  1.00  0.00     0.248 C 
HETATM   19  N   UNL     1      23.380  48.815  48.768  1.00  0.00    -0.325 N 
HETATM   20  H   UNL     1      23.076  48.455  47.874  1.00  0.00     0.169 HD
HETATM   21  O   UNL     1      22.870  50.611  50.165  1.00  0.00    -0.271 OA
BRANCH  19  22
HETATM   22  C   UNL     1      24.785  48.855  48.931  1.00  0.00     0.041 A 
HETATM   23  C   UNL     1      25.518  47.941  49.711  1.00  0.00    -0.027 A 
HETATM   24  C   UNL     1      26.910  48.137  49.836  1.00  0.00     0.010 A 
HETATM   25  C   UNL     1      27.561  49.176  49.172  1.00  0.00     0.001 A 
HETATM   26  C   UNL     1      26.837  50.028  48.350  1.00  0.00     0.002 A 
HETATM   27  C   UNL     1      25.460  49.862  48.219  1.00  0.00     0.030 A 
BRANCH  23  28
HETATM   28  C   UNL     1      24.950  46.658  50.288  1.00  0.00     0.079 C 
BRANCH  28  29
HETATM   29  C   UNL     1      25.658  46.218  51.555  1.00  0.00    -0.054 A 
HETATM   30  C   UNL     1      25.560  46.981  52.728  1.00  0.00     0.007 A 
HETATM   31  C   UNL     1      26.237  46.591  53.886  1.00  0.00     0.001 A 
HETATM   32  C   UNL     1      27.018  45.437  53.885  1.00  0.00     0.000 A 
HETATM   33  C   UNL     1      27.123  44.672  52.727  1.00  0.00     0.001 A 
HETATM   34  C   UNL     1      26.450  45.060  51.568  1.00  0.00     0.007 A 
ENDBRANCH  28  29
ENDBRANCH  23  28
ENDBRANCH  19  22
ENDBRANCH   1  18
TORSDOF 8
ENDMDL
MODEL 9
REMARK VINA RESULT:      -8.4      3.086      9.167
REMARK  8 active torsions:
REMARK  status: ('A' for Active; 'I' for Inactive)
REMARK    1  A    between atoms: O_2  and  C_3 
REMARK    2  A    between atoms: C_5  and  O_6 
REMARK    3  A    between atoms: C_8  and  C_9 
REMARK    4  A    between atoms: N_10  and  C_12 
REMARK    5  A    between atoms: C_12  and  C_13 
REMARK       I    between atoms: C_13  and  N_14 
REMARK    6  A    between atoms: N_14  and  C_15 
REMARK    7  A    between atoms: C_16  and  C_17 
REMARK    8  A    between atoms: C_17  and  C_18 
ROOT
HETATM    1  C   UNL     1      26.280  42.661  51.170  1.00  0.00     0.338 C 
ENDROOT
BRANCH   1   2
HETATM    2  N   UNL     1      26.018  42.691  49.668  1.00  0.00    -0.054 N 
HETATM    3  C   UNL     1      24.592  42.246  49.273  1.00  0.00     0.224 C 
HETATM    4  C   UNL     1      24.833  40.874  48.638  1.00  0.00     0.040 C 
HETATM    5  C   UNL     1      26.153  41.039  47.915  1.00  0.00     0.030 C 
HETATM    6  C   UNL     1      26.994  41.823  48.899  1.00  0.00     0.236 C 
HETATM    7  H   UNL     1      26.117  43.666  49.379  1.00  0.00     0.281 HD
BRANCH   3   8
HETATM    8  C   UNL     1      23.864  43.195  48.327  1.00  0.00     0.006 A 
HETATM    9  C   UNL     1      23.556  44.494  48.790  1.00  0.00     0.079 A 
HETATM   10  C   UNL     1      22.907  45.407  47.952  1.00  0.00     0.074 A 
HETATM   11  C   UNL     1      22.523  45.049  46.659  1.00  0.00     0.070 A 
HETATM   12  C   UNL     1      22.774  43.758  46.210  1.00  0.00     0.037 A 
HETATM   13  C   UNL     1      23.430  42.836  47.036  1.00  0.00     0.015 A 
BRANCH   9  14
HETATM   14  O   UNL     1      23.933  44.767  50.080  1.00  0.00    -0.355 OA
HETATM   15  C   UNL     1      24.308  46.113  50.369  1.00  0.00     0.210 C 
ENDBRANCH   9  14
BRANCH  11  16
HETATM   16  O   UNL     1      21.899  46.037  45.955  1.00  0.00    -0.356 OA
HETATM   17  C   UNL     1      20.945  46.834  46.649  1.00  0.00     0.210 C 
ENDBRANCH  11  16
ENDBRANCH   3   8
ENDBRANCH   1   2
BRANCH   1  18
HETATM   18  C   UNL     1      26.812  43.985  51.723  1.00  0.00     0.248 C 
HETATM   19  N   UNL     1      26.401  44.251  53.023  1.00  0.00    -0.325 N 
HETATM   20  H   UNL     1      26.194  43.461  53.618  1.00  0.00     0.169 HD
HETATM   21  O   UNL     1      27.588  44.662  51.059  1.00  0.00    -0.271 OA
BRANCH  19  22
HETATM   22  C   UNL     1      26.802  45.415  53.722  1.00  0.00     0.041 A 
HETATM   23  C   UNL     1      28.017  45.538  54.422  1.00  0.00    -0.027 A 
HETATM   24  C   UNL     1      28.261  46.736  55.129  1.00  0.00     0.010 A 
HETATM   25  C   UNL     1      27.352  47.793  55.105  1.00  0.00     0.001 A 
HETATM   26  C   UNL     1      26.190  47.685  54.353  1.00  0.00     0.002 A 
HETATM   27  C   UNL     1      25.921  46.508  53.655  1.00  0.00     0.030 A 
BRANCH  23  28
HETATM   28  C   UNL     1      29.163  44.548  54.332  1.00  0.00     0.079 C 
BRANCH  28  29
HETATM   29  C   UNL     1      29.957  44.448  55.621  1.00  0.00    -0.054 A 
HETATM   30  C   UNL     1      29.797  45.404  56.634  1.00  0.00     0.007 A 
HETATM   31  C   UNL     1      30.551  45.328  57.807  1.00  0.00     0.001 A 
HETATM   32  C   UNL     1      31.471  44.297  57.981  1.00  0.00     0.000 A 
HETATM   33  C   UNL     1      31.639  43.340  56.983  1.00  0.00     0.001 A 
HETATM   34  C   UNL     1      30.889  43.415  55.808  1.00  0.00     0.007 A 
ENDBRANCH  28  29
ENDBRANCH  23  28
ENDBRANCH  19  22
ENDBRANCH   1  18
TORSDOF 8
ENDMDL
MODEL 10
REMARK VINA RESULT:      -8.3      2.334      9.056
REMARK  8 active torsions:
REMARK  status: ('A' for Active; 'I' for Inactive)
REMARK    1  A    between atoms: O_2  and  C_3 
REMARK    2  A    between atoms: C_5  and  O_6 
REMARK    3  A    between atoms: C_8  and  C_9 
REMARK    4  A    between atoms: N_10  and  C_12 
REMARK    5  A    between atoms: C_12  and  C_13 
REMARK       I    between atoms: C_13  and  N_14 
REMARK    6  A    between atoms: N_14  and  C_15 
REMARK    7  A    between atoms: C_16  and  C_17 
REMARK    8  A    between atoms: C_17  and  C_18 
ROOT
HETATM    1  C   UNL     1      24.760  44.513  49.480  1.00  0.00     0.338 C 
ENDROOT
BRANCH   1   2
HETATM    2  N   UNL     1      24.327  45.827  50.124  1.00  0.00    -0.054 N 
HETATM    3  C   UNL     1      24.611  47.072  49.254  1.00  0.00     0.224 C 
HETATM    4  C   UNL     1      25.775  47.739  49.993  1.00  0.00     0.040 C 
HETATM    5  C   UNL     1      25.463  47.489  51.453  1.00  0.00     0.030 C 
HETATM    6  C   UNL     1      24.991  46.051  51.468  1.00  0.00     0.236 C 
HETATM    7  H   UNL     1      23.314  45.770  50.240  1.00  0.00     0.281 HD
BRANCH   3   8
HETATM    8  C   UNL     1      23.426  48.016  49.080  1.00  0.00     0.006 A 
HETATM    9  C   UNL     1      22.217  47.485  48.579  1.00  0.00     0.079 A 
HETATM   10  C   UNL     1      21.096  48.307  48.421  1.00  0.00     0.074 A 
HETATM   11  C   UNL     1      21.155  49.668  48.723  1.00  0.00     0.070 A 
HETATM   12  C   UNL     1      22.353  50.213  49.169  1.00  0.00     0.037 A 
HETATM   13  C   UNL     1      23.481  49.399  49.338  1.00  0.00     0.015 A 
BRANCH   9  14
HETATM   14  O   UNL     1      22.241  46.148  48.272  1.00  0.00    -0.355 OA
HETATM   15  C   UNL     1      21.965  45.795  46.917  1.00  0.00     0.210 C 
ENDBRANCH   9  14
BRANCH  11  16
HETATM   16  O   UNL     1      19.989  50.348  48.521  1.00  0.00    -0.356 OA
HETATM   17  C   UNL     1      20.037  51.768  48.596  1.00  0.00     0.210 C 
ENDBRANCH  11  16
ENDBRANCH   3   8
ENDBRANCH   1   2
BRANCH   1  18
HETATM   18  C   UNL     1      26.043  43.935  50.078  1.00  0.00     0.248 C 
HETATM   19  N   UNL     1      25.820  43.020  51.099  1.00  0.00    -0.325 N 
HETATM   20  H   UNL     1      24.951  42.503  51.082  1.00  0.00     0.169 HD
HETATM   21  O   UNL     1      27.133  44.232  49.602  1.00  0.00    -0.271 OA
BRANCH  19  22
HETATM   22  C   UNL     1      26.876  42.356  51.768  1.00  0.00     0.041 A 
HETATM   23  C   UNL     1      27.251  42.608  53.100  1.00  0.00    -0.027 A 
HETATM   24  C   UNL     1      28.366  41.916  53.621  1.00  0.00     0.010 A 
HETATM   25  C   UNL     1      29.056  40.972  52.863  1.00  0.00     0.001 A 
HETATM   26  C   UNL     1      28.633  40.682  51.573  1.00  0.00     0.002 A 
HETATM   27  C   UNL     1      27.541  41.360  51.032  1.00  0.00     0.030 A 
BRANCH  23  28
HETATM   28  C   UNL     1      26.442  43.441  54.077  1.00  0.00     0.079 C 
BRANCH  28  29
HETATM   29  C   UNL     1      27.150  44.717  54.491  1.00  0.00    -0.054 A 
HETATM   30  C   UNL     1      26.473  45.945  54.477  1.00  0.00     0.007 A 
HETATM   31  C   UNL     1      27.134  47.123  54.830  1.00  0.00     0.001 A 
HETATM   32  C   UNL     1      28.477  47.088  55.199  1.00  0.00     0.000 A 
HETATM   33  C   UNL     1      29.161  45.875  55.216  1.00  0.00     0.001 A 
HETATM   34  C   UNL     1      28.503  44.696  54.863  1.00  0.00     0.007 A 
ENDBRANCH  28  29
ENDBRANCH  23  28
ENDBRANCH  19  22
ENDBRANCH   1  18
TORSDOF 8
ENDMDL
