MODEL 1
REMARK VINA RESULT:      -9.9      0.000      0.000
REMARK  3 active torsions:
REMARK  status: ('A' for Active; 'I' for Inactive)
REMARK    1  A    between atoms: C_8  and  C_9 
REMARK    2  A    between atoms: C_14  and  C_15 
REMARK    3  A    between atoms: C_16  and  O_17 
ROOT
HETATM    1  C   UNL     1      25.685  47.546  50.462  1.00  0.00     0.143 A 
HETATM    2  N   UNL     1      25.464  47.788  51.734  1.00  0.00    -0.223 NA
HETATM    3  C   UNL     1      25.829  46.647  52.438  1.00  0.00     0.149 A 
HETATM    4  C   UNL     1      26.316  45.698  51.551  1.00  0.00     0.046 A 
HETATM    5  C   UNL     1      26.853  44.315  51.663  1.00  0.00     0.070 C 
HETATM    6  C   UNL     1      26.772  43.623  53.034  1.00  0.00     0.045 C 
HETATM    7  C   UNL     1      25.570  44.048  53.887  1.00  0.00     0.132 C 
HETATM    8  N   UNL     1      25.689  45.351  54.507  1.00  0.00    -0.355 N 
HETATM    9  C   UNL     1      25.698  46.579  53.897  1.00  0.00     0.272 C 
HETATM   10  O   UNL     1      25.599  47.579  54.607  1.00  0.00    -0.266 OA
HETATM   11  N   UNL     1      26.222  46.299  50.314  1.00  0.00    -0.341 N 
HETATM   12  H   UNL     1      26.493  45.886  49.436  1.00  0.00     0.167 HD
HETATM   13  H   UNL     1      25.584  45.418  55.511  1.00  0.00     0.162 HD
ENDROOT
BRANCH   1  14
HETATM   14  C   UNL     1      25.380  48.498  49.361  1.00  0.00     0.059 A 
HETATM   15  C   UNL     1      24.152  48.767  48.784  1.00  0.00     0.040 A 
HETATM   16  C   UNL     1      22.778  48.266  49.008  1.00  0.00     0.071 C 
HETATM   17  N   UNL     1      24.410  49.716  47.829  1.00  0.00    -0.281 N 
HETATM   18  H   UNL     1      23.752  50.164  47.199  1.00  0.00     0.189 HD
HETATM   19  N   UNL     1      25.695  50.078  47.747  1.00  0.00    -0.179 NA
HETATM   20  C   UNL     1      26.303  49.338  48.684  1.00  0.00     0.067 A 
HETATM   21  C   UNL     1      27.766  49.463  48.901  1.00  0.00     0.073 C 
ENDBRANCH   1  14
BRANCH   6  22
HETATM   22  C   UNL     1      28.080  43.610  53.829  1.00  0.00    -0.019 A 
HETATM   23  C   UNL     1      28.797  42.406  54.011  1.00  0.00     0.074 A 
HETATM   24  C   UNL     1      29.977  42.401  54.765  1.00  0.00     0.037 A 
HETATM   25  C   UNL     1      30.459  43.580  55.334  1.00  0.00     0.003 A 
HETATM   26  C   UNL     1      29.763  44.771  55.157  1.00  0.00     0.001 A 
HETATM   27  C   UNL     1      28.583  44.786  54.412  1.00  0.00     0.010 A 
BRANCH  23  28
HETATM   28  O   UNL     1      28.255  41.281  53.441  1.00  0.00    -0.355 OA
HETATM   29  C   UNL     1      28.962  40.710  52.346  1.00  0.00     0.210 C 
ENDBRANCH  23  28
ENDBRANCH   6  22
TORSDOF 3
ENDMDL
MODEL 2
REMARK VINA RESULT:      -9.1      2.464      7.783
REMARK  3 active torsions:
REMARK  status: ('A' for Active; 'I' for Inactive)
REMARK    1  A    between atoms: C_8  and  C_9 
REMARK    2  A    between atoms: C_14  and  C_15 
REMARK    3  A    between atoms: C_16  and  O_17 
ROOT
HETATM    1  C   UNL     1      27.982  44.554  53.181  1.00  0.00     0.143 A 
HETATM    2  N   UNL     1      27.841  44.081  51.964  1.00  0.00    -0.223 NA
HETATM    3  C   UNL     1      26.881  44.859  51.330  1.00  0.00     0.149 A 
HETATM    4  C   UNL     1      26.456  45.857  52.195  1.00  0.00     0.046 A 
HETATM    5  C   UNL     1      25.481  46.980  52.126  1.00  0.00     0.070 C 
HETATM    6  C   UNL     1      24.575  47.068  50.886  1.00  0.00     0.045 C 
HETATM    7  C   UNL     1      24.226  45.712  50.261  1.00  0.00     0.132 C 
HETATM    8  N   UNL     1      25.288  45.100  49.490  1.00  0.00    -0.355 N 
HETATM    9  C   UNL     1      26.476  44.590  49.946  1.00  0.00     0.272 C 
HETATM   10  O   UNL     1      27.158  43.926  49.167  1.00  0.00    -0.266 OA
HETATM   11  N   UNL     1      27.176  45.644  53.350  1.00  0.00    -0.341 N 
HETATM   12  H   UNL     1      27.115  46.193  54.193  1.00  0.00     0.167 HD
HETATM   13  H   UNL     1      25.101  44.847  48.528  1.00  0.00     0.162 HD
ENDROOT
BRANCH   1  14
HETATM   14  C   UNL     1      28.883  43.970  54.211  1.00  0.00     0.059 A 
HETATM   15  C   UNL     1      29.301  42.658  54.331  1.00  0.00     0.040 A 
HETATM   16  C   UNL     1      29.047  41.422  53.556  1.00  0.00     0.071 C 
HETATM   17  N   UNL     1      30.120  42.646  55.429  1.00  0.00    -0.281 N 
HETATM   18  H   UNL     1      30.618  41.857  55.829  1.00  0.00     0.189 HD
HETATM   19  N   UNL     1      30.263  43.837  56.021  1.00  0.00    -0.179 NA
HETATM   20  C   UNL     1      29.509  44.661  55.281  1.00  0.00     0.067 A 
HETATM   21  C   UNL     1      29.413  46.101  55.631  1.00  0.00     0.073 C 
ENDBRANCH   1  14
BRANCH   6  22
HETATM   22  C   UNL     1      25.008  48.101  49.843  1.00  0.00    -0.019 A 
HETATM   23  C   UNL     1      24.043  48.802  49.085  1.00  0.00     0.074 A 
HETATM   24  C   UNL     1      24.451  49.724  48.113  1.00  0.00     0.037 A 
HETATM   25  C   UNL     1      25.808  49.965  47.891  1.00  0.00     0.003 A 
HETATM   26  C   UNL     1      26.765  49.283  48.635  1.00  0.00     0.001 A 
HETATM   27  C   UNL     1      26.369  48.359  49.603  1.00  0.00     0.010 A 
BRANCH  23  28
HETATM   28  O   UNL     1      22.729  48.501  49.342  1.00  0.00    -0.355 OA
HETATM   29  C   UNL     1      21.877  48.325  48.216  1.00  0.00     0.210 C 
ENDBRANCH  23  28
ENDBRANCH   6  22
TORSDOF 3
ENDMDL
MODEL 3
REMARK VINA RESULT:      -8.7      3.857      7.075
REMARK  3 active torsions:
REMARK  status: ('A' for Active; 'I' for Inactive)
REMARK    1  A    between atoms: C_8  and  C_9 
REMARK    2  A    between atoms: C_14  and  C_15 
REMARK    3  A    between atoms: C_16  and  O_17 
ROOT
HETATM    1  C   UNL     1      27.922  40.406  50.470  1.00  0.00     0.143 A 
HETATM    2  N   UNL     1      27.817  41.654  50.072  1.00  0.00    -0.223 NA
HETATM    3  C   UNL     1      27.628  42.432  51.207  1.00  0.00     0.149 A 
HETATM    4  C   UNL     1      27.653  41.617  52.330  1.00  0.00     0.046 A 
HETATM    5  C   UNL     1      27.517  41.826  53.798  1.00  0.00     0.070 C 
HETATM    6  C   UNL     1      27.120  43.229  54.289  1.00  0.00     0.045 C 
HETATM    7  C   UNL     1      26.222  44.007  53.320  1.00  0.00     0.132 C 
HETATM    8  N   UNL     1      26.901  44.561  52.166  1.00  0.00    -0.355 N 
HETATM    9  C   UNL     1      27.462  43.886  51.114  1.00  0.00     0.272 C 
HETATM   10  O   UNL     1      27.810  44.536  50.129  1.00  0.00    -0.266 OA
HETATM   11  N   UNL     1      27.850  40.348  51.833  1.00  0.00    -0.341 N 
HETATM   12  H   UNL     1      27.920  39.504  52.381  1.00  0.00     0.167 HD
HETATM   13  H   UNL     1      26.825  45.555  51.993  1.00  0.00     0.162 HD
ENDROOT
BRANCH   1  14
HETATM   14  C   UNL     1      28.085  39.244  49.558  1.00  0.00     0.059 A 
HETATM   15  C   UNL     1      29.026  38.233  49.626  1.00  0.00     0.040 A 
HETATM   16  C   UNL     1      30.143  37.928  50.549  1.00  0.00     0.071 C 
HETATM   17  N   UNL     1      28.743  37.411  48.567  1.00  0.00    -0.281 N 
HETATM   18  H   UNL     1      29.220  36.559  48.292  1.00  0.00     0.189 HD
HETATM   19  N   UNL     1      27.701  37.808  47.827  1.00  0.00    -0.179 NA
HETATM   20  C   UNL     1      27.286  38.933  48.426  1.00  0.00     0.067 A 
HETATM   21  C   UNL     1      26.123  39.681  47.885  1.00  0.00     0.073 C 
ENDBRANCH   1  14
BRANCH   6  22
HETATM   22  C   UNL     1      28.276  44.075  54.827  1.00  0.00    -0.019 A 
HETATM   23  C   UNL     1      28.066  45.423  55.197  1.00  0.00     0.074 A 
HETATM   24  C   UNL     1      29.138  46.196  55.661  1.00  0.00     0.037 A 
HETATM   25  C   UNL     1      30.414  45.644  55.771  1.00  0.00     0.003 A 
HETATM   26  C   UNL     1      30.630  44.317  55.414  1.00  0.00     0.001 A 
HETATM   27  C   UNL     1      29.570  43.539  54.946  1.00  0.00     0.010 A 
BRANCH  23  28
HETATM   28  O   UNL     1      26.790  45.906  55.045  1.00  0.00    -0.355 OA
HETATM   29  C   UNL     1      26.651  47.311  54.867  1.00  0.00     0.210 C 
ENDBRANCH  23  28
ENDBRANCH   6  22
TORSDOF 3
ENDMDL
MODEL 4
REMARK VINA RESULT:      -8.6      5.110     10.512
REMARK  3 active torsions:
REMARK  status: ('A' for Active; 'I' for Inactive)
REMARK    1  A    between atoms: C_8  and  C_9 
REMARK    2  A    between atoms: C_14  and  C_15 
REMARK    3  A    between atoms: C_16  and  O_17 
ROOT
HETATM    1  C   UNL     1      23.251  48.708  49.372  1.00  0.00     0.143 A 
HETATM    2  N   UNL     1      22.295  47.852  49.088  1.00  0.00    -0.223 NA
HETATM    3  C   UNL     1      21.089  48.531  49.206  1.00  0.00     0.149 A 
HETATM    4  C   UNL     1      21.339  49.853  49.544  1.00  0.00     0.046 A 
HETATM    5  C   UNL     1      20.505  51.058  49.807  1.00  0.00     0.070 C 
HETATM    6  C   UNL     1      18.980  50.876  49.874  1.00  0.00     0.045 C 
HETATM    7  C   UNL     1      18.530  49.506  50.399  1.00  0.00     0.132 C 
HETATM    8  N   UNL     1      18.659  48.416  49.455  1.00  0.00    -0.355 N 
HETATM    9  C   UNL     1      19.810  47.856  48.963  1.00  0.00     0.272 C 
HETATM   10  O   UNL     1      19.718  46.805  48.331  1.00  0.00    -0.266 OA
HETATM   11  N   UNL     1      22.711  49.936  49.632  1.00  0.00    -0.341 N 
HETATM   12  H   UNL     1      23.239  50.763  49.861  1.00  0.00     0.167 HD
HETATM   13  H   UNL     1      17.837  47.865  49.239  1.00  0.00     0.162 HD
ENDROOT
BRANCH   1  14
HETATM   14  C   UNL     1      24.698  48.369  49.409  1.00  0.00     0.059 A 
HETATM   15  C   UNL     1      25.316  47.349  50.110  1.00  0.00     0.040 A 
HETATM   16  C   UNL     1      24.833  46.285  51.017  1.00  0.00     0.071 C 
HETATM   17  N   UNL     1      26.646  47.462  49.800  1.00  0.00    -0.281 N 
HETATM   18  H   UNL     1      27.415  46.884  50.125  1.00  0.00     0.189 HD
HETATM   19  N   UNL     1      26.933  48.464  48.962  1.00  0.00    -0.179 NA
HETATM   20  C   UNL     1      25.744  49.029  48.712  1.00  0.00     0.067 A 
HETATM   21  C   UNL     1      25.650  50.198  47.801  1.00  0.00     0.073 C 
ENDBRANCH   1  14
BRANCH   6  22
HETATM   22  C   UNL     1      18.223  51.299  48.614  1.00  0.00    -0.019 A 
HETATM   23  C   UNL     1      16.944  51.892  48.710  1.00  0.00     0.074 A 
HETATM   24  C   UNL     1      16.248  52.248  47.549  1.00  0.00     0.037 A 
HETATM   25  C   UNL     1      16.811  52.031  46.291  1.00  0.00     0.003 A 
HETATM   26  C   UNL     1      18.071  51.452  46.185  1.00  0.00     0.001 A 
HETATM   27  C   UNL     1      18.771  51.088  47.337  1.00  0.00     0.010 A 
BRANCH  23  28
HETATM   28  O   UNL     1      16.443  52.058  49.977  1.00  0.00    -0.355 OA
HETATM   29  C   UNL     1      15.761  53.278  50.245  1.00  0.00     0.210 C 
ENDBRANCH  23  28
ENDBRANCH   6  22
TORSDOF 3
ENDMDL
MODEL 5
REMARK VINA RESULT:      -8.1     11.947     14.324
REMARK  3 active torsions:
REMARK  status: ('A' for Active; 'I' for Inactive)
REMARK    1  A    between atoms: C_8  and  C_9 
REMARK    2  A    between atoms: C_14  and  C_15 
REMARK    3  A    between atoms: C_16  and  O_17 
ROOT
HETATM    1  C   UNL     1      31.829  51.290  41.478  1.00  0.00     0.143 A 
HETATM    2  N   UNL     1      30.753  52.031  41.618  1.00  0.00    -0.223 NA
HETATM    3  C   UNL     1      29.795  51.532  40.744  1.00  0.00     0.149 A 
HETATM    4  C   UNL     1      30.312  50.429  40.080  1.00  0.00     0.046 A 
HETATM    5  C   UNL     1      29.810  49.475  39.053  1.00  0.00     0.070 C 
HETATM    6  C   UNL     1      28.446  49.771  38.405  1.00  0.00     0.045 C 
HETATM    7  C   UNL     1      28.110  51.263  38.292  1.00  0.00     0.132 C 
HETATM    8  N   UNL     1      27.703  51.895  39.530  1.00  0.00    -0.355 N 
HETATM    9  C   UNL     1      28.467  52.144  40.641  1.00  0.00     0.272 C 
HETATM   10  O   UNL     1      27.998  52.875  41.513  1.00  0.00    -0.266 OA
HETATM   11  N   UNL     1      31.591  50.295  40.572  1.00  0.00    -0.341 N 
HETATM   12  H   UNL     1      32.256  49.587  40.303  1.00  0.00     0.167 HD
HETATM   13  H   UNL     1      26.812  52.373  39.557  1.00  0.00     0.162 HD
ENDROOT
BRANCH   1  14
HETATM   14  C   UNL     1      33.107  51.520  42.202  1.00  0.00     0.059 A 
HETATM   15  C   UNL     1      33.292  51.751  43.552  1.00  0.00     0.040 A 
HETATM   16  C   UNL     1      32.378  51.851  44.713  1.00  0.00     0.071 C 
HETATM   17  N   UNL     1      34.646  51.889  43.707  1.00  0.00    -0.281 N 
HETATM   18  H   UNL     1      35.163  52.066  44.563  1.00  0.00     0.189 HD
HETATM   19  N   UNL     1      35.344  51.765  42.573  1.00  0.00    -0.179 NA
HETATM   20  C   UNL     1      34.411  51.536  41.639  1.00  0.00     0.067 A 
HETATM   21  C   UNL     1      34.805  51.339  40.222  1.00  0.00     0.073 C 
ENDBRANCH   1  14
BRANCH   6  22
HETATM   22  C   UNL     1      27.279  48.946  38.952  1.00  0.00    -0.019 A 
HETATM   23  C   UNL     1      26.192  48.600  38.118  1.00  0.00     0.074 A 
HETATM   24  C   UNL     1      25.116  47.869  38.638  1.00  0.00     0.037 A 
HETATM   25  C   UNL     1      25.111  47.471  39.975  1.00  0.00     0.003 A 
HETATM   26  C   UNL     1      26.177  47.803  40.803  1.00  0.00     0.001 A 
HETATM   27  C   UNL     1      27.253  48.535  40.296  1.00  0.00     0.010 A 
BRANCH  23  28
HETATM   28  O   UNL     1      26.255  49.041  36.820  1.00  0.00    -0.355 OA
HETATM   29  C   UNL     1      25.645  48.220  35.831  1.00  0.00     0.210 C 
ENDBRANCH  23  28
ENDBRANCH   6  22
TORSDOF 3
ENDMDL
MODEL 6
REMARK VINA RESULT:      -8.0     12.296     15.087
REMARK  3 active torsions:
REMARK  status: ('A' for Active; 'I' for Inactive)
REMARK    1  A    between atoms: C_8  and  C_9 
REMARK    2  A    between atoms: C_14  and  C_15 
REMARK    3  A    between atoms: C_16  and  O_17 
ROOT
HETATM    1  C   UNL     1      36.401  51.848  43.421  1.00  0.00     0.143 A 
HETATM    2  N   UNL     1      36.295  51.564  42.143  1.00  0.00    -0.223 NA
HETATM    3  C   UNL     1      34.959  51.276  41.895  1.00  0.00     0.149 A 
HETATM    4  C   UNL     1      34.234  51.426  43.069  1.00  0.00     0.046 A 
HETATM    5  C   UNL     1      32.806  51.274  43.462  1.00  0.00     0.070 C 
HETATM    6  C   UNL     1      31.834  50.687  42.425  1.00  0.00     0.045 C 
HETATM    7  C   UNL     1      32.473  49.679  41.460  1.00  0.00     0.132 C 
HETATM    8  N   UNL     1      33.293  50.263  40.419  1.00  0.00    -0.355 N 
HETATM    9  C   UNL     1      34.496  50.906  40.554  1.00  0.00     0.272 C 
HETATM   10  O   UNL     1      35.139  51.150  39.534  1.00  0.00    -0.266 OA
HETATM   11  N   UNL     1      35.169  51.796  44.010  1.00  0.00    -0.341 N 
HETATM   12  H   UNL     1      34.984  51.989  44.981  1.00  0.00     0.167 HD
HETATM   13  H   UNL     1      33.075  50.046  39.455  1.00  0.00     0.162 HD
ENDROOT
BRANCH   1  14
HETATM   14  C   UNL     1      37.680  52.166  44.108  1.00  0.00     0.059 A 
HETATM   15  C   UNL     1      38.021  53.328  44.777  1.00  0.00     0.040 A 
HETATM   16  C   UNL     1      37.317  54.600  45.054  1.00  0.00     0.071 C 
HETATM   17  N   UNL     1      39.296  53.114  45.233  1.00  0.00    -0.281 N 
HETATM   18  H   UNL     1      39.881  53.744  45.771  1.00  0.00     0.189 HD
HETATM   19  N   UNL     1      39.799  51.916  44.914  1.00  0.00    -0.179 NA
HETATM   20  C   UNL     1      38.816  51.322  44.224  1.00  0.00     0.067 A 
HETATM   21  C   UNL     1      39.001  49.948  43.692  1.00  0.00     0.073 C 
ENDBRANCH   1  14
BRANCH   6  22
HETATM   22  C   UNL     1      30.959  51.715  41.705  1.00  0.00    -0.019 A 
HETATM   23  C   UNL     1      29.612  51.421  41.398  1.00  0.00     0.074 A 
HETATM   24  C   UNL     1      28.829  52.359  40.713  1.00  0.00     0.037 A 
HETATM   25  C   UNL     1      29.366  53.591  40.338  1.00  0.00     0.003 A 
HETATM   26  C   UNL     1      30.690  53.891  40.639  1.00  0.00     0.001 A 
HETATM   27  C   UNL     1      31.480  52.962  41.317  1.00  0.00     0.010 A 
BRANCH  23  28
HETATM   28  O   UNL     1      29.155  50.184  41.780  1.00  0.00    -0.355 OA
HETATM   29  C   UNL     1      27.788  49.892  41.511  1.00  0.00     0.210 C 
ENDBRANCH  23  28
ENDBRANCH   6  22
TORSDOF 3
ENDMDL
MODEL 7
REMARK VINA RESULT:      -7.8     16.512     18.148
REMARK  3 active torsions:
REMARK  status: ('A' for Active; 'I' for Inactive)
REMARK    1  A    between atoms: C_8  and  C_9 
REMARK    2  A    between atoms: C_14  and  C_15 
REMARK    3  A    between atoms: C_16  and  O_17 
ROOT
HETATM    1  C   UNL     1      38.969  46.456  65.095  1.00  0.00     0.143 A 
HETATM    2  N   UNL     1      38.050  45.685  65.632  1.00  0.00    -0.223 NA
HETATM    3  C   UNL     1      38.117  44.457  64.987  1.00  0.00     0.149 A 
HETATM    4  C   UNL     1      39.139  44.488  64.048  1.00  0.00     0.046 A 
HETATM    5  C   UNL     1      39.708  43.527  63.064  1.00  0.00     0.070 C 
HETATM    6  C   UNL     1      38.977  42.188  62.863  1.00  0.00     0.045 C 
HETATM    7  C   UNL     1      37.459  42.259  63.074  1.00  0.00     0.132 C 
HETATM    8  N   UNL     1      37.035  42.329  64.457  1.00  0.00    -0.355 N 
HETATM    9  C   UNL     1      37.212  43.359  65.343  1.00  0.00     0.272 C 
HETATM   10  O   UNL     1      36.601  43.316  66.410  1.00  0.00    -0.266 OA
HETATM   11  N   UNL     1      39.663  45.758  64.148  1.00  0.00    -0.341 N 
HETATM   12  H   UNL     1      40.428  46.125  63.605  1.00  0.00     0.167 HD
HETATM   13  H   UNL     1      36.384  41.632  64.797  1.00  0.00     0.162 HD
ENDROOT
BRANCH   1  14
HETATM   14  C   UNL     1      39.197  47.876  65.470  1.00  0.00     0.059 A 
HETATM   15  C   UNL     1      40.296  48.423  66.107  1.00  0.00     0.040 A 
HETATM   16  C   UNL     1      41.568  47.868  66.621  1.00  0.00     0.071 C 
HETATM   17  N   UNL     1      40.018  49.761  66.209  1.00  0.00    -0.281 N 
HETATM   18  H   UNL     1      40.594  50.489  66.619  1.00  0.00     0.189 HD
HETATM   19  N   UNL     1      38.837  50.118  65.693  1.00  0.00    -0.179 NA
HETATM   20  C   UNL     1      38.322  48.969  65.233  1.00  0.00     0.067 A 
HETATM   21  C   UNL     1      36.991  48.958  64.574  1.00  0.00     0.073 C 
ENDBRANCH   1  14
BRANCH   6  22
HETATM   22  C   UNL     1      39.613  40.993  63.576  1.00  0.00    -0.019 A 
HETATM   23  C   UNL     1      39.741  39.749  62.916  1.00  0.00     0.074 A 
HETATM   24  C   UNL     1      40.298  38.654  63.588  1.00  0.00     0.037 A 
HETATM   25  C   UNL     1      40.739  38.782  64.905  1.00  0.00     0.003 A 
HETATM   26  C   UNL     1      40.623  40.002  65.562  1.00  0.00     0.001 A 
HETATM   27  C   UNL     1      40.064  41.098  64.903  1.00  0.00     0.010 A 
BRANCH  23  28
HETATM   28  O   UNL     1      39.268  39.691  61.629  1.00  0.00    -0.355 OA
HETATM   29  C   UNL     1      39.577  38.519  60.882  1.00  0.00     0.210 C 
ENDBRANCH  23  28
ENDBRANCH   6  22
TORSDOF 3
ENDMDL
MODEL 8
REMARK VINA RESULT:      -7.6     11.637     13.853
REMARK  3 active torsions:
REMARK  status: ('A' for Active; 'I' for Inactive)
REMARK    1  A    between atoms: C_8  and  C_9 
REMARK    2  A    between atoms: C_14  and  C_15 
REMARK    3  A    between atoms: C_16  and  O_17 
ROOT
HETATM    1  C   UNL     1      32.093  50.800  41.546  1.00  0.00     0.143 A 
HETATM    2  N   UNL     1      30.898  51.318  41.721  1.00  0.00    -0.223 NA
HETATM    3  C   UNL     1      30.022  50.611  40.907  1.00  0.00     0.149 A 
HETATM    4  C   UNL     1      30.719  49.611  40.244  1.00  0.00     0.046 A 
HETATM    5  C   UNL     1      30.372  48.544  39.265  1.00  0.00     0.070 C 
HETATM    6  C   UNL     1      28.951  48.542  38.679  1.00  0.00     0.045 C 
HETATM    7  C   UNL     1      28.319  49.934  38.548  1.00  0.00     0.132 C 
HETATM    8  N   UNL     1      27.849  50.512  39.790  1.00  0.00    -0.355 N 
HETATM    9  C   UNL     1      28.595  50.944  40.856  1.00  0.00     0.272 C 
HETATM   10  O   UNL     1      28.028  51.595  41.733  1.00  0.00    -0.266 OA
HETATM   11  N   UNL     1      32.019  49.750  40.676  1.00  0.00    -0.341 N 
HETATM   12  H   UNL     1      32.800  49.179  40.391  1.00  0.00     0.167 HD
HETATM   13  H   UNL     1      26.882  50.805  39.850  1.00  0.00     0.162 HD
ENDROOT
BRANCH   1  14
HETATM   14  C   UNL     1      33.330  51.303  42.200  1.00  0.00     0.059 A 
HETATM   15  C   UNL     1      34.585  51.462  41.640  1.00  0.00     0.040 A 
HETATM   16  C   UNL     1      35.148  51.220  40.293  1.00  0.00     0.071 C 
HETATM   17  N   UNL     1      35.364  51.960  42.651  1.00  0.00    -0.281 N 
HETATM   18  H   UNL     1      36.348  52.206  42.619  1.00  0.00     0.189 HD
HETATM   19  N   UNL     1      34.717  52.135  43.809  1.00  0.00    -0.179 NA
HETATM   20  C   UNL     1      33.465  51.736  43.545  1.00  0.00     0.067 A 
HETATM   21  C   UNL     1      32.427  51.785  44.605  1.00  0.00     0.073 C 
ENDBRANCH   1  14
BRANCH   6  22
HETATM   22  C   UNL     1      27.997  47.521  39.302  1.00  0.00    -0.019 A 
HETATM   23  C   UNL     1      27.033  46.861  38.506  1.00  0.00     0.074 A 
HETATM   24  C   UNL     1      26.146  45.949  39.093  1.00  0.00     0.037 A 
HETATM   25  C   UNL     1      26.211  45.679  40.460  1.00  0.00     0.003 A 
HETATM   26  C   UNL     1      27.158  46.320  41.251  1.00  0.00     0.001 A 
HETATM   27  C   UNL     1      28.043  47.234  40.677  1.00  0.00     0.010 A 
BRANCH  23  28
HETATM   28  O   UNL     1      27.014  47.189  37.174  1.00  0.00    -0.355 OA
HETATM   29  C   UNL     1      25.834  47.816  36.683  1.00  0.00     0.210 C 
ENDBRANCH  23  28
ENDBRANCH   6  22
TORSDOF 3
ENDMDL
MODEL 9
REMARK VINA RESULT:      -7.6      3.309      7.432
REMARK  3 active torsions:
REMARK  status: ('A' for Active; 'I' for Inactive)
REMARK    1  A    between atoms: C_8  and  C_9 
REMARK    2  A    between atoms: C_14  and  C_15 
REMARK    3  A    between atoms: C_16  and  O_17 
ROOT
HETATM    1  C   UNL     1      26.884  45.400  53.249  1.00  0.00     0.143 A 
HETATM    2  N   UNL     1      27.417  45.490  52.052  1.00  0.00    -0.223 NA
HETATM    3  C   UNL     1      26.438  45.122  51.139  1.00  0.00     0.149 A 
HETATM    4  C   UNL     1      25.263  44.832  51.819  1.00  0.00     0.046 A 
HETATM    5  C   UNL     1      23.893  44.396  51.434  1.00  0.00     0.070 C 
HETATM    6  C   UNL     1      23.645  44.021  49.964  1.00  0.00     0.045 C 
HETATM    7  C   UNL     1      24.865  43.425  49.250  1.00  0.00     0.132 C 
HETATM    8  N   UNL     1      25.883  44.384  48.874  1.00  0.00    -0.355 N 
HETATM    9  C   UNL     1      26.709  45.104  49.697  1.00  0.00     0.272 C 
HETATM   10  O   UNL     1      27.648  45.713  49.187  1.00  0.00    -0.266 OA
HETATM   11  N   UNL     1      25.574  45.026  53.146  1.00  0.00    -0.341 N 
HETATM   12  H   UNL     1      24.945  44.904  53.924  1.00  0.00     0.167 HD
HETATM   13  H   UNL     1      26.166  44.431  47.903  1.00  0.00     0.162 HD
ENDROOT
BRANCH   1  14
HETATM   14  C   UNL     1      27.617  45.661  54.517  1.00  0.00     0.059 A 
HETATM   15  C   UNL     1      28.613  44.898  55.097  1.00  0.00     0.040 A 
HETATM   16  C   UNL     1      29.289  43.634  54.726  1.00  0.00     0.071 C 
HETATM   17  N   UNL     1      28.957  45.573  56.239  1.00  0.00    -0.281 N 
HETATM   18  H   UNL     1      29.659  45.320  56.928  1.00  0.00     0.189 HD
HETATM   19  N   UNL     1      28.269  46.702  56.439  1.00  0.00    -0.179 NA
HETATM   20  C   UNL     1      27.442  46.770  55.387  1.00  0.00     0.067 A 
HETATM   21  C   UNL     1      26.500  47.909  55.249  1.00  0.00     0.073 C 
ENDBRANCH   1  14
BRANCH   6  22
HETATM   22  C   UNL     1      22.945  45.097  49.132  1.00  0.00    -0.019 A 
HETATM   23  C   UNL     1      21.953  44.743  48.189  1.00  0.00     0.074 A 
HETATM   24  C   UNL     1      21.340  45.734  47.412  1.00  0.00     0.037 A 
HETATM   25  C   UNL     1      21.694  47.075  47.567  1.00  0.00     0.003 A 
HETATM   26  C   UNL     1      22.665  47.434  48.495  1.00  0.00     0.001 A 
HETATM   27  C   UNL     1      23.286  46.453  49.271  1.00  0.00     0.010 A 
BRANCH  23  28
HETATM   28  O   UNL     1      21.670  43.405  48.075  1.00  0.00    -0.355 OA
HETATM   29  C   UNL     1      21.974  42.786  46.830  1.00  0.00     0.210 C 
ENDBRANCH  23  28
ENDBRANCH   6  22
TORSDOF 3
ENDMDL
MODEL 10
REMARK VINA RESULT:      -7.5      3.435      7.126
REMARK  3 active torsions:
REMARK  status: ('A' for Active; 'I' for Inactive)
REMARK    1  A    between atoms: C_8  and  C_9 
REMARK    2  A    between atoms: C_14  and  C_15 
REMARK    3  A    between atoms: C_16  and  O_17 
ROOT
HETATM    1  C   UNL     1      28.627  44.793  55.289  1.00  0.00     0.143 A 
HETATM    2  N   UNL     1      27.316  44.718  55.329  1.00  0.00    -0.223 NA
HETATM    3  C   UNL     1      26.875  44.536  54.025  1.00  0.00     0.149 A 
HETATM    4  C   UNL     1      27.971  44.467  53.177  1.00  0.00     0.046 A 
HETATM    5  C   UNL     1      28.173  44.285  51.713  1.00  0.00     0.070 C 
HETATM    6  C   UNL     1      26.928  44.297  50.810  1.00  0.00     0.045 C 
HETATM    7  C   UNL     1      25.786  45.185  51.320  1.00  0.00     0.132 C 
HETATM    8  N   UNL     1      25.028  44.634  52.425  1.00  0.00    -0.355 N 
HETATM    9  C   UNL     1      25.447  44.422  53.713  1.00  0.00     0.272 C 
HETATM   10  O   UNL     1      24.599  44.139  54.558  1.00  0.00    -0.266 OA
HETATM   11  N   UNL     1      29.061  44.622  54.005  1.00  0.00    -0.341 N 
HETATM   12  H   UNL     1      30.027  44.622  53.716  1.00  0.00     0.167 HD
HETATM   13  H   UNL     1      24.026  44.541  52.323  1.00  0.00     0.162 HD
ENDROOT
BRANCH   1  14
HETATM   14  C   UNL     1      29.492  45.036  56.474  1.00  0.00     0.059 A 
HETATM   15  C   UNL     1      29.289  45.932  57.507  1.00  0.00     0.040 A 
HETATM   16  C   UNL     1      28.229  46.918  57.820  1.00  0.00     0.071 C 
HETATM   17  N   UNL     1      30.360  45.760  58.343  1.00  0.00    -0.281 N 
HETATM   18  H   UNL     1      30.559  46.243  59.213  1.00  0.00     0.189 HD
HETATM   19  N   UNL     1      31.231  44.829  57.935  1.00  0.00    -0.179 NA
HETATM   20  C   UNL     1      30.708  44.374  56.788  1.00  0.00     0.067 A 
HETATM   21  C   UNL     1      31.402  43.308  56.023  1.00  0.00     0.073 C 
ENDBRANCH   1  14
BRANCH   6  22
HETATM   22  C   UNL     1      26.443  42.916  50.361  1.00  0.00    -0.019 A 
HETATM   23  C   UNL     1      25.543  42.789  49.280  1.00  0.00     0.074 A 
HETATM   24  C   UNL     1      25.083  41.523  48.897  1.00  0.00     0.037 A 
HETATM   25  C   UNL     1      25.514  40.380  49.570  1.00  0.00     0.003 A 
HETATM   26  C   UNL     1      26.404  40.494  50.633  1.00  0.00     0.001 A 
HETATM   27  C   UNL     1      26.864  41.751  51.026  1.00  0.00     0.010 A 
BRANCH  23  28
HETATM   28  O   UNL     1      25.145  43.956  48.676  1.00  0.00    -0.355 OA
HETATM   29  C   UNL     1      23.797  44.020  48.224  1.00  0.00     0.210 C 
ENDBRANCH  23  28
ENDBRANCH   6  22
TORSDOF 3
ENDMDL
