MODEL 1
REMARK VINA RESULT:      -9.9      0.000      0.000
REMARK  8 active torsions:
REMARK  status: ('A' for Active; 'I' for Inactive)
REMARK    1  A    between atoms: C_6  and  N_7 
REMARK       I    between atoms: N_7  and  C_8 
REMARK    2  A    between atoms: C_8  and  C_9 
REMARK    3  A    between atoms: C_10  and  N_11 
REMARK       I    between atoms: N_11  and  C_12 
REMARK    4  A    between atoms: C_12  and  C_13 
REMARK    5  A    between atoms: C_13  and  N_14 
REMARK    6  A    between atoms: N_14  and  C_17 
REMARK    7  A    between atoms: C_17  and  C_18 
REMARK    8  A    between atoms: C_30  and  C_31 
ROOT
HETATM    1  C   UNL     1      25.375  43.146  50.631  1.00  0.00     0.073 A 
HETATM    2  C   UNL     1      24.665  43.417  49.461  1.00  0.00     0.093 A 
HETATM    3  S   UNL     1      24.735  42.172  48.323  1.00  0.00    -0.075 SA
HETATM    4  C   UNL     1      25.822  41.284  49.277  1.00  0.00    -0.008 A 
HETATM    5  C   UNL     1      26.119  41.907  50.478  1.00  0.00    -0.026 A 
HETATM    6  C   UNL     1      27.121  41.288  51.409  1.00  0.00     0.041 C 
HETATM    7  C   UNL     1      28.031  40.271  50.701  1.00  0.00     0.010 C 
HETATM    8  C   UNL     1      27.216  39.251  49.868  1.00  0.00    -0.002 C 
HETATM    9  C   UNL     1      26.418  40.001  48.766  1.00  0.00     0.052 C 
ENDROOT
BRANCH   2  10
HETATM   10  N   UNL     1      24.000  44.605  49.192  1.00  0.00    -0.319 N 
HETATM   11  C   UNL     1      22.693  44.775  48.808  1.00  0.00     0.248 C 
HETATM   12  O   UNL     1      21.775  43.959  48.808  1.00  0.00    -0.271 OA
HETATM   13  H   UNL     1      24.597  45.424  49.332  1.00  0.00     0.169 HD
BRANCH  11  14
HETATM   14  C   UNL     1      22.379  46.209  48.382  1.00  0.00     0.335 C 
BRANCH  14  15
HETATM   15  N   UNL     1      22.871  47.196  49.408  1.00  0.00    -0.063 N 
HETATM   16  H   UNL     1      22.217  47.256  50.196  1.00  0.00     0.278 HD
HETATM   17  H   UNL     1      23.753  46.811  49.786  1.00  0.00     0.278 HD
BRANCH  15  18
HETATM   18  C   UNL     1      23.163  48.557  48.871  1.00  0.00     0.272 C 
BRANCH  18  19
HETATM   19  C   UNL     1      24.628  48.845  48.886  1.00  0.00    -0.015 A 
HETATM   20  C   UNL     1      25.166  49.859  48.101  1.00  0.00     0.125 A 
HETATM   21  N   UNL     1      26.483  50.137  48.038  1.00  0.00    -0.273 NA
HETATM   22  C   UNL     1      27.314  49.392  48.797  1.00  0.00     0.116 A 
HETATM   23  C   UNL     1      26.881  48.362  49.613  1.00  0.00     0.020 A 
HETATM   24  C   UNL     1      25.518  48.082  49.653  1.00  0.00     0.012 A 
ENDBRANCH  18  19
ENDBRANCH  15  18
ENDBRANCH  14  15
ENDBRANCH  11  14
ENDBRANCH   2  10
BRANCH   1  25
HETATM   25  C   UNL     1      25.305  44.112  51.754  1.00  0.00     0.259 C 
HETATM   26  N   UNL     1      26.486  44.722  52.121  1.00  0.00    -0.322 N 
HETATM   27  H   UNL     1      27.234  44.709  51.451  1.00  0.00     0.169 HD
HETATM   28  O   UNL     1      24.219  44.310  52.303  1.00  0.00    -0.267 OA
BRANCH  26  29
HETATM   29  C   UNL     1      26.644  45.658  53.169  1.00  0.00     0.041 A 
HETATM   30  C   UNL     1      27.549  45.535  54.238  1.00  0.00    -0.035 A 
HETATM   31  C   UNL     1      27.529  46.509  55.258  1.00  0.00     0.015 A 
HETATM   32  C   UNL     1      28.600  44.466  54.347  1.00  0.00     0.050 C 
HETATM   33  C   UNL     1      26.689  47.626  55.192  1.00  0.00    -0.061 A 
HETATM   34  C   UNL     1      26.660  48.627  56.309  1.00  0.00     0.048 C 
HETATM   35  C   UNL     1      25.849  47.771  54.090  1.00  0.00     0.009 A 
HETATM   36  C   UNL     1      25.839  46.804  53.082  1.00  0.00     0.030 A 
ENDBRANCH  26  29
ENDBRANCH   1  25
BRANCH   8  37
HETATM   37  C   UNL     1      28.084  38.060  49.311  1.00  0.00    -0.047 C 
HETATM   38  C   UNL     1      27.239  36.768  49.252  1.00  0.00     0.015 C 
HETATM   39  C   UNL     1      28.553  38.365  47.872  1.00  0.00     0.015 C 
HETATM   40  C   UNL     1      29.327  37.775  50.175  1.00  0.00     0.015 C 
ENDBRANCH   8  37
TORSDOF 8
ENDMDL
MODEL 2
REMARK VINA RESULT:      -9.7      2.373      6.412
REMARK  8 active torsions:
REMARK  status: ('A' for Active; 'I' for Inactive)
REMARK    1  A    between atoms: C_6  and  N_7 
REMARK       I    between atoms: N_7  and  C_8 
REMARK    2  A    between atoms: C_8  and  C_9 
REMARK    3  A    between atoms: C_10  and  N_11 
REMARK       I    between atoms: N_11  and  C_12 
REMARK    4  A    between atoms: C_12  and  C_13 
REMARK    5  A    between atoms: C_13  and  N_14 
REMARK    6  A    between atoms: N_14  and  C_17 
REMARK    7  A    between atoms: C_17  and  C_18 
REMARK    8  A    between atoms: C_30  and  C_31 
ROOT
HETATM    1  C   UNL     1      26.369  43.290  51.243  1.00  0.00     0.073 A 
HETATM    2  C   UNL     1      27.365  43.659  52.147  1.00  0.00     0.093 A 
HETATM    3  S   UNL     1      28.673  42.593  52.187  1.00  0.00    -0.075 SA
HETATM    4  C   UNL     1      27.910  41.527  51.110  1.00  0.00    -0.008 A 
HETATM    5  C   UNL     1      26.671  41.981  50.688  1.00  0.00    -0.026 A 
HETATM    6  C   UNL     1      25.831  41.122  49.787  1.00  0.00     0.041 C 
HETATM    7  C   UNL     1      26.259  39.646  49.816  1.00  0.00     0.010 C 
HETATM    8  C   UNL     1      27.787  39.485  49.612  1.00  0.00    -0.002 C 
HETATM    9  C   UNL     1      28.542  40.207  50.762  1.00  0.00     0.052 C 
ENDROOT
BRANCH   2  10
HETATM   10  N   UNL     1      27.302  44.757  52.994  1.00  0.00    -0.319 N 
HETATM   11  C   UNL     1      26.799  44.814  54.270  1.00  0.00     0.248 C 
HETATM   12  O   UNL     1      26.481  43.892  55.017  1.00  0.00    -0.271 OA
HETATM   13  H   UNL     1      27.713  45.595  52.574  1.00  0.00     0.169 HD
BRANCH  11  14
HETATM   14  C   UNL     1      26.691  46.241  54.806  1.00  0.00     0.335 C 
BRANCH  14  15
HETATM   15  N   UNL     1      27.728  46.499  55.867  1.00  0.00    -0.063 N 
HETATM   16  H   UNL     1      27.539  47.384  56.352  1.00  0.00     0.278 HD
HETATM   17  H   UNL     1      27.620  45.749  56.571  1.00  0.00     0.278 HD
BRANCH  15  18
HETATM   18  C   UNL     1      29.138  46.465  55.381  1.00  0.00     0.272 C 
BRANCH  18  19
HETATM   19  C   UNL     1      29.934  45.420  56.092  1.00  0.00    -0.015 A 
HETATM   20  C   UNL     1      30.380  45.622  57.394  1.00  0.00     0.125 A 
HETATM   21  N   UNL     1      31.138  44.737  58.070  1.00  0.00    -0.273 NA
HETATM   22  C   UNL     1      31.462  43.587  57.442  1.00  0.00     0.116 A 
HETATM   23  C   UNL     1      31.068  43.288  56.150  1.00  0.00     0.020 A 
HETATM   24  C   UNL     1      30.297  44.222  55.464  1.00  0.00     0.012 A 
ENDBRANCH  18  19
ENDBRANCH  15  18
ENDBRANCH  14  15
ENDBRANCH  11  14
ENDBRANCH   2  10
BRANCH   1  25
HETATM   25  C   UNL     1      25.216  44.199  51.033  1.00  0.00     0.259 C 
HETATM   26  N   UNL     1      25.237  44.972  49.891  1.00  0.00    -0.322 N 
HETATM   27  H   UNL     1      25.848  44.677  49.151  1.00  0.00     0.169 HD
HETATM   28  O   UNL     1      24.319  44.228  51.878  1.00  0.00    -0.267 OA
BRANCH  26  29
HETATM   29  C   UNL     1      24.250  45.910  49.508  1.00  0.00     0.041 A 
HETATM   30  C   UNL     1      23.065  45.605  48.816  1.00  0.00    -0.035 A 
HETATM   31  C   UNL     1      22.217  46.662  48.425  1.00  0.00     0.015 A 
HETATM   32  C   UNL     1      22.589  44.211  48.513  1.00  0.00     0.050 C 
HETATM   33  C   UNL     1      22.488  47.989  48.774  1.00  0.00    -0.061 A 
HETATM   34  C   UNL     1      21.591  49.099  48.313  1.00  0.00     0.048 C 
HETATM   35  C   UNL     1      23.630  48.267  49.523  1.00  0.00     0.009 A 
HETATM   36  C   UNL     1      24.492  47.235  49.900  1.00  0.00     0.030 A 
ENDBRANCH  26  29
ENDBRANCH   1  25
BRANCH   8  37
HETATM   37  C   UNL     1      28.238  37.990  49.409  1.00  0.00    -0.047 C 
HETATM   38  C   UNL     1      27.056  37.035  49.691  1.00  0.00     0.015 C 
HETATM   39  C   UNL     1      28.676  37.755  47.947  1.00  0.00     0.015 C 
HETATM   40  C   UNL     1      29.402  37.588  50.334  1.00  0.00     0.015 C 
ENDBRANCH   8  37
TORSDOF 8
ENDMDL
MODEL 3
REMARK VINA RESULT:      -9.5      1.948      3.463
REMARK  8 active torsions:
REMARK  status: ('A' for Active; 'I' for Inactive)
REMARK    1  A    between atoms: C_6  and  N_7 
REMARK       I    between atoms: N_7  and  C_8 
REMARK    2  A    between atoms: C_8  and  C_9 
REMARK    3  A    between atoms: C_10  and  N_11 
REMARK       I    between atoms: N_11  and  C_12 
REMARK    4  A    between atoms: C_12  and  C_13 
REMARK    5  A    between atoms: C_13  and  N_14 
REMARK    6  A    between atoms: N_14  and  C_17 
REMARK    7  A    between atoms: C_17  and  C_18 
REMARK    8  A    between atoms: C_30  and  C_31 
ROOT
HETATM    1  C   UNL     1      27.408  42.499  51.685  1.00  0.00     0.073 A 
HETATM    2  C   UNL     1      26.761  43.492  50.950  1.00  0.00     0.093 A 
HETATM    3  S   UNL     1      26.254  42.984  49.422  1.00  0.00    -0.075 SA
HETATM    4  C   UNL     1      26.994  41.469  49.619  1.00  0.00    -0.008 A 
HETATM    5  C   UNL     1      27.606  41.323  50.853  1.00  0.00    -0.026 A 
HETATM    6  C   UNL     1      28.369  40.067  51.162  1.00  0.00     0.041 C 
HETATM    7  C   UNL     1      28.757  39.289  49.895  1.00  0.00     0.010 C 
HETATM    8  C   UNL     1      27.548  39.087  48.948  1.00  0.00    -0.002 C 
HETATM    9  C   UNL     1      27.009  40.471  48.493  1.00  0.00     0.052 C 
ENDROOT
BRANCH   2  10
HETATM   10  N   UNL     1      26.582  44.802  51.371  1.00  0.00    -0.319 N 
HETATM   11  C   UNL     1      25.510  45.336  52.044  1.00  0.00     0.248 C 
HETATM   12  O   UNL     1      24.578  44.757  52.594  1.00  0.00    -0.271 OA
HETATM   13  H   UNL     1      27.384  45.395  51.146  1.00  0.00     0.169 HD
BRANCH  11  14
HETATM   14  C   UNL     1      25.565  46.861  52.137  1.00  0.00     0.335 C 
BRANCH  14  15
HETATM   15  N   UNL     1      24.613  47.496  51.157  1.00  0.00    -0.063 N 
HETATM   16  H   UNL     1      23.793  46.896  51.009  1.00  0.00     0.278 HD
HETATM   17  H   UNL     1      24.267  48.362  51.604  1.00  0.00     0.278 HD
BRANCH  15  18
HETATM   18  C   UNL     1      25.225  47.872  49.851  1.00  0.00     0.272 C 
BRANCH  18  19
HETATM   19  C   UNL     1      24.295  48.710  49.035  1.00  0.00    -0.015 A 
HETATM   20  C   UNL     1      24.783  49.664  48.148  1.00  0.00     0.125 A 
HETATM   21  N   UNL     1      23.995  50.478  47.419  1.00  0.00    -0.273 NA
HETATM   22  C   UNL     1      22.659  50.339  47.555  1.00  0.00     0.116 A 
HETATM   23  C   UNL     1      22.073  49.420  48.407  1.00  0.00     0.020 A 
HETATM   24  C   UNL     1      22.905  48.597  49.162  1.00  0.00     0.012 A 
ENDBRANCH  18  19
ENDBRANCH  15  18
ENDBRANCH  14  15
ENDBRANCH  11  14
ENDBRANCH   2  10
BRANCH   1  25
HETATM   25  C   UNL     1      27.807  42.784  53.085  1.00  0.00     0.259 C 
HETATM   26  N   UNL     1      28.926  43.570  53.262  1.00  0.00    -0.322 N 
HETATM   27  H   UNL     1      29.222  44.127  52.480  1.00  0.00     0.169 HD
HETATM   28  O   UNL     1      27.140  42.304  54.004  1.00  0.00    -0.267 OA
BRANCH  26  29
HETATM   29  C   UNL     1      29.484  43.948  54.505  1.00  0.00     0.041 A 
HETATM   30  C   UNL     1      29.141  45.101  55.232  1.00  0.00    -0.035 A 
HETATM   31  C   UNL     1      29.849  45.391  56.417  1.00  0.00     0.015 A 
HETATM   32  C   UNL     1      28.014  46.030  54.875  1.00  0.00     0.050 C 
HETATM   33  C   UNL     1      30.824  44.525  56.922  1.00  0.00    -0.061 A 
HETATM   34  C   UNL     1      31.590  44.875  58.163  1.00  0.00     0.048 C 
HETATM   35  C   UNL     1      31.102  43.349  56.227  1.00  0.00     0.009 A 
HETATM   36  C   UNL     1      30.426  43.057  55.040  1.00  0.00     0.030 A 
ENDBRANCH  26  29
ENDBRANCH   1  25
BRANCH   8  37
HETATM   37  C   UNL     1      27.845  38.107  47.752  1.00  0.00    -0.047 C 
HETATM   38  C   UNL     1      27.458  38.771  46.411  1.00  0.00     0.015 C 
HETATM   39  C   UNL     1      29.353  37.785  47.683  1.00  0.00     0.015 C 
HETATM   40  C   UNL     1      27.071  36.779  47.864  1.00  0.00     0.015 C 
ENDBRANCH   8  37
TORSDOF 8
ENDMDL
MODEL 4
REMARK VINA RESULT:      -9.4      1.303      1.554
REMARK  8 active torsions:
REMARK  status: ('A' for Active; 'I' for Inactive)
REMARK    1  A    between atoms: C_6  and  N_7 
REMARK       I    between atoms: N_7  and  C_8 
REMARK    2  A    between atoms: C_8  and  C_9 
REMARK    3  A    between atoms: C_10  and  N_11 
REMARK       I    between atoms: N_11  and  C_12 
REMARK    4  A    between atoms: C_12  and  C_13 
REMARK    5  A    between atoms: C_13  and  N_14 
REMARK    6  A    between atoms: N_14  and  C_17 
REMARK    7  A    between atoms: C_17  and  C_18 
REMARK    8  A    between atoms: C_30  and  C_31 
ROOT
HETATM    1  C   UNL     1      25.822  43.039  49.245  1.00  0.00     0.073 A 
HETATM    2  C   UNL     1      24.637  43.296  48.555  1.00  0.00     0.093 A 
HETATM    3  S   UNL     1      24.058  41.970  47.684  1.00  0.00    -0.075 SA
HETATM    4  C   UNL     1      25.427  41.046  48.074  1.00  0.00    -0.008 A 
HETATM    5  C   UNL     1      26.320  41.721  48.890  1.00  0.00    -0.026 A 
HETATM    6  C   UNL     1      27.619  41.070  49.270  1.00  0.00     0.041 C 
HETATM    7  C   UNL     1      27.994  39.913  48.329  1.00  0.00     0.010 C 
HETATM    8  C   UNL     1      26.817  38.926  48.132  1.00  0.00    -0.002 C 
HETATM    9  C   UNL     1      25.616  39.672  47.488  1.00  0.00     0.052 C 
ENDROOT
BRANCH   2  10
HETATM   10  N   UNL     1      23.992  44.524  48.513  1.00  0.00    -0.319 N 
HETATM   11  C   UNL     1      22.689  44.808  48.839  1.00  0.00     0.248 C 
HETATM   12  O   UNL     1      21.867  44.104  49.420  1.00  0.00    -0.271 OA
HETATM   13  H   UNL     1      24.615  45.279  48.216  1.00  0.00     0.169 HD
BRANCH  11  14
HETATM   14  C   UNL     1      22.273  46.226  48.451  1.00  0.00     0.335 C 
BRANCH  14  15
HETATM   15  N   UNL     1      22.855  47.239  49.402  1.00  0.00    -0.063 N 
HETATM   16  H   UNL     1      22.252  47.352  50.225  1.00  0.00     0.278 HD
HETATM   17  H   UNL     1      23.746  46.841  49.744  1.00  0.00     0.278 HD
BRANCH  15  18
HETATM   18  C   UNL     1      23.154  48.566  48.792  1.00  0.00     0.272 C 
BRANCH  18  19
HETATM   19  C   UNL     1      24.617  48.866  48.830  1.00  0.00    -0.015 A 
HETATM   20  C   UNL     1      25.163  49.869  48.038  1.00  0.00     0.125 A 
HETATM   21  N   UNL     1      26.479  50.157  47.996  1.00  0.00    -0.273 NA
HETATM   22  C   UNL     1      27.300  49.431  48.785  1.00  0.00     0.116 A 
HETATM   23  C   UNL     1      26.858  48.414  49.612  1.00  0.00     0.020 A 
HETATM   24  C   UNL     1      25.496  48.124  49.629  1.00  0.00     0.012 A 
ENDBRANCH  18  19
ENDBRANCH  15  18
ENDBRANCH  14  15
ENDBRANCH  11  14
ENDBRANCH   2  10
BRANCH   1  25
HETATM   25  C   UNL     1      26.377  44.087  50.135  1.00  0.00     0.259 C 
HETATM   26  N   UNL     1      25.982  44.052  51.455  1.00  0.00    -0.322 N 
HETATM   27  H   UNL     1      25.597  43.188  51.794  1.00  0.00     0.169 HD
HETATM   28  O   UNL     1      27.141  44.930  49.658  1.00  0.00    -0.267 OA
BRANCH  26  29
HETATM   29  C   UNL     1      26.378  44.962  52.462  1.00  0.00     0.041 A 
HETATM   30  C   UNL     1      27.453  44.773  53.349  1.00  0.00    -0.035 A 
HETATM   31  C   UNL     1      27.674  45.731  54.361  1.00  0.00     0.015 A 
HETATM   32  C   UNL     1      28.445  43.647  53.259  1.00  0.00     0.050 C 
HETATM   33  C   UNL     1      26.900  46.892  54.454  1.00  0.00    -0.061 A 
HETATM   34  C   UNL     1      27.129  47.876  55.564  1.00  0.00     0.048 C 
HETATM   35  C   UNL     1      25.883  47.100  53.524  1.00  0.00     0.009 A 
HETATM   36  C   UNL     1      25.638  46.151  52.529  1.00  0.00     0.030 A 
ENDBRANCH  26  29
ENDBRANCH   1  25
BRANCH   8  37
HETATM   37  C   UNL     1      27.222  37.613  47.362  1.00  0.00    -0.047 C 
HETATM   38  C   UNL     1      26.598  37.611  45.948  1.00  0.00     0.015 C 
HETATM   39  C   UNL     1      28.755  37.546  47.185  1.00  0.00     0.015 C 
HETATM   40  C   UNL     1      26.763  36.333  48.085  1.00  0.00     0.015 C 
ENDBRANCH   8  37
TORSDOF 8
ENDMDL
MODEL 5
REMARK VINA RESULT:      -9.4      1.999      3.382
REMARK  8 active torsions:
REMARK  status: ('A' for Active; 'I' for Inactive)
REMARK    1  A    between atoms: C_6  and  N_7 
REMARK       I    between atoms: N_7  and  C_8 
REMARK    2  A    between atoms: C_8  and  C_9 
REMARK    3  A    between atoms: C_10  and  N_11 
REMARK       I    between atoms: N_11  and  C_12 
REMARK    4  A    between atoms: C_12  and  C_13 
REMARK    5  A    between atoms: C_13  and  N_14 
REMARK    6  A    between atoms: N_14  and  C_17 
REMARK    7  A    between atoms: C_17  and  C_18 
REMARK    8  A    between atoms: C_30  and  C_31 
ROOT
HETATM    1  C   UNL     1      26.546  42.991  51.458  1.00  0.00     0.073 A 
HETATM    2  C   UNL     1      25.753  43.722  50.573  1.00  0.00     0.093 A 
HETATM    3  S   UNL     1      25.384  42.893  49.150  1.00  0.00    -0.075 SA
HETATM    4  C   UNL     1      26.374  41.586  49.588  1.00  0.00    -0.008 A 
HETATM    5  C   UNL     1      26.969  41.751  50.827  1.00  0.00    -0.026 A 
HETATM    6  C   UNL     1      27.934  40.718  51.334  1.00  0.00     0.041 C 
HETATM    7  C   UNL     1      28.486  39.829  50.208  1.00  0.00     0.010 C 
HETATM    8  C   UNL     1      27.357  39.265  49.311  1.00  0.00    -0.002 C 
HETATM    9  C   UNL     1      26.594  40.439  48.638  1.00  0.00     0.052 C 
ENDROOT
BRANCH   2  10
HETATM   10  N   UNL     1      25.334  45.029  50.776  1.00  0.00    -0.319 N 
HETATM   11  C   UNL     1      25.881  46.182  50.270  1.00  0.00     0.248 C 
HETATM   12  O   UNL     1      26.719  46.314  49.382  1.00  0.00    -0.271 OA
HETATM   13  H   UNL     1      24.499  45.081  51.366  1.00  0.00     0.169 HD
BRANCH  11  14
HETATM   14  C   UNL     1      25.290  47.446  50.894  1.00  0.00     0.335 C 
BRANCH  14  15
HETATM   15  N   UNL     1      23.924  47.739  50.330  1.00  0.00    -0.063 N 
HETATM   16  H   UNL     1      23.441  46.868  50.079  1.00  0.00     0.278 HD
HETATM   17  H   UNL     1      23.376  48.168  51.094  1.00  0.00     0.278 HD
BRANCH  15  18
HETATM   18  C   UNL     1      23.917  48.686  49.178  1.00  0.00     0.272 C 
BRANCH  18  19
HETATM   19  C   UNL     1      22.574  49.313  48.997  1.00  0.00    -0.015 A 
HETATM   20  C   UNL     1      21.416  48.542  49.013  1.00  0.00     0.125 A 
HETATM   21  N   UNL     1      20.181  49.044  48.811  1.00  0.00    -0.273 NA
HETATM   22  C   UNL     1      20.076  50.373  48.598  1.00  0.00     0.116 A 
HETATM   23  C   UNL     1      21.164  51.226  48.565  1.00  0.00     0.020 A 
HETATM   24  C   UNL     1      22.432  50.686  48.762  1.00  0.00     0.012 A 
ENDBRANCH  18  19
ENDBRANCH  15  18
ENDBRANCH  14  15
ENDBRANCH  11  14
ENDBRANCH   2  10
BRANCH   1  25
HETATM   25  C   UNL     1      26.851  43.563  52.791  1.00  0.00     0.259 C 
HETATM   26  N   UNL     1      28.140  44.009  52.994  1.00  0.00    -0.322 N 
HETATM   27  H   UNL     1      28.694  44.191  52.176  1.00  0.00     0.169 HD
HETATM   28  O   UNL     1      25.959  43.600  53.642  1.00  0.00    -0.267 OA
BRANCH  26  29
HETATM   29  C   UNL     1      28.643  44.572  54.189  1.00  0.00     0.041 A 
HETATM   30  C   UNL     1      28.259  45.813  54.727  1.00  0.00    -0.035 A 
HETATM   31  C   UNL     1      28.916  46.283  55.884  1.00  0.00     0.015 A 
HETATM   32  C   UNL     1      27.138  46.662  54.195  1.00  0.00     0.050 C 
HETATM   33  C   UNL     1      29.879  45.515  56.546  1.00  0.00    -0.061 A 
HETATM   34  C   UNL     1      30.590  46.054  57.751  1.00  0.00     0.048 C 
HETATM   35  C   UNL     1      30.197  44.255  56.041  1.00  0.00     0.009 A 
HETATM   36  C   UNL     1      29.573  43.784  54.884  1.00  0.00     0.030 A 
ENDBRANCH  26  29
ENDBRANCH   1  25
BRANCH   8  37
HETATM   37  C   UNL     1      27.853  38.174  48.289  1.00  0.00    -0.047 C 
HETATM   38  C   UNL     1      29.366  37.919  48.476  1.00  0.00     0.015 C 
HETATM   39  C   UNL     1      27.129  36.834  48.540  1.00  0.00     0.015 C 
HETATM   40  C   UNL     1      27.619  38.583  46.822  1.00  0.00     0.015 C 
ENDBRANCH   8  37
TORSDOF 8
ENDMDL
MODEL 6
REMARK VINA RESULT:      -9.1      1.552      2.677
REMARK  8 active torsions:
REMARK  status: ('A' for Active; 'I' for Inactive)
REMARK    1  A    between atoms: C_6  and  N_7 
REMARK       I    between atoms: N_7  and  C_8 
REMARK    2  A    between atoms: C_8  and  C_9 
REMARK    3  A    between atoms: C_10  and  N_11 
REMARK       I    between atoms: N_11  and  C_12 
REMARK    4  A    between atoms: C_12  and  C_13 
REMARK    5  A    between atoms: C_13  and  N_14 
REMARK    6  A    between atoms: N_14  and  C_17 
REMARK    7  A    between atoms: C_17  and  C_18 
REMARK    8  A    between atoms: C_30  and  C_31 
ROOT
HETATM    1  C   UNL     1      25.236  43.050  50.323  1.00  0.00     0.073 A 
HETATM    2  C   UNL     1      24.561  43.315  49.131  1.00  0.00     0.093 A 
HETATM    3  S   UNL     1      24.636  42.052  48.014  1.00  0.00    -0.075 SA
HETATM    4  C   UNL     1      25.682  41.159  49.009  1.00  0.00    -0.008 A 
HETATM    5  C   UNL     1      25.960  41.795  50.207  1.00  0.00    -0.026 A 
HETATM    6  C   UNL     1      26.927  41.172  51.173  1.00  0.00     0.041 C 
HETATM    7  C   UNL     1      27.835  40.127  50.504  1.00  0.00     0.010 C 
HETATM    8  C   UNL     1      27.022  39.109  49.665  1.00  0.00    -0.002 C 
HETATM    9  C   UNL     1      26.267  39.857  48.532  1.00  0.00     0.052 C 
ENDROOT
BRANCH   2  10
HETATM   10  N   UNL     1      23.926  44.511  48.827  1.00  0.00    -0.319 N 
HETATM   11  C   UNL     1      22.577  44.763  48.775  1.00  0.00     0.248 C 
HETATM   12  O   UNL     1      21.645  44.068  49.170  1.00  0.00    -0.271 OA
HETATM   13  H   UNL     1      24.590  45.269  48.649  1.00  0.00     0.169 HD
BRANCH  11  14
HETATM   14  C   UNL     1      22.250  46.135  48.184  1.00  0.00     0.335 C 
BRANCH  14  15
HETATM   15  N   UNL     1      22.441  47.223  49.209  1.00  0.00    -0.063 N 
HETATM   16  H   UNL     1      21.645  47.255  49.856  1.00  0.00     0.278 HD
HETATM   17  H   UNL     1      23.267  46.955  49.771  1.00  0.00     0.278 HD
BRANCH  15  18
HETATM   18  C   UNL     1      22.701  48.575  48.638  1.00  0.00     0.272 C 
BRANCH  18  19
HETATM   19  C   UNL     1      21.536  49.486  48.843  1.00  0.00    -0.015 A 
HETATM   20  C   UNL     1      20.358  49.024  49.420  1.00  0.00     0.125 A 
HETATM   21  N   UNL     1      19.260  49.786  49.590  1.00  0.00    -0.273 NA
HETATM   22  C   UNL     1      19.325  51.073  49.187  1.00  0.00     0.116 A 
HETATM   23  C   UNL     1      20.449  51.631  48.604  1.00  0.00     0.020 A 
HETATM   24  C   UNL     1      21.569  50.823  48.425  1.00  0.00     0.012 A 
ENDBRANCH  18  19
ENDBRANCH  15  18
ENDBRANCH  14  15
ENDBRANCH  11  14
ENDBRANCH   2  10
BRANCH   1  25
HETATM   25  C   UNL     1      25.156  44.034  51.429  1.00  0.00     0.259 C 
HETATM   26  N   UNL     1      26.342  44.607  51.836  1.00  0.00    -0.322 N 
HETATM   27  H   UNL     1      27.116  44.558  51.197  1.00  0.00     0.169 HD
HETATM   28  O   UNL     1      24.057  44.278  51.931  1.00  0.00    -0.267 OA
BRANCH  26  29
HETATM   29  C   UNL     1      26.492  45.552  52.877  1.00  0.00     0.041 A 
HETATM   30  C   UNL     1      27.339  45.407  53.990  1.00  0.00    -0.035 A 
HETATM   31  C   UNL     1      27.314  46.398  54.994  1.00  0.00     0.015 A 
HETATM   32  C   UNL     1      28.335  44.295  54.164  1.00  0.00     0.050 C 
HETATM   33  C   UNL     1      26.529  47.549  54.872  1.00  0.00    -0.061 A 
HETATM   34  C   UNL     1      26.490  48.568  55.971  1.00  0.00     0.048 C 
HETATM   35  C   UNL     1      25.748  47.712  53.729  1.00  0.00     0.009 A 
HETATM   36  C   UNL     1      25.744  46.730  52.735  1.00  0.00     0.030 A 
ENDBRANCH  26  29
ENDBRANCH   1  25
BRANCH   8  37
HETATM   37  C   UNL     1      27.881  37.895  49.149  1.00  0.00    -0.047 C 
HETATM   38  C   UNL     1      29.161  37.746  50.003  1.00  0.00     0.015 C 
HETATM   39  C   UNL     1      27.086  36.578  49.285  1.00  0.00     0.015 C 
HETATM   40  C   UNL     1      28.309  38.052  47.677  1.00  0.00     0.015 C 
ENDBRANCH   8  37
TORSDOF 8
ENDMDL
MODEL 7
REMARK VINA RESULT:      -9.0      3.759      7.346
REMARK  8 active torsions:
REMARK  status: ('A' for Active; 'I' for Inactive)
REMARK    1  A    between atoms: C_6  and  N_7 
REMARK       I    between atoms: N_7  and  C_8 
REMARK    2  A    between atoms: C_8  and  C_9 
REMARK    3  A    between atoms: C_10  and  N_11 
REMARK       I    between atoms: N_11  and  C_12 
REMARK    4  A    between atoms: C_12  and  C_13 
REMARK    5  A    between atoms: C_13  and  N_14 
REMARK    6  A    between atoms: N_14  and  C_17 
REMARK    7  A    between atoms: C_17  and  C_18 
REMARK    8  A    between atoms: C_30  and  C_31 
ROOT
HETATM    1  C   UNL     1      23.305  46.039  49.222  1.00  0.00     0.073 A 
HETATM    2  C   UNL     1      23.089  44.797  48.626  1.00  0.00     0.093 A 
HETATM    3  S   UNL     1      23.781  43.510  49.471  1.00  0.00    -0.075 SA
HETATM    4  C   UNL     1      24.513  44.562  50.585  1.00  0.00    -0.008 A 
HETATM    5  C   UNL     1      24.216  45.893  50.345  1.00  0.00    -0.026 A 
HETATM    6  C   UNL     1      24.841  46.960  51.197  1.00  0.00     0.041 C 
HETATM    7  C   UNL     1      26.091  46.461  51.939  1.00  0.00     0.010 C 
HETATM    8  C   UNL     1      25.829  45.125  52.678  1.00  0.00    -0.002 C 
HETATM    9  C   UNL     1      25.438  44.031  51.646  1.00  0.00     0.052 C 
ENDROOT
BRANCH   2  10
HETATM   10  N   UNL     1      22.425  44.596  47.424  1.00  0.00    -0.319 N 
HETATM   11  C   UNL     1      21.100  44.296  47.228  1.00  0.00     0.248 C 
HETATM   12  O   UNL     1      20.173  44.333  48.032  1.00  0.00    -0.271 OA
HETATM   13  H   UNL     1      23.041  44.720  46.616  1.00  0.00     0.169 HD
BRANCH  11  14
HETATM   14  C   UNL     1      20.781  43.925  45.780  1.00  0.00     0.335 C 
BRANCH  14  15
HETATM   15  N   UNL     1      19.677  44.791  45.232  1.00  0.00    -0.063 N 
HETATM   16  H   UNL     1      19.393  44.469  44.299  1.00  0.00     0.278 HD
HETATM   17  H   UNL     1      18.860  44.652  45.851  1.00  0.00     0.278 HD
BRANCH  15  18
HETATM   18  C   UNL     1      19.985  46.249  45.207  1.00  0.00     0.272 C 
BRANCH  18  19
HETATM   19  C   UNL     1      18.810  47.062  45.642  1.00  0.00    -0.015 A 
HETATM   20  C   UNL     1      17.826  46.518  46.460  1.00  0.00     0.125 A 
HETATM   21  N   UNL     1      16.723  47.187  46.849  1.00  0.00    -0.273 NA
HETATM   22  C   UNL     1      16.586  48.461  46.426  1.00  0.00     0.116 A 
HETATM   23  C   UNL     1      17.507  49.096  45.613  1.00  0.00     0.020 A 
HETATM   24  C   UNL     1      18.633  48.383  45.211  1.00  0.00     0.012 A 
ENDBRANCH  18  19
ENDBRANCH  15  18
ENDBRANCH  14  15
ENDBRANCH  11  14
ENDBRANCH   2  10
BRANCH   1  25
HETATM   25  C   UNL     1      22.658  47.239  48.638  1.00  0.00     0.259 C 
HETATM   26  N   UNL     1      21.932  48.033  49.500  1.00  0.00    -0.322 N 
HETATM   27  H   UNL     1      22.117  47.930  50.482  1.00  0.00     0.169 HD
HETATM   28  O   UNL     1      22.788  47.458  47.431  1.00  0.00    -0.267 OA
BRANCH  26  29
HETATM   29  C   UNL     1      21.227  49.208  49.149  1.00  0.00     0.041 A 
HETATM   30  C   UNL     1      21.812  50.462  48.904  1.00  0.00    -0.035 A 
HETATM   31  C   UNL     1      20.969  51.565  48.650  1.00  0.00     0.015 A 
HETATM   32  C   UNL     1      23.292  50.713  48.825  1.00  0.00     0.050 C 
HETATM   33  C   UNL     1      19.581  51.423  48.560  1.00  0.00    -0.061 A 
HETATM   34  C   UNL     1      18.704  52.618  48.327  1.00  0.00     0.048 C 
HETATM   35  C   UNL     1      19.021  50.159  48.734  1.00  0.00     0.009 A 
HETATM   36  C   UNL     1      19.839  49.061  49.008  1.00  0.00     0.030 A 
ENDBRANCH  26  29
ENDBRANCH   1  25
BRANCH   8  37
HETATM   37  C   UNL     1      27.006  44.694  53.631  1.00  0.00    -0.047 C 
HETATM   38  C   UNL     1      26.494  43.687  54.687  1.00  0.00     0.015 C 
HETATM   39  C   UNL     1      28.117  43.985  52.827  1.00  0.00     0.015 C 
HETATM   40  C   UNL     1      27.634  45.886  54.378  1.00  0.00     0.015 C 
ENDBRANCH   8  37
TORSDOF 8
ENDMDL
MODEL 8
REMARK VINA RESULT:      -8.9      2.444      7.015
REMARK  8 active torsions:
REMARK  status: ('A' for Active; 'I' for Inactive)
REMARK    1  A    between atoms: C_6  and  N_7 
REMARK       I    between atoms: N_7  and  C_8 
REMARK    2  A    between atoms: C_8  and  C_9 
REMARK    3  A    between atoms: C_10  and  N_11 
REMARK       I    between atoms: N_11  and  C_12 
REMARK    4  A    between atoms: C_12  and  C_13 
REMARK    5  A    between atoms: C_13  and  N_14 
REMARK    6  A    between atoms: N_14  and  C_17 
REMARK    7  A    between atoms: C_17  and  C_18 
REMARK    8  A    between atoms: C_30  and  C_31 
ROOT
HETATM    1  C   UNL     1      27.187  42.556  51.929  1.00  0.00     0.073 A 
HETATM    2  C   UNL     1      26.170  43.503  51.806  1.00  0.00     0.093 A 
HETATM    3  S   UNL     1      26.403  44.877  52.758  1.00  0.00    -0.075 SA
HETATM    4  C   UNL     1      27.789  44.212  53.477  1.00  0.00    -0.008 A 
HETATM    5  C   UNL     1      28.105  42.957  52.982  1.00  0.00    -0.026 A 
HETATM    6  C   UNL     1      29.263  42.198  53.563  1.00  0.00     0.041 C 
HETATM    7  C   UNL     1      29.673  42.721  54.949  1.00  0.00     0.010 C 
HETATM    8  C   UNL     1      29.849  44.260  54.956  1.00  0.00    -0.002 C 
HETATM    9  C   UNL     1      28.500  44.938  54.587  1.00  0.00     0.052 C 
ENDROOT
BRANCH   2  10
HETATM   10  N   UNL     1      25.029  43.347  51.031  1.00  0.00    -0.319 N 
HETATM   11  C   UNL     1      24.740  43.931  49.823  1.00  0.00     0.248 C 
HETATM   12  O   UNL     1      25.483  44.551  49.067  1.00  0.00    -0.271 OA
HETATM   13  H   UNL     1      24.365  42.689  51.447  1.00  0.00     0.169 HD
BRANCH  11  14
HETATM   14  C   UNL     1      23.295  43.701  49.380  1.00  0.00     0.335 C 
BRANCH  14  15
HETATM   15  N   UNL     1      22.485  44.965  49.502  1.00  0.00    -0.063 N 
HETATM   16  H   UNL     1      21.553  44.764  49.882  1.00  0.00     0.278 HD
HETATM   17  H   UNL     1      22.967  45.556  50.202  1.00  0.00     0.278 HD
BRANCH  15  18
HETATM   18  C   UNL     1      22.372  45.755  48.242  1.00  0.00     0.272 C 
BRANCH  18  19
HETATM   19  C   UNL     1      22.621  47.208  48.486  1.00  0.00    -0.015 A 
HETATM   20  C   UNL     1      23.563  47.626  49.420  1.00  0.00     0.125 A 
HETATM   21  N   UNL     1      23.800  48.920  49.714  1.00  0.00    -0.273 NA
HETATM   22  C   UNL     1      23.088  49.851  49.046  1.00  0.00     0.116 A 
HETATM   23  C   UNL     1      22.131  49.541  48.096  1.00  0.00     0.020 A 
HETATM   24  C   UNL     1      21.891  48.198  47.817  1.00  0.00     0.012 A 
ENDBRANCH  18  19
ENDBRANCH  15  18
ENDBRANCH  14  15
ENDBRANCH  11  14
ENDBRANCH   2  10
BRANCH   1  25
HETATM   25  C   UNL     1      27.157  41.352  51.064  1.00  0.00     0.259 C 
HETATM   26  N   UNL     1      28.274  41.117  50.291  1.00  0.00    -0.322 N 
HETATM   27  H   UNL     1      29.124  41.580  50.562  1.00  0.00     0.169 HD
HETATM   28  O   UNL     1      26.151  40.640  51.069  1.00  0.00    -0.267 OA
BRANCH  26  29
HETATM   29  C   UNL     1      28.446  40.040  49.390  1.00  0.00     0.041 A 
HETATM   30  C   UNL     1      29.138  38.849  49.672  1.00  0.00    -0.035 A 
HETATM   31  C   UNL     1      29.302  37.900  48.641  1.00  0.00     0.015 A 
HETATM   32  C   UNL     1      29.668  38.470  51.027  1.00  0.00     0.050 C 
HETATM   33  C   UNL     1      28.731  38.082  47.377  1.00  0.00    -0.061 A 
HETATM   34  C   UNL     1      28.953  37.077  46.286  1.00  0.00     0.048 C 
HETATM   35  C   UNL     1      27.987  39.236  47.135  1.00  0.00     0.009 A 
HETATM   36  C   UNL     1      27.833  40.195  48.138  1.00  0.00     0.030 A 
ENDBRANCH  26  29
ENDBRANCH   1  25
BRANCH   8  37
HETATM   37  C   UNL     1      30.483  44.813  56.287  1.00  0.00    -0.047 C 
HETATM   38  C   UNL     1      31.295  43.702  56.991  1.00  0.00     0.015 C 
HETATM   39  C   UNL     1      31.461  45.967  55.977  1.00  0.00     0.015 C 
HETATM   40  C   UNL     1      29.426  45.330  57.281  1.00  0.00     0.015 C 
ENDBRANCH   8  37
TORSDOF 8
ENDMDL
MODEL 9
REMARK VINA RESULT:      -8.8      2.246      3.277
REMARK  8 active torsions:
REMARK  status: ('A' for Active; 'I' for Inactive)
REMARK    1  A    between atoms: C_6  and  N_7 
REMARK       I    between atoms: N_7  and  C_8 
REMARK    2  A    between atoms: C_8  and  C_9 
REMARK    3  A    between atoms: C_10  and  N_11 
REMARK       I    between atoms: N_11  and  C_12 
REMARK    4  A    between atoms: C_12  and  C_13 
REMARK    5  A    between atoms: C_13  and  N_14 
REMARK    6  A    between atoms: N_14  and  C_17 
REMARK    7  A    between atoms: C_17  and  C_18 
REMARK    8  A    between atoms: C_30  and  C_31 
ROOT
HETATM    1  C   UNL     1      26.514  42.845  49.746  1.00  0.00     0.073 A 
HETATM    2  C   UNL     1      25.390  43.353  49.095  1.00  0.00     0.093 A 
HETATM    3  S   UNL     1      24.618  42.230  48.099  1.00  0.00    -0.075 SA
HETATM    4  C   UNL     1      25.821  41.067  48.382  1.00  0.00    -0.008 A 
HETATM    5  C   UNL     1      26.802  41.507  49.256  1.00  0.00    -0.026 A 
HETATM    6  C   UNL     1      27.979  40.626  49.559  1.00  0.00     0.041 C 
HETATM    7  C   UNL     1      28.176  39.526  48.503  1.00  0.00     0.010 C 
HETATM    8  C   UNL     1      26.860  38.760  48.216  1.00  0.00    -0.002 C 
HETATM    9  C   UNL     1      25.797  39.747  47.660  1.00  0.00     0.052 C 
ENDROOT
BRANCH   2  10
HETATM   10  N   UNL     1      24.946  44.665  49.182  1.00  0.00    -0.319 N 
HETATM   11  C   UNL     1      23.668  45.114  49.405  1.00  0.00     0.248 C 
HETATM   12  O   UNL     1      22.681  44.482  49.772  1.00  0.00    -0.271 OA
HETATM   13  H   UNL     1      25.709  45.340  49.081  1.00  0.00     0.169 HD
BRANCH  11  14
HETATM   14  C   UNL     1      23.523  46.623  49.209  1.00  0.00     0.335 C 
BRANCH  14  15
HETATM   15  N   UNL     1      22.079  47.005  49.010  1.00  0.00    -0.063 N 
HETATM   16  H   UNL     1      21.511  46.176  48.801  1.00  0.00     0.278 HD
HETATM   17  H   UNL     1      21.745  47.368  49.919  1.00  0.00     0.278 HD
BRANCH  15  18
HETATM   18  C   UNL     1      21.852  48.064  47.986  1.00  0.00     0.272 C 
BRANCH  18  19
HETATM   19  C   UNL     1      21.100  49.221  48.557  1.00  0.00    -0.015 A 
HETATM   20  C   UNL     1      20.213  49.048  49.614  1.00  0.00     0.125 A 
HETATM   21  N   UNL     1      19.475  50.044  50.141  1.00  0.00    -0.273 NA
HETATM   22  C   UNL     1      19.626  51.278  49.614  1.00  0.00     0.116 A 
HETATM   23  C   UNL     1      20.483  51.557  48.564  1.00  0.00     0.020 A 
HETATM   24  C   UNL     1      21.226  50.511  48.025  1.00  0.00     0.012 A 
ENDBRANCH  18  19
ENDBRANCH  15  18
ENDBRANCH  14  15
ENDBRANCH  11  14
ENDBRANCH   2  10
BRANCH   1  25
HETATM   25  C   UNL     1      27.219  43.697  50.734  1.00  0.00     0.259 C 
HETATM   26  N   UNL     1      27.203  43.270  52.044  1.00  0.00    -0.322 N 
HETATM   27  H   UNL     1      26.986  42.303  52.207  1.00  0.00     0.169 HD
HETATM   28  O   UNL     1      27.764  44.733  50.345  1.00  0.00    -0.267 OA
BRANCH  26  29
HETATM   29  C   UNL     1      27.798  43.937  53.140  1.00  0.00     0.041 A 
HETATM   30  C   UNL     1      29.059  43.639  53.685  1.00  0.00    -0.035 A 
HETATM   31  C   UNL     1      29.482  44.335  54.837  1.00  0.00     0.015 A 
HETATM   32  C   UNL     1      30.039  42.667  53.087  1.00  0.00     0.050 C 
HETATM   33  C   UNL     1      28.714  45.360  55.399  1.00  0.00    -0.061 A 
HETATM   34  C   UNL     1      29.168  46.058  56.647  1.00  0.00     0.048 C 
HETATM   35  C   UNL     1      27.499  45.693  54.805  1.00  0.00     0.009 A 
HETATM   36  C   UNL     1      27.055  44.999  53.677  1.00  0.00     0.030 A 
ENDBRANCH  26  29
ENDBRANCH   1  25
BRANCH   8  37
HETATM   37  C   UNL     1      27.061  37.485  47.314  1.00  0.00    -0.047 C 
HETATM   38  C   UNL     1      26.290  37.646  45.985  1.00  0.00     0.015 C 
HETATM   39  C   UNL     1      28.553  37.309  46.957  1.00  0.00     0.015 C 
HETATM   40  C   UNL     1      26.571  36.192  47.994  1.00  0.00     0.015 C 
ENDBRANCH   8  37
TORSDOF 8
ENDMDL
MODEL 10
REMARK VINA RESULT:      -8.6      3.029      6.726
REMARK  8 active torsions:
REMARK  status: ('A' for Active; 'I' for Inactive)
REMARK    1  A    between atoms: C_6  and  N_7 
REMARK       I    between atoms: N_7  and  C_8 
REMARK    2  A    between atoms: C_8  and  C_9 
REMARK    3  A    between atoms: C_10  and  N_11 
REMARK       I    between atoms: N_11  and  C_12 
REMARK    4  A    between atoms: C_12  and  C_13 
REMARK    5  A    between atoms: C_13  and  N_14 
REMARK    6  A    between atoms: N_14  and  C_17 
REMARK    7  A    between atoms: C_17  and  C_18 
REMARK    8  A    between atoms: C_30  and  C_31 
ROOT
HETATM    1  C   UNL     1      26.800  45.246  52.455  1.00  0.00     0.073 A 
HETATM    2  C   UNL     1      26.833  43.993  51.841  1.00  0.00     0.093 A 
HETATM    3  S   UNL     1      27.743  42.849  52.685  1.00  0.00    -0.075 SA
HETATM    4  C   UNL     1      28.243  44.003  53.824  1.00  0.00    -0.008 A 
HETATM    5  C   UNL     1      27.703  45.258  53.594  1.00  0.00    -0.026 A 
HETATM    6  C   UNL     1      28.101  46.411  54.469  1.00  0.00     0.041 C 
HETATM    7  C   UNL     1      29.411  46.147  55.229  1.00  0.00     0.010 C 
HETATM    8  C   UNL     1      29.394  44.774  55.947  1.00  0.00    -0.002 C 
HETATM    9  C   UNL     1      29.235  43.641  54.896  1.00  0.00     0.052 C 
ENDROOT
BRANCH   2  10
HETATM   10  N   UNL     1      26.239  43.689  50.624  1.00  0.00    -0.319 N 
HETATM   11  C   UNL     1      25.006  43.129  50.401  1.00  0.00     0.248 C 
HETATM   12  O   UNL     1      24.081  42.958  51.190  1.00  0.00    -0.271 OA
HETATM   13  H   UNL     1      26.826  43.954  49.829  1.00  0.00     0.169 HD
BRANCH  11  14
HETATM   14  C   UNL     1      24.787  42.733  48.941  1.00  0.00     0.335 C 
BRANCH  14  15
HETATM   15  N   UNL     1      24.270  43.897  48.138  1.00  0.00    -0.063 N 
HETATM   16  H   UNL     1      23.880  44.619  48.755  1.00  0.00     0.278 HD
HETATM   17  H   UNL     1      25.091  44.320  47.673  1.00  0.00     0.278 HD
BRANCH  15  18
HETATM   18  C   UNL     1      23.286  43.534  47.078  1.00  0.00     0.272 C 
BRANCH  18  19
HETATM   19  C   UNL     1      21.931  44.081  47.381  1.00  0.00    -0.015 A 
HETATM   20  C   UNL     1      21.623  44.572  48.646  1.00  0.00     0.125 A 
HETATM   21  N   UNL     1      20.407  45.037  48.992  1.00  0.00    -0.273 NA
HETATM   22  C   UNL     1      19.446  45.037  48.043  1.00  0.00     0.116 A 
HETATM   23  C   UNL     1      19.650  44.573  46.755  1.00  0.00     0.020 A 
HETATM   24  C   UNL     1      20.910  44.084  46.422  1.00  0.00     0.012 A 
ENDBRANCH  18  19
ENDBRANCH  15  18
ENDBRANCH  14  15
ENDBRANCH  11  14
ENDBRANCH   2  10
BRANCH   1  25
HETATM   25  C   UNL     1      25.947  46.310  51.872  1.00  0.00     0.259 C 
HETATM   26  N   UNL     1      26.136  46.593  50.536  1.00  0.00    -0.322 N 
HETATM   27  H   UNL     1      26.604  45.897  49.983  1.00  0.00     0.169 HD
HETATM   28  O   UNL     1      25.135  46.887  52.599  1.00  0.00    -0.267 OA
BRANCH  26  29
HETATM   29  C   UNL     1      25.443  47.576  49.792  1.00  0.00     0.041 A 
HETATM   30  C   UNL     1      26.024  48.724  49.226  1.00  0.00    -0.035 A 
HETATM   31  C   UNL     1      25.186  49.661  48.584  1.00  0.00     0.015 A 
HETATM   32  C   UNL     1      27.501  49.004  49.189  1.00  0.00     0.050 C 
HETATM   33  C   UNL     1      23.813  49.438  48.435  1.00  0.00    -0.061 A 
HETATM   34  C   UNL     1      22.938  50.468  47.784  1.00  0.00     0.048 C 
HETATM   35  C   UNL     1      23.265  48.260  48.939  1.00  0.00     0.009 A 
HETATM   36  C   UNL     1      24.076  47.333  49.596  1.00  0.00     0.030 A 
ENDBRANCH  26  29
ENDBRANCH   1  25
BRANCH   8  37
HETATM   37  C   UNL     1      30.616  44.559  56.918  1.00  0.00    -0.047 C 
HETATM   38  C   UNL     1      31.877  45.245  56.346  1.00  0.00     0.015 C 
HETATM   39  C   UNL     1      30.329  45.203  58.292  1.00  0.00     0.015 C 
HETATM   40  C   UNL     1      30.945  43.071  57.140  1.00  0.00     0.015 C 
ENDBRANCH   8  37
TORSDOF 8
ENDMDL
