MODEL 1
REMARK VINA RESULT:      -9.7      0.000      0.000
REMARK  6 active torsions:
REMARK  status: ('A' for Active; 'I' for Inactive)
REMARK    1  A    between atoms: O_2  and  C_3 
REMARK    2  A    between atoms: C_5  and  C_6 
REMARK    3  A    between atoms: C_12  and  C_13 
REMARK       I    between atoms: C_13  and  N_14 
REMARK    4  A    between atoms: N_14  and  C_15 
REMARK    5  A    between atoms: C_17  and  O_18 
REMARK    6  A    between atoms: C_23  and  C_24 
ROOT
HETATM    1  C   UNL     1      27.115  44.005  53.224  1.00  0.00     0.118 C 
HETATM    2  N   UNL     1      26.674  45.072  52.312  1.00  0.00    -0.365 N 
HETATM    3  C   UNL     1      25.842  44.700  51.297  1.00  0.00     0.138 C 
HETATM    4  N   UNL     1      25.792  43.389  50.876  1.00  0.00    -0.240 N 
HETATM    5  N   UNL     1      24.776  43.140  50.036  1.00  0.00    -0.181 NA
HETATM    6  C   UNL     1      24.269  44.352  49.796  1.00  0.00     0.160 C 
HETATM    7  C   UNL     1      24.917  45.378  50.525  1.00  0.00     0.096 C 
HETATM    8  C   UNL     1      26.572  42.304  51.446  1.00  0.00     0.221 C 
HETATM    9  C   UNL     1      27.663  42.842  52.389  1.00  0.00     0.066 C 
HETATM   10  H   UNL     1      26.450  45.929  52.824  1.00  0.00     0.161 HD
ENDROOT
BRANCH   7  11
HETATM   11  C   UNL     1      24.598  46.793  50.472  1.00  0.00     0.261 C 
HETATM   12  N   UNL     1      23.844  47.148  49.368  1.00  0.00    -0.323 N 
HETATM   13  H   UNL     1      23.538  46.379  48.782  1.00  0.00     0.169 HD
HETATM   14  O   UNL     1      24.941  47.541  51.381  1.00  0.00    -0.267 OA
BRANCH  12  15
HETATM   15  C   UNL     1      23.331  48.425  49.060  1.00  0.00     0.037 A 
HETATM   16  C   UNL     1      22.014  48.817  49.313  1.00  0.00     0.066 A 
HETATM   17  C   UNL     1      21.588  50.097  48.959  1.00  0.00     0.067 A 
HETATM   18  C   UNL     1      22.454  50.999  48.355  1.00  0.00     0.036 A 
HETATM   19  C   UNL     1      23.769  50.621  48.106  1.00  0.00     0.005 A 
HETATM   20  C   UNL     1      24.208  49.342  48.462  1.00  0.00     0.029 A 
BRANCH  17  21
HETATM   21  O   UNL     1      20.307  50.506  49.193  1.00  0.00    -0.361 OA
HETATM   22  H   UNL     1      20.055  50.231  50.091  1.00  0.00     0.217 HD
ENDBRANCH  17  21
ENDBRANCH  12  15
ENDBRANCH   7  11
BRANCH   1  23
HETATM   23  C   UNL     1      28.143  44.531  54.203  1.00  0.00    -0.033 A 
HETATM   24  C   UNL     1      29.238  43.753  54.614  1.00  0.00     0.046 A 
HETATM   25  C   UNL     1      30.150  44.227  55.563  1.00  0.00     0.068 A 
HETATM   26  C   UNL     1      29.979  45.502  56.100  1.00  0.00     0.037 A 
HETATM   27  C   UNL     1      28.902  46.293  55.694  1.00  0.00     0.003 A 
HETATM   28  C   UNL     1      27.990  45.812  54.755  1.00  0.00     0.009 A 
BRANCH  25  29
HETATM   29  O   UNL     1      31.154  43.352  55.878  1.00  0.00    -0.356 OA
HETATM   30  C   UNL     1      31.500  43.242  57.255  1.00  0.00     0.210 C 
ENDBRANCH  25  29
ENDBRANCH   1  23
BRANCH   8  31
HETATM   31  C   UNL     1      27.207  41.454  50.367  1.00  0.00     0.409 C 
HETATM   32  F   UNL     1      27.502  42.168  49.258  1.00  0.00    -0.169 F 
HETATM   33  F   UNL     1      28.384  40.946  50.824  1.00  0.00    -0.169 F 
HETATM   34  F   UNL     1      26.459  40.394  50.002  1.00  0.00    -0.169 F 
ENDBRANCH   8  31
TORSDOF 6
ENDMDL
MODEL 2
REMARK VINA RESULT:      -9.3      1.625      2.473
REMARK  6 active torsions:
REMARK  status: ('A' for Active; 'I' for Inactive)
REMARK    1  A    between atoms: O_2  and  C_3 
REMARK    2  A    between atoms: C_5  and  C_6 
REMARK    3  A    between atoms: C_12  and  C_13 
REMARK       I    between atoms: C_13  and  N_14 
REMARK    4  A    between atoms: N_14  and  C_15 
REMARK    5  A    between atoms: C_17  and  O_18 
REMARK    6  A    between atoms: C_23  and  C_24 
ROOT
HETATM    1  C   UNL     1      27.640  42.671  53.345  1.00  0.00     0.118 C 
HETATM    2  N   UNL     1      27.010  43.658  52.455  1.00  0.00    -0.365 N 
HETATM    3  C   UNL     1      26.206  43.164  51.469  1.00  0.00     0.138 C 
HETATM    4  N   UNL     1      26.338  41.859  51.046  1.00  0.00    -0.240 N 
HETATM    5  N   UNL     1      25.341  41.458  50.243  1.00  0.00    -0.181 NA
HETATM    6  C   UNL     1      24.648  42.580  50.026  1.00  0.00     0.160 C 
HETATM    7  C   UNL     1      25.161  43.693  50.735  1.00  0.00     0.096 C 
HETATM    8  C   UNL     1      27.294  40.905  51.582  1.00  0.00     0.221 C 
HETATM    9  C   UNL     1      28.325  41.603  52.487  1.00  0.00     0.066 C 
HETATM   10  H   UNL     1      26.679  44.473  52.977  1.00  0.00     0.161 HD
ENDROOT
BRANCH   7  11
HETATM   11  C   UNL     1      24.631  45.044  50.699  1.00  0.00     0.261 C 
HETATM   12  N   UNL     1      24.138  45.411  49.460  1.00  0.00    -0.323 N 
HETATM   13  H   UNL     1      24.129  44.678  48.758  1.00  0.00     0.169 HD
HETATM   14  O   UNL     1      24.596  45.723  51.719  1.00  0.00    -0.267 OA
BRANCH  12  15
HETATM   15  C   UNL     1      23.513  46.627  49.116  1.00  0.00     0.037 A 
HETATM   16  C   UNL     1      24.046  47.885  49.409  1.00  0.00     0.066 A 
HETATM   17  C   UNL     1      23.350  49.038  49.045  1.00  0.00     0.067 A 
HETATM   18  C   UNL     1      22.127  48.960  48.390  1.00  0.00     0.036 A 
HETATM   19  C   UNL     1      21.593  47.712  48.087  1.00  0.00     0.005 A 
HETATM   20  C   UNL     1      22.285  46.550  48.443  1.00  0.00     0.029 A 
BRANCH  17  21
HETATM   21  O   UNL     1      23.845  50.280  49.320  1.00  0.00    -0.361 OA
HETATM   22  H   UNL     1      24.555  50.188  49.978  1.00  0.00     0.217 HD
ENDBRANCH  17  21
ENDBRANCH  12  15
ENDBRANCH   7  11
BRANCH   1  23
HETATM   23  C   UNL     1      28.612  43.348  54.288  1.00  0.00    -0.033 A 
HETATM   24  C   UNL     1      28.364  44.627  54.814  1.00  0.00     0.046 A 
HETATM   25  C   UNL     1      29.295  45.268  55.638  1.00  0.00     0.068 A 
HETATM   26  C   UNL     1      30.486  44.619  55.957  1.00  0.00     0.037 A 
HETATM   27  C   UNL     1      30.744  43.342  55.454  1.00  0.00     0.003 A 
HETATM   28  C   UNL     1      29.816  42.712  54.625  1.00  0.00     0.009 A 
BRANCH  25  29
HETATM   29  O   UNL     1      28.924  46.516  56.058  1.00  0.00    -0.356 OA
HETATM   30  C   UNL     1      27.876  47.151  55.333  1.00  0.00     0.210 C 
ENDBRANCH  25  29
ENDBRANCH   1  23
BRANCH   8  31
HETATM   31  C   UNL     1      28.009  40.158  50.478  1.00  0.00     0.409 C 
HETATM   32  F   UNL     1      29.118  39.525  50.921  1.00  0.00    -0.169 F 
HETATM   33  F   UNL     1      27.188  39.196  49.975  1.00  0.00    -0.169 F 
HETATM   34  F   UNL     1      28.356  40.937  49.433  1.00  0.00    -0.169 F 
ENDBRANCH   8  31
TORSDOF 6
ENDMDL
MODEL 3
REMARK VINA RESULT:      -9.2      2.045      2.748
REMARK  6 active torsions:
REMARK  status: ('A' for Active; 'I' for Inactive)
REMARK    1  A    between atoms: O_2  and  C_3 
REMARK    2  A    between atoms: C_5  and  C_6 
REMARK    3  A    between atoms: C_12  and  C_13 
REMARK       I    between atoms: C_13  and  N_14 
REMARK    4  A    between atoms: N_14  and  C_15 
REMARK    5  A    between atoms: C_17  and  O_18 
REMARK    6  A    between atoms: C_23  and  C_24 
ROOT
HETATM    1  C   UNL     1      27.710  42.771  53.153  1.00  0.00     0.118 C 
HETATM    2  N   UNL     1      27.323  43.746  52.121  1.00  0.00    -0.365 N 
HETATM    3  C   UNL     1      26.593  43.266  51.073  1.00  0.00     0.138 C 
HETATM    4  N   UNL     1      26.613  41.924  50.761  1.00  0.00    -0.240 N 
HETATM    5  N   UNL     1      25.681  41.574  49.861  1.00  0.00    -0.181 NA
HETATM    6  C   UNL     1      25.167  42.746  49.477  1.00  0.00     0.160 C 
HETATM    7  C   UNL     1      25.722  43.849  50.171  1.00  0.00     0.096 C 
HETATM    8  C   UNL     1      27.368  40.915  51.484  1.00  0.00     0.221 C 
HETATM    9  C   UNL     1      28.358  41.563  52.468  1.00  0.00     0.066 C 
HETATM   10  H   UNL     1      27.034  44.634  52.537  1.00  0.00     0.161 HD
ENDROOT
BRANCH   7  11
HETATM   11  C   UNL     1      25.373  45.243  49.972  1.00  0.00     0.261 C 
HETATM   12  N   UNL     1      26.453  46.041  49.641  1.00  0.00    -0.323 N 
HETATM   13  H   UNL     1      27.330  45.552  49.497  1.00  0.00     0.169 HD
HETATM   14  O   UNL     1      24.204  45.606  50.045  1.00  0.00    -0.267 OA
BRANCH  12  15
HETATM   15  C   UNL     1      26.435  47.418  49.334  1.00  0.00     0.037 A 
HETATM   16  C   UNL     1      25.266  48.151  49.116  1.00  0.00     0.066 A 
HETATM   17  C   UNL     1      25.344  49.507  48.802  1.00  0.00     0.067 A 
HETATM   18  C   UNL     1      26.570  50.151  48.701  1.00  0.00     0.036 A 
HETATM   19  C   UNL     1      27.740  49.431  48.925  1.00  0.00     0.005 A 
HETATM   20  C   UNL     1      27.673  48.071  49.245  1.00  0.00     0.029 A 
BRANCH  17  21
HETATM   21  O   UNL     1      24.218  50.248  48.582  1.00  0.00    -0.361 OA
HETATM   22  H   UNL     1      24.427  51.182  48.755  1.00  0.00     0.217 HD
ENDBRANCH  17  21
ENDBRANCH  12  15
ENDBRANCH   7  11
BRANCH   1  23
HETATM   23  C   UNL     1      28.634  43.409  54.168  1.00  0.00    -0.033 A 
HETATM   24  C   UNL     1      28.331  44.640  54.774  1.00  0.00     0.046 A 
HETATM   25  C   UNL     1      29.219  45.248  55.667  1.00  0.00     0.068 A 
HETATM   26  C   UNL     1      30.420  44.614  55.976  1.00  0.00     0.037 A 
HETATM   27  C   UNL     1      30.732  43.383  55.393  1.00  0.00     0.003 A 
HETATM   28  C   UNL     1      29.848  42.786  54.496  1.00  0.00     0.009 A 
BRANCH  25  29
HETATM   29  O   UNL     1      28.797  46.453  56.162  1.00  0.00    -0.356 OA
HETATM   30  C   UNL     1      27.901  47.201  55.348  1.00  0.00     0.210 C 
ENDBRANCH  25  29
ENDBRANCH   1  23
BRANCH   8  31
HETATM   31  C   UNL     1      28.116  40.001  50.539  1.00  0.00     0.409 C 
HETATM   32  F   UNL     1      28.649  40.670  49.492  1.00  0.00    -0.169 F 
HETATM   33  F   UNL     1      29.157  39.420  51.197  1.00  0.00    -0.169 F 
HETATM   34  F   UNL     1      27.367  38.989  50.057  1.00  0.00    -0.169 F 
ENDBRANCH   8  31
TORSDOF 6
ENDMDL
MODEL 4
REMARK VINA RESULT:      -9.0      4.200      8.272
REMARK  6 active torsions:
REMARK  status: ('A' for Active; 'I' for Inactive)
REMARK    1  A    between atoms: O_2  and  C_3 
REMARK    2  A    between atoms: C_5  and  C_6 
REMARK    3  A    between atoms: C_12  and  C_13 
REMARK       I    between atoms: C_13  and  N_14 
REMARK    4  A    between atoms: N_14  and  C_15 
REMARK    5  A    between atoms: C_17  and  O_18 
REMARK    6  A    between atoms: C_23  and  C_24 
ROOT
HETATM    1  C   UNL     1      26.936  41.044  50.340  1.00  0.00     0.118 C 
HETATM    2  N   UNL     1      27.833  41.937  51.091  1.00  0.00    -0.365 N 
HETATM    3  C   UNL     1      27.259  43.034  51.665  1.00  0.00     0.138 C 
HETATM    4  N   UNL     1      26.055  43.519  51.202  1.00  0.00    -0.240 N 
HETATM    5  N   UNL     1      25.514  44.450  52.002  1.00  0.00    -0.181 NA
HETATM    6  C   UNL     1      26.471  44.673  52.907  1.00  0.00     0.160 C 
HETATM    7  C   UNL     1      27.606  43.845  52.729  1.00  0.00     0.096 C 
HETATM    8  C   UNL     1      25.292  42.940  50.109  1.00  0.00     0.221 C 
HETATM    9  C   UNL     1      26.121  41.886  49.353  1.00  0.00     0.066 C 
HETATM   10  H   UNL     1      28.508  41.406  51.646  1.00  0.00     0.161 HD
ENDROOT
BRANCH   7  11
HETATM   11  C   UNL     1      28.806  43.857  53.546  1.00  0.00     0.261 C 
HETATM   12  N   UNL     1      28.623  44.441  54.786  1.00  0.00    -0.323 N 
HETATM   13  H   UNL     1      27.671  44.712  55.006  1.00  0.00     0.169 HD
HETATM   14  O   UNL     1      29.836  43.330  53.142  1.00  0.00    -0.267 OA
BRANCH  12  15
HETATM   15  C   UNL     1      29.573  44.558  55.823  1.00  0.00     0.037 A 
HETATM   16  C   UNL     1      30.560  43.605  56.084  1.00  0.00     0.066 A 
HETATM   17  C   UNL     1      31.449  43.796  57.142  1.00  0.00     0.067 A 
HETATM   18  C   UNL     1      31.373  44.924  57.948  1.00  0.00     0.036 A 
HETATM   19  C   UNL     1      30.398  45.883  57.690  1.00  0.00     0.005 A 
HETATM   20  C   UNL     1      29.505  45.704  56.629  1.00  0.00     0.029 A 
BRANCH  17  21
HETATM   21  O   UNL     1      32.422  42.881  57.422  1.00  0.00    -0.361 OA
HETATM   22  H   UNL     1      32.304  42.577  58.337  1.00  0.00     0.217 HD
ENDBRANCH  17  21
ENDBRANCH  12  15
ENDBRANCH   7  11
BRANCH   1  23
HETATM   23  C   UNL     1      27.728  39.960  49.639  1.00  0.00    -0.033 A 
HETATM   24  C   UNL     1      28.704  39.206  50.312  1.00  0.00     0.046 A 
HETATM   25  C   UNL     1      29.470  38.246  49.642  1.00  0.00     0.068 A 
HETATM   26  C   UNL     1      29.251  38.023  48.284  1.00  0.00     0.037 A 
HETATM   27  C   UNL     1      28.277  38.756  47.602  1.00  0.00     0.003 A 
HETATM   28  C   UNL     1      27.523  39.718  48.273  1.00  0.00     0.009 A 
BRANCH  25  29
HETATM   29  O   UNL     1      30.393  37.604  50.422  1.00  0.00    -0.356 OA
HETATM   30  C   UNL     1      29.891  36.868  51.532  1.00  0.00     0.210 C 
ENDBRANCH  25  29
ENDBRANCH   1  23
BRANCH   8  31
HETATM   31  C   UNL     1      24.816  44.001  49.143  1.00  0.00     0.409 C 
HETATM   32  F   UNL     1      24.480  43.487  47.939  1.00  0.00    -0.169 F 
HETATM   33  F   UNL     1      23.695  44.595  49.636  1.00  0.00    -0.169 F 
HETATM   34  F   UNL     1      25.708  44.993  48.945  1.00  0.00    -0.169 F 
ENDBRANCH   8  31
TORSDOF 6
ENDMDL
MODEL 5
REMARK VINA RESULT:      -8.9      3.683      8.361
REMARK  6 active torsions:
REMARK  status: ('A' for Active; 'I' for Inactive)
REMARK    1  A    between atoms: O_2  and  C_3 
REMARK    2  A    between atoms: C_5  and  C_6 
REMARK    3  A    between atoms: C_12  and  C_13 
REMARK       I    between atoms: C_13  and  N_14 
REMARK    4  A    between atoms: N_14  and  C_15 
REMARK    5  A    between atoms: C_17  and  O_18 
REMARK    6  A    between atoms: C_23  and  C_24 
ROOT
HETATM    1  C   UNL     1      24.866  44.011  50.911  1.00  0.00     0.118 C 
HETATM    2  N   UNL     1      25.992  44.178  51.843  1.00  0.00    -0.365 N 
HETATM    3  C   UNL     1      26.063  45.369  52.506  1.00  0.00     0.138 C 
HETATM    4  N   UNL     1      25.423  46.485  52.012  1.00  0.00    -0.240 N 
HETATM    5  N   UNL     1      25.395  47.509  52.880  1.00  0.00    -0.181 NA
HETATM    6  C   UNL     1      26.171  47.086  53.882  1.00  0.00     0.160 C 
HETATM    7  C   UNL     1      26.652  45.767  53.691  1.00  0.00     0.096 C 
HETATM    8  C   UNL     1      24.631  46.517  50.795  1.00  0.00     0.221 C 
HETATM    9  C   UNL     1      24.818  45.226  49.978  1.00  0.00     0.066 C 
HETATM   10  H   UNL     1      26.163  43.323  52.378  1.00  0.00     0.161 HD
ENDROOT
BRANCH   7  11
HETATM   11  C   UNL     1      27.519  45.038  54.598  1.00  0.00     0.261 C 
HETATM   12  N   UNL     1      28.464  45.834  55.220  1.00  0.00    -0.323 N 
HETATM   13  H   UNL     1      28.387  46.828  55.035  1.00  0.00     0.169 HD
HETATM   14  O   UNL     1      27.340  43.841  54.798  1.00  0.00    -0.267 OA
BRANCH  12  15
HETATM   15  C   UNL     1      29.410  45.438  56.188  1.00  0.00     0.037 A 
HETATM   16  C   UNL     1      30.382  44.458  55.971  1.00  0.00     0.066 A 
HETATM   17  C   UNL     1      31.268  44.119  56.993  1.00  0.00     0.067 A 
HETATM   18  C   UNL     1      31.204  44.740  58.233  1.00  0.00     0.036 A 
HETATM   19  C   UNL     1      30.245  45.723  58.456  1.00  0.00     0.005 A 
HETATM   20  C   UNL     1      29.355  46.075  57.437  1.00  0.00     0.029 A 
BRANCH  17  21
HETATM   21  O   UNL     1      32.226  43.164  56.811  1.00  0.00    -0.361 OA
HETATM   22  H   UNL     1      33.002  43.582  56.401  1.00  0.00     0.217 HD
ENDBRANCH  17  21
ENDBRANCH  12  15
ENDBRANCH   7  11
BRANCH   1  23
HETATM   23  C   UNL     1      24.998  42.713  50.143  1.00  0.00    -0.033 A 
HETATM   24  C   UNL     1      25.940  41.734  50.502  1.00  0.00     0.046 A 
HETATM   25  C   UNL     1      26.093  40.564  49.751  1.00  0.00     0.068 A 
HETATM   26  C   UNL     1      25.286  40.357  48.634  1.00  0.00     0.037 A 
HETATM   27  C   UNL     1      24.336  41.314  48.271  1.00  0.00     0.003 A 
HETATM   28  C   UNL     1      24.194  42.484  49.017  1.00  0.00     0.009 A 
BRANCH  25  29
HETATM   29  O   UNL     1      27.062  39.713  50.210  1.00  0.00    -0.356 OA
HETATM   30  C   UNL     1      28.264  40.308  50.685  1.00  0.00     0.210 C 
ENDBRANCH  25  29
ENDBRANCH   1  23
BRANCH   8  31
HETATM   31  C   UNL     1      24.980  47.715  49.939  1.00  0.00     0.409 C 
HETATM   32  F   UNL     1      24.942  47.431  48.618  1.00  0.00    -0.169 F 
HETATM   33  F   UNL     1      24.069  48.704  50.149  1.00  0.00    -0.169 F 
HETATM   34  F   UNL     1      26.185  48.250  50.221  1.00  0.00    -0.169 F 
ENDBRANCH   8  31
TORSDOF 6
ENDMDL
MODEL 6
REMARK VINA RESULT:      -8.8      3.627      8.731
REMARK  6 active torsions:
REMARK  status: ('A' for Active; 'I' for Inactive)
REMARK    1  A    between atoms: O_2  and  C_3 
REMARK    2  A    between atoms: C_5  and  C_6 
REMARK    3  A    between atoms: C_12  and  C_13 
REMARK       I    between atoms: C_13  and  N_14 
REMARK    4  A    between atoms: N_14  and  C_15 
REMARK    5  A    between atoms: C_17  and  O_18 
REMARK    6  A    between atoms: C_23  and  C_24 
ROOT
HETATM    1  C   UNL     1      24.895  44.134  50.681  1.00  0.00     0.118 C 
HETATM    2  N   UNL     1      25.947  44.244  51.704  1.00  0.00    -0.365 N 
HETATM    3  C   UNL     1      25.982  45.406  52.418  1.00  0.00     0.138 C 
HETATM    4  N   UNL     1      25.400  46.553  51.921  1.00  0.00    -0.240 N 
HETATM    5  N   UNL     1      25.319  47.542  52.823  1.00  0.00    -0.181 NA
HETATM    6  C   UNL     1      26.007  47.066  53.865  1.00  0.00     0.160 C 
HETATM    7  C   UNL     1      26.483  45.748  53.660  1.00  0.00     0.096 C 
HETATM    8  C   UNL     1      24.707  46.646  50.647  1.00  0.00     0.221 C 
HETATM    9  C   UNL     1      24.938  45.384  49.796  1.00  0.00     0.066 C 
HETATM   10  H   UNL     1      26.062  43.366  52.215  1.00  0.00     0.161 HD
ENDROOT
BRANCH   7  11
HETATM   11  C   UNL     1      27.264  44.968  54.602  1.00  0.00     0.261 C 
HETATM   12  N   UNL     1      28.541  45.460  54.801  1.00  0.00    -0.323 N 
HETATM   13  H   UNL     1      28.748  46.339  54.338  1.00  0.00     0.169 HD
HETATM   14  O   UNL     1      26.763  44.010  55.180  1.00  0.00    -0.267 OA
BRANCH  12  15
HETATM   15  C   UNL     1      29.519  44.963  55.688  1.00  0.00     0.037 A 
HETATM   16  C   UNL     1      29.829  45.555  56.915  1.00  0.00     0.066 A 
HETATM   17  C   UNL     1      30.823  45.003  57.722  1.00  0.00     0.067 A 
HETATM   18  C   UNL     1      31.519  43.868  57.328  1.00  0.00     0.036 A 
HETATM   19  C   UNL     1      31.211  43.267  56.111  1.00  0.00     0.005 A 
HETATM   20  C   UNL     1      30.212  43.809  55.297  1.00  0.00     0.029 A 
BRANCH  17  21
HETATM   21  O   UNL     1      31.148  45.561  58.925  1.00  0.00    -0.361 OA
HETATM   22  H   UNL     1      30.332  45.879  59.347  1.00  0.00     0.217 HD
ENDBRANCH  17  21
ENDBRANCH  12  15
ENDBRANCH   7  11
BRANCH   1  23
HETATM   23  C   UNL     1      25.068  42.864  49.874  1.00  0.00    -0.033 A 
HETATM   24  C   UNL     1      24.478  42.707  48.608  1.00  0.00     0.046 A 
HETATM   25  C   UNL     1      24.596  41.508  47.896  1.00  0.00     0.068 A 
HETATM   26  C   UNL     1      25.326  40.455  48.444  1.00  0.00     0.037 A 
HETATM   27  C   UNL     1      25.929  40.599  49.696  1.00  0.00     0.003 A 
HETATM   28  C   UNL     1      25.800  41.792  50.406  1.00  0.00     0.009 A 
BRANCH  25  29
HETATM   29  O   UNL     1      23.954  41.496  46.688  1.00  0.00    -0.356 OA
HETATM   30  C   UNL     1      22.560  41.783  46.700  1.00  0.00     0.210 C 
ENDBRANCH  25  29
ENDBRANCH   1  23
BRANCH   8  31
HETATM   31  C   UNL     1      25.140  47.869  49.870  1.00  0.00     0.409 C 
HETATM   32  F   UNL     1      26.369  48.300  50.233  1.00  0.00    -0.169 F 
HETATM   33  F   UNL     1      25.213  47.564  48.545  1.00  0.00    -0.169 F 
HETATM   34  F   UNL     1      24.283  48.906  49.968  1.00  0.00    -0.169 F 
ENDBRANCH   8  31
TORSDOF 6
ENDMDL
MODEL 7
REMARK VINA RESULT:      -8.7      4.324      8.039
REMARK  6 active torsions:
REMARK  status: ('A' for Active; 'I' for Inactive)
REMARK    1  A    between atoms: O_2  and  C_3 
REMARK    2  A    between atoms: C_5  and  C_6 
REMARK    3  A    between atoms: C_12  and  C_13 
REMARK       I    between atoms: C_13  and  N_14 
REMARK    4  A    between atoms: N_14  and  C_15 
REMARK    5  A    between atoms: C_17  and  O_18 
REMARK    6  A    between atoms: C_23  and  C_24 
ROOT
HETATM    1  C   UNL     1      26.249  40.577  49.933  1.00  0.00     0.118 C 
HETATM    2  N   UNL     1      27.075  41.635  50.536  1.00  0.00    -0.365 N 
HETATM    3  C   UNL     1      26.408  42.647  51.161  1.00  0.00     0.138 C 
HETATM    4  N   UNL     1      25.089  42.910  50.858  1.00  0.00    -0.240 N 
HETATM    5  N   UNL     1      24.511  43.774  51.706  1.00  0.00    -0.181 NA
HETATM    6  C   UNL     1      25.529  44.188  52.466  1.00  0.00     0.160 C 
HETATM    7  C   UNL     1      26.752  43.549  52.150  1.00  0.00     0.096 C 
HETATM    8  C   UNL     1      24.295  42.168  49.893  1.00  0.00     0.221 C 
HETATM    9  C   UNL     1      25.181  41.232  49.051  1.00  0.00     0.066 C 
HETATM   10  H   UNL     1      27.897  41.245  51.003  1.00  0.00     0.161 HD
ENDROOT
BRANCH   7  11
HETATM   11  C   UNL     1      28.030  43.791  52.794  1.00  0.00     0.261 C 
HETATM   12  N   UNL     1      27.942  43.912  54.169  1.00  0.00    -0.323 N 
HETATM   13  H   UNL     1      27.025  43.738  54.565  1.00  0.00     0.169 HD
HETATM   14  O   UNL     1      29.063  43.815  52.133  1.00  0.00    -0.267 OA
BRANCH  12  15
HETATM   15  C   UNL     1      29.004  44.096  55.079  1.00  0.00     0.037 A 
HETATM   16  C   UNL     1      29.126  45.206  55.919  1.00  0.00     0.066 A 
HETATM   17  C   UNL     1      30.219  45.312  56.778  1.00  0.00     0.067 A 
HETATM   18  C   UNL     1      31.198  44.329  56.817  1.00  0.00     0.036 A 
HETATM   19  C   UNL     1      31.082  43.215  55.991  1.00  0.00     0.005 A 
HETATM   20  C   UNL     1      29.987  43.096  55.129  1.00  0.00     0.029 A 
BRANCH  17  21
HETATM   21  O   UNL     1      30.365  46.387  57.607  1.00  0.00    -0.361 OA
HETATM   22  H   UNL     1      31.314  46.566  57.713  1.00  0.00     0.217 HD
ENDBRANCH  17  21
ENDBRANCH  12  15
ENDBRANCH   7  11
BRANCH   1  23
HETATM   23  C   UNL     1      27.111  39.608  49.152  1.00  0.00    -0.033 A 
HETATM   24  C   UNL     1      28.224  38.976  49.732  1.00  0.00     0.046 A 
HETATM   25  C   UNL     1      29.048  38.126  48.985  1.00  0.00     0.068 A 
HETATM   26  C   UNL     1      28.750  37.889  47.645  1.00  0.00     0.037 A 
HETATM   27  C   UNL     1      27.640  38.500  47.056  1.00  0.00     0.003 A 
HETATM   28  C   UNL     1      26.828  39.353  47.802  1.00  0.00     0.009 A 
BRANCH  25  29
HETATM   29  O   UNL     1      30.103  37.598  49.678  1.00  0.00    -0.356 OA
HETATM   30  C   UNL     1      30.056  37.707  51.097  1.00  0.00     0.210 C 
ENDBRANCH  25  29
ENDBRANCH   1  23
BRANCH   8  31
HETATM   31  C   UNL     1      23.525  43.096  48.980  1.00  0.00     0.409 C 
HETATM   32  F   UNL     1      22.402  43.573  49.562  1.00  0.00    -0.169 F 
HETATM   33  F   UNL     1      24.294  44.178  48.679  1.00  0.00    -0.169 F 
HETATM   34  F   UNL     1      23.186  42.538  47.800  1.00  0.00    -0.169 F 
ENDBRANCH   8  31
TORSDOF 6
ENDMDL
MODEL 8
REMARK VINA RESULT:      -8.7      3.782      8.585
REMARK  6 active torsions:
REMARK  status: ('A' for Active; 'I' for Inactive)
REMARK    1  A    between atoms: O_2  and  C_3 
REMARK    2  A    between atoms: C_5  and  C_6 
REMARK    3  A    between atoms: C_12  and  C_13 
REMARK       I    between atoms: C_13  and  N_14 
REMARK    4  A    between atoms: N_14  and  C_15 
REMARK    5  A    between atoms: C_17  and  O_18 
REMARK    6  A    between atoms: C_23  and  C_24 
ROOT
HETATM    1  C   UNL     1      25.909  46.113  51.801  1.00  0.00     0.118 C 
HETATM    2  N   UNL     1      26.648  44.993  51.197  1.00  0.00    -0.365 N 
HETATM    3  C   UNL     1      27.094  44.027  52.052  1.00  0.00     0.138 C 
HETATM    4  N   UNL     1      27.253  44.297  53.394  1.00  0.00    -0.240 N 
HETATM    5  N   UNL     1      27.476  43.199  54.133  1.00  0.00    -0.181 NA
HETATM    6  C   UNL     1      27.620  42.235  53.219  1.00  0.00     0.160 C 
HETATM    7  C   UNL     1      27.430  42.696  51.893  1.00  0.00     0.096 C 
HETATM    8  C   UNL     1      26.968  45.575  54.023  1.00  0.00     0.221 C 
HETATM    9  C   UNL     1      26.729  46.671  52.968  1.00  0.00     0.066 C 
HETATM   10  H   UNL     1      26.218  44.693  50.319  1.00  0.00     0.161 HD
ENDROOT
BRANCH   7  11
HETATM   11  C   UNL     1      27.527  41.890  50.690  1.00  0.00     0.261 C 
HETATM   12  N   UNL     1      27.666  40.537  50.941  1.00  0.00    -0.323 N 
HETATM   13  H   UNL     1      27.601  40.264  51.916  1.00  0.00     0.169 HD
HETATM   14  O   UNL     1      27.427  42.412  49.585  1.00  0.00    -0.267 OA
BRANCH  12  15
HETATM   15  C   UNL     1      27.731  39.495  49.992  1.00  0.00     0.037 A 
HETATM   16  C   UNL     1      26.616  38.784  49.541  1.00  0.00     0.066 A 
HETATM   17  C   UNL     1      26.777  37.757  48.611  1.00  0.00     0.067 A 
HETATM   18  C   UNL     1      28.032  37.423  48.121  1.00  0.00     0.036 A 
HETATM   19  C   UNL     1      29.147  38.131  48.559  1.00  0.00     0.005 A 
HETATM   20  C   UNL     1      28.997  39.166  49.487  1.00  0.00     0.029 A 
BRANCH  17  21
HETATM   21  O   UNL     1      25.706  37.044  48.154  1.00  0.00    -0.361 OA
HETATM   22  H   UNL     1      24.914  37.604  48.217  1.00  0.00     0.217 HD
ENDBRANCH  17  21
ENDBRANCH  12  15
ENDBRANCH   7  11
BRANCH   1  23
HETATM   23  C   UNL     1      25.608  47.174  50.763  1.00  0.00    -0.033 A 
HETATM   24  C   UNL     1      24.299  47.422  50.318  1.00  0.00     0.046 A 
HETATM   25  C   UNL     1      24.039  48.365  49.317  1.00  0.00     0.068 A 
HETATM   26  C   UNL     1      25.096  49.083  48.762  1.00  0.00     0.037 A 
HETATM   27  C   UNL     1      26.402  48.858  49.202  1.00  0.00     0.003 A 
HETATM   28  C   UNL     1      26.657  47.910  50.193  1.00  0.00     0.009 A 
BRANCH  25  29
HETATM   29  O   UNL     1      22.719  48.484  48.973  1.00  0.00    -0.356 OA
HETATM   30  C   UNL     1      22.209  47.529  48.051  1.00  0.00     0.210 C 
ENDBRANCH  25  29
ENDBRANCH   1  23
BRANCH   8  31
HETATM   31  C   UNL     1      28.086  45.997  54.950  1.00  0.00     0.409 C 
HETATM   32  F   UNL     1      29.280  45.480  54.583  1.00  0.00    -0.169 F 
HETATM   33  F   UNL     1      28.221  47.350  54.912  1.00  0.00    -0.169 F 
HETATM   34  F   UNL     1      27.868  45.679  56.243  1.00  0.00    -0.169 F 
ENDBRANCH   8  31
TORSDOF 6
ENDMDL
MODEL 9
REMARK VINA RESULT:      -8.6      2.474      8.671
REMARK  6 active torsions:
REMARK  status: ('A' for Active; 'I' for Inactive)
REMARK    1  A    between atoms: O_2  and  C_3 
REMARK    2  A    between atoms: C_5  and  C_6 
REMARK    3  A    between atoms: C_12  and  C_13 
REMARK       I    between atoms: C_13  and  N_14 
REMARK    4  A    between atoms: N_14  and  C_15 
REMARK    5  A    between atoms: C_17  and  O_18 
REMARK    6  A    between atoms: C_23  and  C_24 
ROOT
HETATM    1  C   UNL     1      22.887  47.709  48.632  1.00  0.00     0.118 C 
HETATM    2  N   UNL     1      23.589  47.377  49.882  1.00  0.00    -0.365 N 
HETATM    3  C   UNL     1      24.282  46.202  49.897  1.00  0.00     0.138 C 
HETATM    4  N   UNL     1      23.976  45.196  49.006  1.00  0.00    -0.240 N 
HETATM    5  N   UNL     1      24.881  44.205  48.992  1.00  0.00    -0.181 NA
HETATM    6  C   UNL     1      25.691  44.513  50.009  1.00  0.00     0.160 C 
HETATM    7  C   UNL     1      25.348  45.732  50.642  1.00  0.00     0.096 C 
HETATM    8  C   UNL     1      22.939  45.273  47.991  1.00  0.00     0.221 C 
HETATM    9  C   UNL     1      22.041  46.504  48.210  1.00  0.00     0.066 C 
HETATM   10  H   UNL     1      24.039  48.202  50.287  1.00  0.00     0.161 HD
ENDROOT
BRANCH   7  11
HETATM   11  C   UNL     1      26.034  46.326  51.774  1.00  0.00     0.261 C 
HETATM   12  N   UNL     1      26.564  45.396  52.649  1.00  0.00    -0.323 N 
HETATM   13  H   UNL     1      26.485  44.427  52.358  1.00  0.00     0.169 HD
HETATM   14  O   UNL     1      26.150  47.544  51.859  1.00  0.00    -0.267 OA
BRANCH  12  15
HETATM   15  C   UNL     1      27.327  45.651  53.808  1.00  0.00     0.037 A 
HETATM   16  C   UNL     1      28.403  44.861  54.220  1.00  0.00     0.066 A 
HETATM   17  C   UNL     1      29.092  45.179  55.389  1.00  0.00     0.067 A 
HETATM   18  C   UNL     1      28.729  46.275  56.161  1.00  0.00     0.036 A 
HETATM   19  C   UNL     1      27.663  47.072  55.754  1.00  0.00     0.005 A 
HETATM   20  C   UNL     1      26.969  46.765  54.580  1.00  0.00     0.029 A 
BRANCH  17  21
HETATM   21  O   UNL     1      30.146  44.424  55.817  1.00  0.00    -0.361 OA
HETATM   22  H   UNL     1      30.945  44.978  55.807  1.00  0.00     0.217 HD
ENDBRANCH  17  21
ENDBRANCH  12  15
ENDBRANCH   7  11
BRANCH   1  23
HETATM   23  C   UNL     1      22.047  48.956  48.809  1.00  0.00    -0.033 A 
HETATM   24  C   UNL     1      20.766  48.909  49.384  1.00  0.00     0.046 A 
HETATM   25  C   UNL     1      19.974  50.058  49.490  1.00  0.00     0.068 A 
HETATM   26  C   UNL     1      20.471  51.276  49.030  1.00  0.00     0.037 A 
HETATM   27  C   UNL     1      21.747  51.343  48.466  1.00  0.00     0.003 A 
HETATM   28  C   UNL     1      22.528  50.193  48.354  1.00  0.00     0.009 A 
BRANCH  25  29
HETATM   29  O   UNL     1      18.744  49.855  50.055  1.00  0.00    -0.356 OA
HETATM   30  C   UNL     1      18.618  48.739  50.929  1.00  0.00     0.210 C 
ENDBRANCH  25  29
ENDBRANCH   1  23
BRANCH   8  31
HETATM   31  C   UNL     1      22.090  44.021  47.972  1.00  0.00     0.409 C 
HETATM   32  F   UNL     1      21.986  43.452  49.194  1.00  0.00    -0.169 F 
HETATM   33  F   UNL     1      20.824  44.337  47.583  1.00  0.00    -0.169 F 
HETATM   34  F   UNL     1      22.525  43.084  47.105  1.00  0.00    -0.169 F 
ENDBRANCH   8  31
TORSDOF 6
ENDMDL
MODEL 10
REMARK VINA RESULT:      -8.5      1.911      2.636
REMARK  6 active torsions:
REMARK  status: ('A' for Active; 'I' for Inactive)
REMARK    1  A    between atoms: O_2  and  C_3 
REMARK    2  A    between atoms: C_5  and  C_6 
REMARK    3  A    between atoms: C_12  and  C_13 
REMARK       I    between atoms: C_13  and  N_14 
REMARK    4  A    between atoms: N_14  and  C_15 
REMARK    5  A    between atoms: C_17  and  O_18 
REMARK    6  A    between atoms: C_23  and  C_24 
ROOT
HETATM    1  C   UNL     1      25.948  44.718  52.669  1.00  0.00     0.118 C 
HETATM    2  N   UNL     1      25.586  45.726  51.660  1.00  0.00    -0.365 N 
HETATM    3  C   UNL     1      24.847  45.288  50.600  1.00  0.00     0.138 C 
HETATM    4  N   UNL     1      24.838  43.953  50.255  1.00  0.00    -0.240 N 
HETATM    5  N   UNL     1      23.901  43.646  49.346  1.00  0.00    -0.181 NA
HETATM    6  C   UNL     1      23.413  44.838  48.990  1.00  0.00     0.160 C 
HETATM    7  C   UNL     1      23.992  45.911  49.711  1.00  0.00     0.096 C 
HETATM    8  C   UNL     1      25.569  42.910  50.955  1.00  0.00     0.221 C 
HETATM    9  C   UNL     1      26.571  43.513  51.957  1.00  0.00     0.066 C 
HETATM   10  H   UNL     1      25.315  46.610  52.098  1.00  0.00     0.161 HD
ENDROOT
BRANCH   7  11
HETATM   11  C   UNL     1      23.674  47.318  49.545  1.00  0.00     0.261 C 
HETATM   12  N   UNL     1      22.418  47.541  49.012  1.00  0.00    -0.323 N 
HETATM   13  H   UNL     1      21.846  46.714  48.880  1.00  0.00     0.169 HD
HETATM   14  O   UNL     1      24.463  48.179  49.918  1.00  0.00    -0.267 OA
BRANCH  12  15
HETATM   15  C   UNL     1      21.798  48.787  48.781  1.00  0.00     0.037 A 
HETATM   16  C   UNL     1      20.896  49.026  47.741  1.00  0.00     0.066 A 
HETATM   17  C   UNL     1      20.343  50.295  47.578  1.00  0.00     0.067 A 
HETATM   18  C   UNL     1      20.672  51.337  48.435  1.00  0.00     0.036 A 
HETATM   19  C   UNL     1      21.563  51.107  49.478  1.00  0.00     0.005 A 
HETATM   20  C   UNL     1      22.120  49.836  49.654  1.00  0.00     0.029 A 
BRANCH  17  21
HETATM   21  O   UNL     1      19.460  50.558  46.570  1.00  0.00    -0.361 OA
HETATM   22  H   UNL     1      19.761  50.095  45.770  1.00  0.00     0.217 HD
ENDBRANCH  17  21
ENDBRANCH  12  15
ENDBRANCH   7  11
BRANCH   1  23
HETATM   23  C   UNL     1      26.884  45.310  53.702  1.00  0.00    -0.033 A 
HETATM   24  C   UNL     1      26.762  46.641  54.133  1.00  0.00     0.046 A 
HETATM   25  C   UNL     1      27.667  47.195  55.045  1.00  0.00     0.068 A 
HETATM   26  C   UNL     1      28.701  46.407  55.547  1.00  0.00     0.037 A 
HETATM   27  C   UNL     1      28.830  45.078  55.137  1.00  0.00     0.003 A 
HETATM   28  C   UNL     1      27.931  44.534  54.221  1.00  0.00     0.009 A 
BRANCH  25  29
HETATM   29  O   UNL     1      27.433  48.507  55.358  1.00  0.00    -0.356 OA
HETATM   30  C   UNL     1      26.276  48.782  56.139  1.00  0.00     0.210 C 
ENDBRANCH  25  29
ENDBRANCH   1  23
BRANCH   8  31
HETATM   31  C   UNL     1      26.299  42.003  49.989  1.00  0.00     0.409 C 
HETATM   32  F   UNL     1      27.387  41.428  50.547  1.00  0.00    -0.169 F 
HETATM   33  F   UNL     1      25.476  40.988  49.609  1.00  0.00    -0.169 F 
HETATM   34  F   UNL     1      26.682  42.619  48.852  1.00  0.00    -0.169 F 
ENDBRANCH   8  31
TORSDOF 6
ENDMDL
