MODEL 1
REMARK VINA RESULT:      -8.0      0.000      0.000
REMARK  6 active torsions:
REMARK  status: ('A' for Active; 'I' for Inactive)
REMARK    1  A    between atoms: C_9  and  C_10 
REMARK    2  A    between atoms: C_12  and  O_13 
REMARK    3  A    between atoms: C_15  and  O_16 
REMARK    4  A    between atoms: O_16  and  C_17 
REMARK    5  A    between atoms: C_17  and  C_18 
REMARK    6  A    between atoms: C_18  and  N_19 
ROOT
HETATM    1  H   UNL     1      14.214  54.001  46.712  1.00  0.00     0.186 HD
HETATM    2  N   UNL     1      14.882  53.516  47.330  1.00  0.00    -0.304 NA
HETATM    3  C   UNL     1      15.240  52.325  46.966  1.00  0.00     0.062 C 
HETATM    4  C   UNL     1      16.251  51.540  47.823  1.00  0.00     0.186 C 
HETATM    5  C   UNL     1      16.556  52.233  49.090  1.00  0.00     0.091 C 
HETATM    6  N   UNL     1      16.889  52.718  50.090  1.00  0.00    -0.195 NA
HETATM    7  C   UNL     1      15.687  50.210  48.091  1.00  0.00     0.091 C 
HETATM    8  N   UNL     1      15.280  49.126  48.174  1.00  0.00    -0.195 NA
HETATM    9  C   UNL     1      17.556  51.458  46.944  1.00  0.00     0.071 C 
HETATM   10  C   UNL     1      17.299  50.795  45.543  1.00  0.00     0.053 C 
HETATM   11  C   UNL     1      16.118  51.482  44.828  1.00  0.00    -0.053 C 
HETATM   12  C   UNL     1      16.254  51.889  43.544  1.00  0.00     0.005 C 
HETATM   13  C   UNL     1      14.819  51.657  45.651  1.00  0.00     0.157 C 
HETATM   14  C   UNL     1      13.787  52.488  44.905  1.00  0.00    -0.005 C 
HETATM   15  N   UNL     1      12.932  53.178  44.285  1.00  0.00    -0.101 N 
HETATM   16  C   UNL     1      18.612  50.820  44.700  1.00  0.00     0.244 C 
HETATM   17  N   UNL     1      18.365  50.615  43.231  1.00  0.00    -0.071 N 
HETATM   18  H   UNL     1      19.266  50.753  42.753  1.00  0.00     0.279 HD
HETATM   19  C   UNL     1      17.940  49.220  42.859  1.00  0.00     0.270 C 
HETATM   20  C   UNL     1      17.458  51.677  42.683  1.00  0.00     0.262 C 
ENDROOT
BRANCH   9  21
HETATM   21  C   UNL     1      18.790  50.889  47.660  1.00  0.00    -0.047 A 
HETATM   22  C   UNL     1      18.935  49.537  48.000  1.00  0.00     0.047 A 
HETATM   23  C   UNL     1      20.029  49.108  48.773  1.00  0.00     0.102 A 
HETATM   24  C   UNL     1      21.051  49.994  49.142  1.00  0.00     0.102 A 
HETATM   25  C   UNL     1      20.950  51.324  48.741  1.00  0.00     0.040 A 
HETATM   26  C   UNL     1      19.824  51.769  48.032  1.00  0.00     0.010 A 
BRANCH  23  27
HETATM   27  O   UNL     1      20.151  47.793  49.157  1.00  0.00    -0.353 OA
HETATM   28  C   UNL     1      20.302  46.913  48.038  1.00  0.00     0.210 C 
ENDBRANCH  23  27
BRANCH  24  29
HETATM   29  O   UNL     1      22.067  49.468  49.900  1.00  0.00    -0.347 OA
BRANCH  29  30
HETATM   30  C   UNL     1      23.316  49.208  49.255  1.00  0.00     0.203 C 
BRANCH  30  31
HETATM   31  C   UNL     1      23.785  47.803  49.659  1.00  0.00     0.261 C 
BRANCH  31  32
HETATM   32  N   UNL     1      25.293  47.722  49.803  1.00  0.00    -0.065 N 
HETATM   33  H   UNL     1      25.498  47.975  50.784  1.00  0.00     0.280 HD
HETATM   34  C   UNL     1      25.863  46.331  49.555  1.00  0.00     0.261 C 
HETATM   35  C   UNL     1      27.391  46.364  49.685  1.00  0.00     0.195 C 
HETATM   36  O   UNL     1      27.961  47.313  48.781  1.00  0.00    -0.388 OA
HETATM   37  C   UNL     1      27.505  48.641  49.056  1.00  0.00     0.195 C 
HETATM   38  C   UNL     1      25.986  48.741  48.896  1.00  0.00     0.261 C 
ENDBRANCH  31  32
ENDBRANCH  30  31
ENDBRANCH  29  30
ENDBRANCH  24  29
ENDBRANCH   9  21
TORSDOF 6
ENDMDL
MODEL 2
REMARK VINA RESULT:      -8.0     11.448     14.601
REMARK  6 active torsions:
REMARK  status: ('A' for Active; 'I' for Inactive)
REMARK    1  A    between atoms: C_9  and  C_10 
REMARK    2  A    between atoms: C_12  and  O_13 
REMARK    3  A    between atoms: C_15  and  O_16 
REMARK    4  A    between atoms: O_16  and  C_17 
REMARK    5  A    between atoms: C_17  and  C_18 
REMARK    6  A    between atoms: C_18  and  N_19 
ROOT
HETATM    1  H   UNL     1      25.313  50.719  37.442  1.00  0.00     0.186 HD
HETATM    2  N   UNL     1      26.176  51.052  37.899  1.00  0.00    -0.304 NA
HETATM    3  C   UNL     1      26.747  50.226  38.718  1.00  0.00     0.062 C 
HETATM    4  C   UNL     1      28.050  50.639  39.427  1.00  0.00     0.186 C 
HETATM    5  C   UNL     1      28.387  52.055  39.184  1.00  0.00     0.091 C 
HETATM    6  N   UNL     1      28.757  53.143  39.019  1.00  0.00    -0.195 NA
HETATM    7  C   UNL     1      27.884  50.394  40.867  1.00  0.00     0.091 C 
HETATM    8  N   UNL     1      27.775  50.067  41.975  1.00  0.00    -0.195 NA
HETATM    9  C   UNL     1      29.166  49.720  38.801  1.00  0.00     0.071 C 
HETATM   10  C   UNL     1      28.845  48.190  38.956  1.00  0.00     0.053 C 
HETATM   11  C   UNL     1      27.428  47.879  38.434  1.00  0.00    -0.053 C 
HETATM   12  C   UNL     1      27.240  46.854  37.570  1.00  0.00     0.005 C 
HETATM   13  C   UNL     1      26.285  48.783  38.956  1.00  0.00     0.157 C 
HETATM   14  C   UNL     1      24.970  48.491  38.252  1.00  0.00    -0.005 C 
HETATM   15  N   UNL     1      23.879  48.249  37.666  1.00  0.00    -0.101 N 
HETATM   16  C   UNL     1      29.949  47.346  38.245  1.00  0.00     0.244 C 
HETATM   17  N   UNL     1      29.513  45.933  37.968  1.00  0.00    -0.071 N 
HETATM   18  H   UNL     1      30.258  45.494  37.410  1.00  0.00     0.279 HD
HETATM   19  C   UNL     1      29.387  45.068  39.192  1.00  0.00     0.270 C 
HETATM   20  C   UNL     1      28.294  45.906  37.094  1.00  0.00     0.262 C 
ENDROOT
BRANCH   9  21
HETATM   21  C   UNL     1      30.606  50.075  39.203  1.00  0.00    -0.047 A 
HETATM   22  C   UNL     1      31.176  49.724  40.435  1.00  0.00     0.047 A 
HETATM   23  C   UNL     1      32.452  50.196  40.791  1.00  0.00     0.102 A 
HETATM   24  C   UNL     1      33.227  50.946  39.896  1.00  0.00     0.102 A 
HETATM   25  C   UNL     1      32.695  51.232  38.641  1.00  0.00     0.040 A 
HETATM   26  C   UNL     1      31.394  50.824  38.310  1.00  0.00     0.010 A 
BRANCH  23  27
HETATM   27  O   UNL     1      32.997  49.902  42.020  1.00  0.00    -0.353 OA
HETATM   28  C   UNL     1      32.150  50.309  43.100  1.00  0.00     0.210 C 
ENDBRANCH  23  27
BRANCH  24  29
HETATM   29  O   UNL     1      34.454  51.358  40.352  1.00  0.00    -0.347 OA
BRANCH  29  30
HETATM   30  C   UNL     1      35.487  51.574  39.387  1.00  0.00     0.203 C 
BRANCH  30  31
HETATM   31  C   UNL     1      36.817  51.741  40.134  1.00  0.00     0.261 C 
BRANCH  31  32
HETATM   32  N   UNL     1      37.191  53.200  40.319  1.00  0.00    -0.065 N 
HETATM   33  H   UNL     1      38.159  53.291  39.969  1.00  0.00     0.280 HD
HETATM   34  C   UNL     1      36.320  54.166  39.525  1.00  0.00     0.261 C 
HETATM   35  C   UNL     1      36.751  55.610  39.810  1.00  0.00     0.195 C 
HETATM   36  O   UNL     1      36.681  55.898  41.209  1.00  0.00    -0.388 OA
HETATM   37  C   UNL     1      37.561  55.059  41.963  1.00  0.00     0.195 C 
HETATM   38  C   UNL     1      37.184  53.584  41.800  1.00  0.00     0.261 C 
ENDBRANCH  31  32
ENDBRANCH  30  31
ENDBRANCH  29  30
ENDBRANCH  24  29
ENDBRANCH   9  21
TORSDOF 6
ENDMDL
MODEL 3
REMARK VINA RESULT:      -7.9     11.439     14.327
REMARK  6 active torsions:
REMARK  status: ('A' for Active; 'I' for Inactive)
REMARK    1  A    between atoms: C_9  and  C_10 
REMARK    2  A    between atoms: C_12  and  O_13 
REMARK    3  A    between atoms: C_15  and  O_16 
REMARK    4  A    between atoms: O_16  and  C_17 
REMARK    5  A    between atoms: C_17  and  C_18 
REMARK    6  A    between atoms: C_18  and  N_19 
ROOT
HETATM    1  H   UNL     1      25.341  50.727  37.450  1.00  0.00     0.186 HD
HETATM    2  N   UNL     1      26.194  51.054  37.929  1.00  0.00    -0.304 NA
HETATM    3  C   UNL     1      26.755  50.215  38.741  1.00  0.00     0.062 C 
HETATM    4  C   UNL     1      28.045  50.619  39.480  1.00  0.00     0.186 C 
HETATM    5  C   UNL     1      28.379  52.041  39.270  1.00  0.00     0.091 C 
HETATM    6  N   UNL     1      28.748  53.133  39.131  1.00  0.00    -0.195 NA
HETATM    7  C   UNL     1      27.854  50.346  40.912  1.00  0.00     0.091 C 
HETATM    8  N   UNL     1      27.728  49.998  42.012  1.00  0.00    -0.195 NA
HETATM    9  C   UNL     1      29.174  49.716  38.856  1.00  0.00     0.071 C 
HETATM   10  C   UNL     1      28.857  48.182  38.977  1.00  0.00     0.053 C 
HETATM   11  C   UNL     1      27.450  47.877  38.425  1.00  0.00    -0.053 C 
HETATM   12  C   UNL     1      27.281  46.868  37.538  1.00  0.00     0.005 C 
HETATM   13  C   UNL     1      26.295  48.766  38.944  1.00  0.00     0.157 C 
HETATM   14  C   UNL     1      24.993  48.482  38.212  1.00  0.00    -0.005 C 
HETATM   15  N   UNL     1      23.913  48.248  37.604  1.00  0.00    -0.101 N 
HETATM   16  C   UNL     1      29.976  47.356  38.269  1.00  0.00     0.244 C 
HETATM   17  N   UNL     1      29.551  45.947  37.958  1.00  0.00    -0.071 N 
HETATM   18  H   UNL     1      30.307  45.522  37.404  1.00  0.00     0.279 HD
HETATM   19  C   UNL     1      29.407  45.058  39.163  1.00  0.00     0.270 C 
HETATM   20  C   UNL     1      28.347  45.933  37.062  1.00  0.00     0.262 C 
ENDROOT
BRANCH   9  21
HETATM   21  C   UNL     1      30.606  50.069  39.289  1.00  0.00    -0.047 A 
HETATM   22  C   UNL     1      31.147  49.721  40.534  1.00  0.00     0.047 A 
HETATM   23  C   UNL     1      32.415  50.191  40.918  1.00  0.00     0.102 A 
HETATM   24  C   UNL     1      33.213  50.935  40.038  1.00  0.00     0.102 A 
HETATM   25  C   UNL     1      32.710  51.219  38.770  1.00  0.00     0.040 A 
HETATM   26  C   UNL     1      31.416  50.813  38.411  1.00  0.00     0.010 A 
BRANCH  23  27
HETATM   27  O   UNL     1      32.932  49.900  42.160  1.00  0.00    -0.353 OA
HETATM   28  C   UNL     1      32.154  50.471  43.218  1.00  0.00     0.210 C 
ENDBRANCH  23  27
BRANCH  24  29
HETATM   29  O   UNL     1      34.430  51.346  40.520  1.00  0.00    -0.347 OA
BRANCH  29  30
HETATM   30  C   UNL     1      35.054  52.467  39.889  1.00  0.00     0.203 C 
BRANCH  30  31
HETATM   31  C   UNL     1      36.504  52.556  40.387  1.00  0.00     0.261 C 
BRANCH  31  32
HETATM   32  N   UNL     1      36.616  53.331  41.687  1.00  0.00    -0.065 N 
HETATM   33  H   UNL     1      35.766  53.917  41.742  1.00  0.00     0.280 HD
HETATM   34  C   UNL     1      36.652  52.451  42.929  1.00  0.00     0.261 C 
HETATM   35  C   UNL     1      36.806  53.323  44.182  1.00  0.00     0.195 C 
HETATM   36  O   UNL     1      37.982  54.132  44.100  1.00  0.00    -0.388 OA
HETATM   37  C   UNL     1      37.927  55.030  42.988  1.00  0.00     0.195 C 
HETATM   38  C   UNL     1      37.831  54.260  41.668  1.00  0.00     0.261 C 
ENDBRANCH  31  32
ENDBRANCH  30  31
ENDBRANCH  29  30
ENDBRANCH  24  29
ENDBRANCH   9  21
TORSDOF 6
ENDMDL
MODEL 4
REMARK VINA RESULT:      -7.8      1.422      1.735
REMARK  6 active torsions:
REMARK  status: ('A' for Active; 'I' for Inactive)
REMARK    1  A    between atoms: C_9  and  C_10 
REMARK    2  A    between atoms: C_12  and  O_13 
REMARK    3  A    between atoms: C_15  and  O_16 
REMARK    4  A    between atoms: O_16  and  C_17 
REMARK    5  A    between atoms: C_17  and  C_18 
REMARK    6  A    between atoms: C_18  and  N_19 
ROOT
HETATM    1  H   UNL     1      14.553  54.077  47.243  1.00  0.00     0.186 HD
HETATM    2  N   UNL     1      15.186  53.434  47.744  1.00  0.00    -0.304 NA
HETATM    3  C   UNL     1      15.410  52.291  47.177  1.00  0.00     0.062 C 
HETATM    4  C   UNL     1      16.359  51.283  47.850  1.00  0.00     0.186 C 
HETATM    5  C   UNL     1      16.768  51.723  49.198  1.00  0.00     0.091 C 
HETATM    6  N   UNL     1      17.177  52.002  50.248  1.00  0.00    -0.195 NA
HETATM    7  C   UNL     1      15.670  49.986  47.923  1.00  0.00     0.091 C 
HETATM    8  N   UNL     1      15.157  48.948  47.848  1.00  0.00    -0.195 NA
HETATM    9  C   UNL     1      17.624  51.222  46.913  1.00  0.00     0.071 C 
HETATM   10  C   UNL     1      17.262  50.828  45.435  1.00  0.00     0.053 C 
HETATM   11  C   UNL     1      16.138  51.734  44.894  1.00  0.00    -0.053 C 
HETATM   12  C   UNL     1      16.279  52.332  43.688  1.00  0.00     0.005 C 
HETATM   13  C   UNL     1      14.887  51.894  45.790  1.00  0.00     0.157 C 
HETATM   14  C   UNL     1      13.925  52.932  45.235  1.00  0.00    -0.005 C 
HETATM   15  N   UNL     1      13.127  53.794  44.774  1.00  0.00    -0.101 N 
HETATM   16  C   UNL     1      18.547  50.866  44.551  1.00  0.00     0.244 C 
HETATM   17  N   UNL     1      18.240  50.931  43.080  1.00  0.00    -0.071 N 
HETATM   18  H   UNL     1      19.137  51.059  42.592  1.00  0.00     0.279 HD
HETATM   19  C   UNL     1      17.665  49.665  42.506  1.00  0.00     0.270 C 
HETATM   20  C   UNL     1      17.431  52.151  42.751  1.00  0.00     0.262 C 
ENDROOT
BRANCH   9  21
HETATM   21  C   UNL     1      18.813  50.427  47.472  1.00  0.00    -0.047 A 
HETATM   22  C   UNL     1      18.827  49.030  47.586  1.00  0.00     0.047 A 
HETATM   23  C   UNL     1      19.893  48.377  48.231  1.00  0.00     0.102 A 
HETATM   24  C   UNL     1      21.012  49.087  48.688  1.00  0.00     0.102 A 
HETATM   25  C   UNL     1      21.037  50.467  48.508  1.00  0.00     0.040 A 
HETATM   26  C   UNL     1      19.943  51.129  47.931  1.00  0.00     0.010 A 
BRANCH  23  27
HETATM   27  O   UNL     1      19.889  47.011  48.396  1.00  0.00    -0.353 OA
HETATM   28  C   UNL     1      18.590  46.444  48.194  1.00  0.00     0.210 C 
ENDBRANCH  23  27
BRANCH  24  29
HETATM   29  O   UNL     1      21.989  48.348  49.306  1.00  0.00    -0.347 OA
BRANCH  29  30
HETATM   30  C   UNL     1      23.195  48.096  48.580  1.00  0.00     0.203 C 
BRANCH  30  31
HETATM   31  C   UNL     1      24.338  47.920  49.589  1.00  0.00     0.261 C 
BRANCH  31  32
HETATM   32  N   UNL     1      24.170  46.671  50.435  1.00  0.00    -0.065 N 
HETATM   33  H   UNL     1      23.276  46.790  50.940  1.00  0.00     0.280 HD
HETATM   34  C   UNL     1      24.073  45.385  49.624  1.00  0.00     0.261 C 
HETATM   35  C   UNL     1      23.945  44.183  50.568  1.00  0.00     0.195 C 
HETATM   36  O   UNL     1      25.046  44.127  51.477  1.00  0.00    -0.388 OA
HETATM   37  C   UNL     1      25.100  45.289  52.311  1.00  0.00     0.195 C 
HETATM   38  C   UNL     1      25.289  46.555  51.471  1.00  0.00     0.261 C 
ENDBRANCH  31  32
ENDBRANCH  30  31
ENDBRANCH  29  30
ENDBRANCH  24  29
ENDBRANCH   9  21
TORSDOF 6
ENDMDL
MODEL 5
REMARK VINA RESULT:      -7.6      1.972      2.791
REMARK  6 active torsions:
REMARK  status: ('A' for Active; 'I' for Inactive)
REMARK    1  A    between atoms: C_9  and  C_10 
REMARK    2  A    between atoms: C_12  and  O_13 
REMARK    3  A    between atoms: C_15  and  O_16 
REMARK    4  A    between atoms: O_16  and  C_17 
REMARK    5  A    between atoms: C_17  and  C_18 
REMARK    6  A    between atoms: C_18  and  N_19 
ROOT
HETATM    1  H   UNL     1      15.686  53.831  48.528  1.00  0.00     0.186 HD
HETATM    2  N   UNL     1      16.264  53.008  48.756  1.00  0.00    -0.304 NA
HETATM    3  C   UNL     1      16.172  52.000  47.947  1.00  0.00     0.062 C 
HETATM    4  C   UNL     1      17.019  50.739  48.204  1.00  0.00     0.186 C 
HETATM    5  C   UNL     1      17.725  50.803  49.498  1.00  0.00     0.091 C 
HETATM    6  N   UNL     1      18.352  50.778  50.475  1.00  0.00    -0.195 NA
HETATM    7  C   UNL     1      16.123  49.574  48.168  1.00  0.00     0.091 C 
HETATM    8  N   UNL     1      15.422  48.664  48.003  1.00  0.00    -0.195 NA
HETATM    9  C   UNL     1      18.071  50.706  47.033  1.00  0.00     0.071 C 
HETATM   10  C   UNL     1      17.396  50.709  45.614  1.00  0.00     0.053 C 
HETATM   11  C   UNL     1      16.385  51.867  45.499  1.00  0.00    -0.053 C 
HETATM   12  C   UNL     1      16.427  52.692  44.428  1.00  0.00     0.005 C 
HETATM   13  C   UNL     1      15.356  52.003  46.648  1.00  0.00     0.157 C 
HETATM   14  C   UNL     1      14.523  53.268  46.511  1.00  0.00    -0.005 C 
HETATM   15  N   UNL     1      13.833  54.317  46.398  1.00  0.00    -0.101 N 
HETATM   16  C   UNL     1      18.497  50.757  44.509  1.00  0.00     0.244 C 
HETATM   17  N   UNL     1      17.960  51.193  43.172  1.00  0.00    -0.071 N 
HETATM   18  H   UNL     1      18.769  51.295  42.544  1.00  0.00     0.279 HD
HETATM   19  C   UNL     1      17.071  50.184  42.497  1.00  0.00     0.270 C 
HETATM   20  C   UNL     1      17.349  52.560  43.257  1.00  0.00     0.262 C 
ENDROOT
BRANCH   9  21
HETATM   21  C   UNL     1      19.170  49.642  47.173  1.00  0.00    -0.047 A 
HETATM   22  C   UNL     1      20.505  49.942  47.477  1.00  0.00     0.047 A 
HETATM   23  C   UNL     1      21.486  48.933  47.458  1.00  0.00     0.102 A 
HETATM   24  C   UNL     1      21.146  47.592  47.232  1.00  0.00     0.102 A 
HETATM   25  C   UNL     1      19.808  47.279  47.006  1.00  0.00     0.040 A 
HETATM   26  C   UNL     1      18.839  48.292  46.952  1.00  0.00     0.010 A 
BRANCH  23  27
HETATM   27  O   UNL     1      22.808  49.228  47.701  1.00  0.00    -0.353 OA
HETATM   28  C   UNL     1      23.033  49.631  49.056  1.00  0.00     0.210 C 
ENDBRANCH  23  27
BRANCH  24  29
HETATM   29  O   UNL     1      22.184  46.695  47.231  1.00  0.00    -0.347 OA
BRANCH  29  30
HETATM   30  C   UNL     1      22.283  45.786  48.330  1.00  0.00     0.203 C 
BRANCH  30  31
HETATM   31  C   UNL     1      23.616  46.040  49.048  1.00  0.00     0.261 C 
BRANCH  31  32
HETATM   32  N   UNL     1      24.391  44.757  49.288  1.00  0.00    -0.065 N 
HETATM   33  H   UNL     1      24.286  44.197  48.425  1.00  0.00     0.280 HD
HETATM   34  C   UNL     1      25.881  44.970  49.521  1.00  0.00     0.261 C 
HETATM   35  C   UNL     1      26.564  43.624  49.792  1.00  0.00     0.195 C 
HETATM   36  O   UNL     1      25.965  42.962  50.909  1.00  0.00    -0.388 OA
HETATM   37  C   UNL     1      24.584  42.673  50.672  1.00  0.00     0.195 C 
HETATM   38  C   UNL     1      23.787  43.961  50.446  1.00  0.00     0.261 C 
ENDBRANCH  31  32
ENDBRANCH  30  31
ENDBRANCH  29  30
ENDBRANCH  24  29
ENDBRANCH   9  21
TORSDOF 6
ENDMDL
MODEL 6
REMARK VINA RESULT:      -7.3      4.444      8.943
REMARK  6 active torsions:
REMARK  status: ('A' for Active; 'I' for Inactive)
REMARK    1  A    between atoms: C_9  and  C_10 
REMARK    2  A    between atoms: C_12  and  O_13 
REMARK    3  A    between atoms: C_15  and  O_16 
REMARK    4  A    between atoms: O_16  and  C_17 
REMARK    5  A    between atoms: C_17  and  C_18 
REMARK    6  A    between atoms: C_18  and  N_19 
ROOT
HETATM    1  H   UNL     1      19.494  46.392  44.921  1.00  0.00     0.186 HD
HETATM    2  N   UNL     1      18.657  46.936  45.182  1.00  0.00    -0.304 NA
HETATM    3  C   UNL     1      18.619  47.383  46.398  1.00  0.00     0.062 C 
HETATM    4  C   UNL     1      17.413  48.222  46.861  1.00  0.00     0.186 C 
HETATM    5  C   UNL     1      16.340  48.254  45.848  1.00  0.00     0.091 C 
HETATM    6  N   UNL     1      15.461  48.373  45.100  1.00  0.00    -0.195 NA
HETATM    7  C   UNL     1      16.911  47.644  48.116  1.00  0.00     0.091 C 
HETATM    8  N   UNL     1      16.621  47.251  49.169  1.00  0.00    -0.195 NA
HETATM    9  C   UNL     1      17.980  49.676  47.071  1.00  0.00     0.071 C 
HETATM   10  C   UNL     1      19.178  49.715  48.087  1.00  0.00     0.053 C 
HETATM   11  C   UNL     1      20.256  48.685  47.693  1.00  0.00    -0.053 C 
HETATM   12  C   UNL     1      21.553  49.064  47.619  1.00  0.00     0.005 C 
HETATM   13  C   UNL     1      19.765  47.246  47.408  1.00  0.00     0.157 C 
HETATM   14  C   UNL     1      20.882  46.365  46.873  1.00  0.00    -0.005 C 
HETATM   15  N   UNL     1      21.810  45.634  46.428  1.00  0.00    -0.101 N 
HETATM   16  C   UNL     1      19.739  51.169  48.182  1.00  0.00     0.244 C 
HETATM   17  N   UNL     1      21.121  51.222  48.775  1.00  0.00    -0.071 N 
HETATM   18  H   UNL     1      21.442  52.197  48.698  1.00  0.00     0.279 HD
HETATM   19  C   UNL     1      21.182  50.909  50.245  1.00  0.00     0.270 C 
HETATM   20  C   UNL     1      22.089  50.420  47.956  1.00  0.00     0.262 C 
ENDROOT
BRANCH   9  21
HETATM   21  C   UNL     1      16.923  50.756  47.346  1.00  0.00    -0.047 A 
HETATM   22  C   UNL     1      16.453  51.646  46.371  1.00  0.00     0.047 A 
HETATM   23  C   UNL     1      15.585  52.696  46.722  1.00  0.00     0.102 A 
HETATM   24  C   UNL     1      15.090  52.826  48.028  1.00  0.00     0.102 A 
HETATM   25  C   UNL     1      15.495  51.896  48.983  1.00  0.00     0.040 A 
HETATM   26  C   UNL     1      16.417  50.892  48.652  1.00  0.00     0.010 A 
BRANCH  23  27
HETATM   27  O   UNL     1      15.162  53.608  45.783  1.00  0.00    -0.353 OA
HETATM   28  C   UNL     1      15.940  53.550  44.582  1.00  0.00     0.210 C 
ENDBRANCH  23  27
BRANCH  24  29
HETATM   29  O   UNL     1      14.255  53.890  48.258  1.00  0.00    -0.347 OA
BRANCH  29  30
HETATM   30  C   UNL     1      14.182  54.406  49.589  1.00  0.00     0.203 C 
BRANCH  30  31
HETATM   31  C   UNL     1      14.625  55.875  49.563  1.00  0.00     0.261 C 
BRANCH  31  32
HETATM   32  N   UNL     1      14.528  56.527  50.930  1.00  0.00    -0.065 N 
HETATM   33  H   UNL     1      13.518  56.653  51.112  1.00  0.00     0.280 HD
HETATM   34  C   UNL     1      15.100  55.680  52.060  1.00  0.00     0.261 C 
HETATM   35  C   UNL     1      14.989  56.440  53.387  1.00  0.00     0.195 C 
HETATM   36  O   UNL     1      15.659  57.702  53.311  1.00  0.00    -0.388 OA
HETATM   37  C   UNL     1      15.077  58.547  52.314  1.00  0.00     0.195 C 
HETATM   38  C   UNL     1      15.184  57.909  50.926  1.00  0.00     0.261 C 
ENDBRANCH  31  32
ENDBRANCH  30  31
ENDBRANCH  29  30
ENDBRANCH  24  29
ENDBRANCH   9  21
TORSDOF 6
ENDMDL
MODEL 7
REMARK VINA RESULT:      -7.2     10.237     12.585
REMARK  6 active torsions:
REMARK  status: ('A' for Active; 'I' for Inactive)
REMARK    1  A    between atoms: C_9  and  C_10 
REMARK    2  A    between atoms: C_12  and  O_13 
REMARK    3  A    between atoms: C_15  and  O_16 
REMARK    4  A    between atoms: O_16  and  C_17 
REMARK    5  A    between atoms: C_17  and  C_18 
REMARK    6  A    between atoms: C_18  and  N_19 
ROOT
HETATM    1  H   UNL     1      22.678  45.958  36.653  1.00  0.00     0.186 HD
HETATM    2  N   UNL     1      23.052  46.741  37.212  1.00  0.00    -0.304 NA
HETATM    3  C   UNL     1      24.028  46.459  38.016  1.00  0.00     0.062 C 
HETATM    4  C   UNL     1      24.656  47.576  38.870  1.00  0.00     0.186 C 
HETATM    5  C   UNL     1      23.904  48.841  38.764  1.00  0.00     0.091 C 
HETATM    6  N   UNL     1      23.406  49.888  38.714  1.00  0.00    -0.195 NA
HETATM    7  C   UNL     1      24.690  47.118  40.266  1.00  0.00     0.091 C 
HETATM    8  N   UNL     1      24.827  46.682  41.333  1.00  0.00    -0.195 NA
HETATM    9  C   UNL     1      26.104  47.775  38.283  1.00  0.00     0.071 C 
HETATM   10  C   UNL     1      26.948  46.450  38.294  1.00  0.00     0.053 C 
HETATM   11  C   UNL     1      26.164  45.304  37.623  1.00  0.00    -0.053 C 
HETATM   12  C   UNL     1      26.762  44.549  36.672  1.00  0.00     0.005 C 
HETATM   13  C   UNL     1      24.709  45.087  38.103  1.00  0.00     0.157 C 
HETATM   14  C   UNL     1      23.988  44.047  37.262  1.00  0.00    -0.005 C 
HETATM   15  N   UNL     1      23.389  43.184  36.563  1.00  0.00    -0.101 N 
HETATM   16  C   UNL     1      28.336  46.705  37.627  1.00  0.00     0.244 C 
HETATM   17  N   UNL     1      29.022  45.433  37.208  1.00  0.00    -0.071 N 
HETATM   18  H   UNL     1      29.868  45.706  36.689  1.00  0.00     0.279 HD
HETATM   19  C   UNL     1      29.523  44.589  38.348  1.00  0.00     0.270 C 
HETATM   20  C   UNL     1      28.184  44.667  36.226  1.00  0.00     0.262 C 
ENDROOT
BRANCH   9  21
HETATM   21  C   UNL     1      26.874  48.983  38.840  1.00  0.00    -0.047 A 
HETATM   22  C   UNL     1      27.432  49.020  40.125  1.00  0.00     0.047 A 
HETATM   23  C   UNL     1      28.006  50.205  40.620  1.00  0.00     0.102 A 
HETATM   24  C   UNL     1      28.125  51.347  39.815  1.00  0.00     0.102 A 
HETATM   25  C   UNL     1      27.641  51.289  38.511  1.00  0.00     0.040 A 
HETATM   26  C   UNL     1      27.003  50.133  38.039  1.00  0.00     0.010 A 
BRANCH  23  27
HETATM   27  O   UNL     1      28.507  50.267  41.900  1.00  0.00    -0.353 OA
HETATM   28  C   UNL     1      29.494  49.260  42.145  1.00  0.00     0.210 C 
ENDBRANCH  23  27
BRANCH  24  29
HETATM   29  O   UNL     1      28.697  52.447  40.403  1.00  0.00    -0.347 OA
BRANCH  29  30
HETATM   30  C   UNL     1      29.973  52.874  39.921  1.00  0.00     0.203 C 
BRANCH  30  31
HETATM   31  C   UNL     1      30.748  53.498  41.090  1.00  0.00     0.261 C 
BRANCH  31  32
HETATM   32  N   UNL     1      31.872  52.602  41.576  1.00  0.00    -0.065 N 
HETATM   33  H   UNL     1      32.723  53.188  41.571  1.00  0.00     0.280 HD
HETATM   34  C   UNL     1      31.677  52.082  42.995  1.00  0.00     0.261 C 
HETATM   35  C   UNL     1      32.842  51.159  43.375  1.00  0.00     0.195 C 
HETATM   36  O   UNL     1      32.958  50.075  42.450  1.00  0.00    -0.388 OA
HETATM   37  C   UNL     1      33.231  50.541  41.125  1.00  0.00     0.195 C 
HETATM   38  C   UNL     1      32.095  51.433  40.615  1.00  0.00     0.261 C 
ENDBRANCH  31  32
ENDBRANCH  30  31
ENDBRANCH  29  30
ENDBRANCH  24  29
ENDBRANCH   9  21
TORSDOF 6
ENDMDL
MODEL 8
REMARK VINA RESULT:      -7.2      3.433      5.962
REMARK  6 active torsions:
REMARK  status: ('A' for Active; 'I' for Inactive)
REMARK    1  A    between atoms: C_9  and  C_10 
REMARK    2  A    between atoms: C_12  and  O_13 
REMARK    3  A    between atoms: C_15  and  O_16 
REMARK    4  A    between atoms: O_16  and  C_17 
REMARK    5  A    between atoms: C_17  and  C_18 
REMARK    6  A    between atoms: C_18  and  N_19 
ROOT
HETATM    1  H   UNL     1      16.630  49.484  49.170  1.00  0.00     0.186 HD
HETATM    2  N   UNL     1      17.057  48.623  48.795  1.00  0.00    -0.304 NA
HETATM    3  C   UNL     1      18.096  48.779  48.038  1.00  0.00     0.062 C 
HETATM    4  C   UNL     1      18.805  47.542  47.455  1.00  0.00     0.186 C 
HETATM    5  C   UNL     1      18.056  46.299  47.724  1.00  0.00     0.091 C 
HETATM    6  N   UNL     1      17.563  45.266  47.920  1.00  0.00    -0.195 NA
HETATM    7  C   UNL     1      18.956  47.743  46.007  1.00  0.00     0.091 C 
HETATM    8  N   UNL     1      19.182  47.984  44.894  1.00  0.00    -0.195 NA
HETATM    9  C   UNL     1      20.198  47.484  48.188  1.00  0.00     0.071 C 
HETATM   10  C   UNL     1      21.029  48.805  48.009  1.00  0.00     0.053 C 
HETATM   11  C   UNL     1      20.182  50.034  48.394  1.00  0.00    -0.053 C 
HETATM   12  C   UNL     1      20.689  50.961  49.240  1.00  0.00     0.005 C 
HETATM   13  C   UNL     1      18.773  50.128  47.762  1.00  0.00     0.157 C 
HETATM   14  C   UNL     1      17.973  51.285  48.339  1.00  0.00    -0.005 C 
HETATM   15  N   UNL     1      17.309  52.245  48.818  1.00  0.00    -0.101 N 
HETATM   16  C   UNL     1      22.356  48.705  48.825  1.00  0.00     0.244 C 
HETATM   17  N   UNL     1      22.994  50.047  49.064  1.00  0.00    -0.071 N 
HETATM   18  H   UNL     1      23.793  49.890  49.693  1.00  0.00     0.279 HD
HETATM   19  C   UNL     1      23.585  50.685  47.837  1.00  0.00     0.270 C 
HETATM   20  C   UNL     1      22.069  50.956  49.818  1.00  0.00     0.262 C 
ENDROOT
BRANCH   9  21
HETATM   21  C   UNL     1      21.022  46.214  47.924  1.00  0.00    -0.047 A 
HETATM   22  C   UNL     1      21.690  45.961  46.718  1.00  0.00     0.047 A 
HETATM   23  C   UNL     1      22.314  44.720  46.495  1.00  0.00     0.102 A 
HETATM   24  C   UNL     1      22.371  43.743  47.498  1.00  0.00     0.102 A 
HETATM   25  C   UNL     1      21.775  44.021  48.726  1.00  0.00     0.040 A 
HETATM   26  C   UNL     1      21.089  45.229  48.926  1.00  0.00     0.010 A 
BRANCH  23  27
HETATM   27  O   UNL     1      22.925  44.442  45.293  1.00  0.00    -0.353 OA
HETATM   28  C   UNL     1      22.256  45.062  44.189  1.00  0.00     0.210 C 
ENDBRANCH  23  27
BRANCH  24  29
HETATM   29  O   UNL     1      23.000  42.569  47.168  1.00  0.00    -0.347 OA
BRANCH  29  30
HETATM   30  C   UNL     1      23.184  41.597  48.200  1.00  0.00     0.203 C 
BRANCH  30  31
HETATM   31  C   UNL     1      24.680  41.528  48.537  1.00  0.00     0.261 C 
BRANCH  31  32
HETATM   32  N   UNL     1      25.131  42.704  49.384  1.00  0.00    -0.065 N 
HETATM   33  H   UNL     1      24.761  43.549  48.916  1.00  0.00     0.280 HD
HETATM   34  C   UNL     1      24.586  42.687  50.806  1.00  0.00     0.261 C 
HETATM   35  C   UNL     1      25.129  43.890  51.587  1.00  0.00     0.195 C 
HETATM   36  O   UNL     1      26.558  43.892  51.593  1.00  0.00    -0.388 OA
HETATM   37  C   UNL     1      27.090  43.999  50.269  1.00  0.00     0.195 C 
HETATM   38  C   UNL     1      26.657  42.808  49.409  1.00  0.00     0.261 C 
ENDBRANCH  31  32
ENDBRANCH  30  31
ENDBRANCH  29  30
ENDBRANCH  24  29
ENDBRANCH   9  21
TORSDOF 6
ENDMDL
MODEL 9
REMARK VINA RESULT:      -7.2      3.811      6.076
REMARK  6 active torsions:
REMARK  status: ('A' for Active; 'I' for Inactive)
REMARK    1  A    between atoms: C_9  and  C_10 
REMARK    2  A    between atoms: C_12  and  O_13 
REMARK    3  A    between atoms: C_15  and  O_16 
REMARK    4  A    between atoms: O_16  and  C_17 
REMARK    5  A    between atoms: C_17  and  C_18 
REMARK    6  A    between atoms: C_18  and  N_19 
ROOT
HETATM    1  H   UNL     1      15.351  48.418  48.633  1.00  0.00     0.186 HD
HETATM    2  N   UNL     1      15.980  47.727  48.196  1.00  0.00    -0.304 NA
HETATM    3  C   UNL     1      17.062  48.196  47.657  1.00  0.00     0.062 C 
HETATM    4  C   UNL     1      18.065  47.228  47.002  1.00  0.00     0.186 C 
HETATM    5  C   UNL     1      17.539  45.851  46.933  1.00  0.00     0.091 C 
HETATM    6  N   UNL     1      17.231  44.733  46.870  1.00  0.00    -0.195 NA
HETATM    7  C   UNL     1      18.365  47.728  45.652  1.00  0.00     0.091 C 
HETATM    8  N   UNL     1      18.685  48.214  44.648  1.00  0.00    -0.195 NA
HETATM    9  C   UNL     1      19.333  47.259  47.934  1.00  0.00     0.071 C 
HETATM   10  C   UNL     1      19.913  48.708  48.117  1.00  0.00     0.053 C 
HETATM   11  C   UNL     1      18.803  49.683  48.557  1.00  0.00    -0.053 C 
HETATM   12  C   UNL     1      19.006  50.499  49.617  1.00  0.00     0.005 C 
HETATM   13  C   UNL     1      17.498  49.665  47.726  1.00  0.00     0.157 C 
HETATM   14  C   UNL     1      16.422  50.541  48.347  1.00  0.00    -0.005 C 
HETATM   15  N   UNL     1      15.529  51.268  48.863  1.00  0.00    -0.101 N 
HETATM   16  C   UNL     1      21.115  48.672  49.113  1.00  0.00     0.244 C 
HETATM   17  N   UNL     1      21.446  50.028  49.674  1.00  0.00    -0.071 N 
HETATM   18  H   UNL     1      22.170  49.886  50.391  1.00  0.00     0.279 HD
HETATM   19  C   UNL     1      22.061  50.979  48.685  1.00  0.00     0.270 C 
HETATM   20  C   UNL     1      20.272  50.610  50.406  1.00  0.00     0.262 C 
ENDROOT
BRANCH   9  21
HETATM   21  C   UNL     1      20.413  46.218  47.602  1.00  0.00    -0.047 A 
HETATM   22  C   UNL     1      20.750  45.153  48.450  1.00  0.00     0.047 A 
HETATM   23  C   UNL     1      21.838  44.316  48.147  1.00  0.00     0.102 A 
HETATM   24  C   UNL     1      22.554  44.458  46.950  1.00  0.00     0.102 A 
HETATM   25  C   UNL     1      22.174  45.466  46.068  1.00  0.00     0.040 A 
HETATM   26  C   UNL     1      21.136  46.348  46.402  1.00  0.00     0.010 A 
BRANCH  23  27
HETATM   27  O   UNL     1      22.210  43.302  49.000  1.00  0.00    -0.353 OA
HETATM   28  C   UNL     1      22.964  43.784  50.117  1.00  0.00     0.210 C 
ENDBRANCH  23  27
BRANCH  24  29
HETATM   29  O   UNL     1      23.600  43.589  46.761  1.00  0.00    -0.347 OA
BRANCH  29  30
HETATM   30  C   UNL     1      23.369  42.432  45.954  1.00  0.00     0.203 C 
BRANCH  30  31
HETATM   31  C   UNL     1      24.025  41.226  46.641  1.00  0.00     0.261 C 
BRANCH  31  32
HETATM   32  N   UNL     1      25.454  41.513  47.063  1.00  0.00    -0.065 N 
HETATM   33  H   UNL     1      25.656  42.475  46.742  1.00  0.00     0.280 HD
HETATM   34  C   UNL     1      25.672  41.474  48.570  1.00  0.00     0.261 C 
HETATM   35  C   UNL     1      27.149  41.738  48.889  1.00  0.00     0.195 C 
HETATM   36  O   UNL     1      27.991  40.789  48.231  1.00  0.00    -0.388 OA
HETATM   37  C   UNL     1      27.866  40.872  46.808  1.00  0.00     0.195 C 
HETATM   38  C   UNL     1      26.432  40.566  46.367  1.00  0.00     0.261 C 
ENDBRANCH  31  32
ENDBRANCH  30  31
ENDBRANCH  29  30
ENDBRANCH  24  29
ENDBRANCH   9  21
TORSDOF 6
ENDMDL
MODEL 10
REMARK VINA RESULT:      -7.2     13.637     20.879
REMARK  6 active torsions:
REMARK  status: ('A' for Active; 'I' for Inactive)
REMARK    1  A    between atoms: C_9  and  C_10 
REMARK    2  A    between atoms: C_12  and  O_13 
REMARK    3  A    between atoms: C_15  and  O_16 
REMARK    4  A    between atoms: O_16  and  C_17 
REMARK    5  A    between atoms: C_17  and  C_18 
REMARK    6  A    between atoms: C_18  and  N_19 
ROOT
HETATM    1  H   UNL     1      43.551  53.213  46.983  1.00  0.00     0.186 HD
HETATM    2  N   UNL     1      42.663  52.774  46.694  1.00  0.00    -0.304 NA
HETATM    3  C   UNL     1      41.601  53.511  46.788  1.00  0.00     0.062 C 
HETATM    4  C   UNL     1      40.238  52.938  46.357  1.00  0.00     0.186 C 
HETATM    5  C   UNL     1      40.320  51.498  46.040  1.00  0.00     0.091 C 
HETATM    6  N   UNL     1      40.291  50.380  45.731  1.00  0.00    -0.195 NA
HETATM    7  C   UNL     1      39.282  53.166  47.450  1.00  0.00     0.091 C 
HETATM    8  N   UNL     1      38.519  53.476  48.268  1.00  0.00    -0.195 NA
HETATM    9  C   UNL     1      39.847  53.739  45.060  1.00  0.00     0.071 C 
HETATM   10  C   UNL     1      39.809  55.292  45.298  1.00  0.00     0.053 C 
HETATM   11  C   UNL     1      41.123  55.772  45.945  1.00  0.00    -0.053 C 
HETATM   12  C   UNL     1      41.782  56.832  45.421  1.00  0.00     0.005 C 
HETATM   13  C   UNL     1      41.606  54.991  47.190  1.00  0.00     0.157 C 
HETATM   14  C   UNL     1      42.985  55.446  47.641  1.00  0.00    -0.005 C 
HETATM   15  N   UNL     1      44.130  55.823  48.013  1.00  0.00    -0.101 N 
HETATM   16  C   UNL     1      39.495  56.022  43.954  1.00  0.00     0.244 C 
HETATM   17  N   UNL     1      39.860  57.481  43.987  1.00  0.00    -0.071 N 
HETATM   18  H   UNL     1      39.717  57.847  43.035  1.00  0.00     0.279 HD
HETATM   19  C   UNL     1      38.974  58.327  44.862  1.00  0.00     0.270 C 
HETATM   20  C   UNL     1      41.322  57.666  44.268  1.00  0.00     0.262 C 
ENDROOT
BRANCH   9  21
HETATM   21  C   UNL     1      38.609  53.215  44.316  1.00  0.00    -0.047 A 
HETATM   22  C   UNL     1      38.662  52.612  43.052  1.00  0.00     0.047 A 
HETATM   23  C   UNL     1      37.479  52.276  42.371  1.00  0.00     0.102 A 
HETATM   24  C   UNL     1      36.222  52.443  42.970  1.00  0.00     0.102 A 
HETATM   25  C   UNL     1      36.169  52.971  44.257  1.00  0.00     0.040 A 
HETATM   26  C   UNL     1      37.343  53.374  44.910  1.00  0.00     0.010 A 
BRANCH  23  27
HETATM   27  O   UNL     1      37.519  51.735  41.106  1.00  0.00    -0.353 OA
HETATM   28  C   UNL     1      37.834  52.711  40.108  1.00  0.00     0.210 C 
ENDBRANCH  23  27
BRANCH  24  29
HETATM   29  O   UNL     1      35.135  52.087  42.211  1.00  0.00    -0.347 OA
BRANCH  29  30
HETATM   30  C   UNL     1      34.328  51.000  42.670  1.00  0.00     0.203 C 
BRANCH  30  31
HETATM   31  C   UNL     1      33.156  51.576  43.476  1.00  0.00     0.261 C 
BRANCH  31  32
HETATM   32  N   UNL     1      31.820  51.012  43.028  1.00  0.00    -0.065 N 
HETATM   33  H   UNL     1      31.159  51.200  43.800  1.00  0.00     0.280 HD
HETATM   34  C   UNL     1      31.263  51.669  41.772  1.00  0.00     0.261 C 
HETATM   35  C   UNL     1      29.936  51.005  41.381  1.00  0.00     0.195 C 
HETATM   36  O   UNL     1      30.108  49.599  41.183  1.00  0.00    -0.388 OA
HETATM   37  C   UNL     1      30.546  48.949  42.380  1.00  0.00     0.195 C 
HETATM   38  C   UNL     1      31.902  49.497  42.834  1.00  0.00     0.261 C 
ENDBRANCH  31  32
ENDBRANCH  30  31
ENDBRANCH  29  30
ENDBRANCH  24  29
ENDBRANCH   9  21
TORSDOF 6
ENDMDL
