MODEL 1
REMARK VINA RESULT:      -9.9      0.000      0.000
REMARK  8 active torsions:
REMARK  status: ('A' for Active; 'I' for Inactive)
REMARK    1  A    between atoms: C_2  and  C_3 
REMARK    2  A    between atoms: C_5  and  C_6 
REMARK       I    between atoms: C_6  and  N_7 
REMARK    3  A    between atoms: N_7  and  C_8 
REMARK    4  A    between atoms: C_8  and  C_9 
REMARK    5  A    between atoms: C_9  and  N_10 
REMARK    6  A    between atoms: C_9  and  C_20 
REMARK       I    between atoms: N_10  and  C_11 
REMARK    7  A    between atoms: C_11  and  C_12 
REMARK    8  A    between atoms: C_14  and  C_15 
ROOT
HETATM    1  C   UNL     1      27.761  44.128  51.901  1.00  0.00     0.136 C 
ENDROOT
BRANCH   1   2
HETATM    2  C   UNL     1      26.365  44.800  51.956  1.00  0.00     0.153 C 
BRANCH   2   3
HETATM    3  N   UNL     1      26.185  45.846  50.967  1.00  0.00    -0.353 N 
HETATM    4  C   UNL     1      26.067  47.175  51.306  1.00  0.00     0.275 C 
HETATM    5  O   UNL     1      26.055  47.550  52.477  1.00  0.00    -0.265 OA
HETATM    6  H   UNL     1      26.311  45.616  49.985  1.00  0.00     0.162 HD
BRANCH   4   7
HETATM    7  C   UNL     1      25.973  48.073  50.175  1.00  0.00     0.143 A 
HETATM    8  O   UNL     1      24.740  48.458  49.714  1.00  0.00    -0.310 OA
HETATM    9  C   UNL     1      24.945  49.308  48.670  1.00  0.00     0.053 A 
HETATM   10  C   UNL     1      26.296  49.467  48.444  1.00  0.00     0.036 A 
HETATM   11  C   UNL     1      26.956  48.673  49.411  1.00  0.00     0.045 A 
BRANCH   9  12
HETATM   12  C   UNL     1      23.733  49.868  48.022  1.00  0.00     0.060 C 
HETATM   13  C   UNL     1      23.207  51.077  48.774  1.00  0.00     0.012 C 
ENDBRANCH   9  12
ENDBRANCH   4   7
ENDBRANCH   2   3
ENDBRANCH   1   2
BRANCH   1  14
HETATM   14  N   UNL     1      27.800  42.763  51.385  1.00  0.00    -0.345 N 
HETATM   15  C   UNL     1      27.399  42.354  50.135  1.00  0.00     0.276 C 
HETATM   16  O   UNL     1      27.092  43.131  49.237  1.00  0.00    -0.265 OA
HETATM   17  H   UNL     1      27.946  42.021  52.059  1.00  0.00     0.163 HD
BRANCH  15  18
HETATM   18  C   UNL     1      27.373  40.913  49.979  1.00  0.00     0.143 A 
HETATM   19  O   UNL     1      28.552  40.228  49.833  1.00  0.00    -0.310 OA
HETATM   20  C   UNL     1      28.241  38.907  49.719  1.00  0.00     0.053 A 
HETATM   21  C   UNL     1      26.876  38.731  49.788  1.00  0.00     0.036 A 
HETATM   22  C   UNL     1      26.318  40.021  49.955  1.00  0.00     0.045 A 
BRANCH  20  23
HETATM   23  C   UNL     1      29.381  37.970  49.553  1.00  0.00     0.060 C 
HETATM   24  C   UNL     1      29.880  37.458  50.895  1.00  0.00     0.012 C 
ENDBRANCH  20  23
ENDBRANCH  15  18
ENDBRANCH   1  14
BRANCH   1  25
HETATM   25  C   UNL     1      28.492  44.226  53.231  1.00  0.00    -0.031 A 
HETATM   26  C   UNL     1      28.181  45.224  54.171  1.00  0.00     0.049 A 
HETATM   27  C   UNL     1      28.864  45.290  55.386  1.00  0.00     0.102 A 
HETATM   28  C   UNL     1      29.890  44.384  55.666  1.00  0.00     0.102 A 
HETATM   29  O   UNL     1      28.478  46.278  56.257  1.00  0.00    -0.346 OA
HETATM   30  O   UNL     1      30.626  44.413  56.822  1.00  0.00    -0.346 OA
HETATM   31  C   UNL     1      30.203  43.385  54.749  1.00  0.00     0.040 A 
HETATM   32  C   UNL     1      30.458  45.654  57.516  1.00  0.00     0.202 C 
HETATM   33  C   UNL     1      28.989  46.041  57.572  1.00  0.00     0.202 C 
HETATM   34  C   UNL     1      29.509  43.306  53.540  1.00  0.00     0.012 A 
ENDBRANCH   1  25
TORSDOF 8
ENDMDL
MODEL 2
REMARK VINA RESULT:      -9.7      2.001      8.678
REMARK  8 active torsions:
REMARK  status: ('A' for Active; 'I' for Inactive)
REMARK    1  A    between atoms: C_2  and  C_3 
REMARK    2  A    between atoms: C_5  and  C_6 
REMARK       I    between atoms: C_6  and  N_7 
REMARK    3  A    between atoms: N_7  and  C_8 
REMARK    4  A    between atoms: C_8  and  C_9 
REMARK    5  A    between atoms: C_9  and  N_10 
REMARK    6  A    between atoms: C_9  and  C_20 
REMARK       I    between atoms: N_10  and  C_11 
REMARK    7  A    between atoms: C_11  and  C_12 
REMARK    8  A    between atoms: C_14  and  C_15 
ROOT
HETATM    1  C   UNL     1      26.097  46.573  51.926  1.00  0.00     0.136 C 
ENDROOT
BRANCH   1   2
HETATM    2  C   UNL     1      25.854  46.822  53.437  1.00  0.00     0.153 C 
BRANCH   2   3
HETATM    3  N   UNL     1      26.934  46.350  54.284  1.00  0.00    -0.353 N 
HETATM    4  C   UNL     1      27.384  47.059  55.375  1.00  0.00     0.275 C 
HETATM    5  O   UNL     1      26.931  48.163  55.666  1.00  0.00    -0.265 OA
HETATM    6  H   UNL     1      27.261  45.395  54.170  1.00  0.00     0.162 HD
BRANCH   4   7
HETATM    7  C   UNL     1      28.414  46.387  56.138  1.00  0.00     0.143 A 
HETATM    8  O   UNL     1      29.284  45.538  55.505  1.00  0.00    -0.310 OA
HETATM    9  C   UNL     1      30.148  45.066  56.447  1.00  0.00     0.053 A 
HETATM   10  C   UNL     1      29.837  45.591  57.683  1.00  0.00     0.036 A 
HETATM   11  C   UNL     1      28.722  46.440  57.484  1.00  0.00     0.045 A 
BRANCH   9  12
HETATM   12  C   UNL     1      31.200  44.133  55.974  1.00  0.00     0.060 C 
HETATM   13  C   UNL     1      31.750  43.289  57.111  1.00  0.00     0.012 C 
ENDBRANCH   9  12
ENDBRANCH   4   7
ENDBRANCH   2   3
ENDBRANCH   1   2
BRANCH   1  14
HETATM   14  N   UNL     1      25.327  47.403  51.004  1.00  0.00    -0.345 N 
HETATM   15  C   UNL     1      25.767  47.910  49.804  1.00  0.00     0.276 C 
HETATM   16  O   UNL     1      26.834  47.595  49.289  1.00  0.00    -0.265 OA
HETATM   17  H   UNL     1      24.468  47.807  51.358  1.00  0.00     0.163 HD
BRANCH  15  18
HETATM   18  C   UNL     1      24.847  48.856  49.205  1.00  0.00     0.143 A 
HETATM   19  O   UNL     1      23.602  49.028  49.753  1.00  0.00    -0.310 OA
HETATM   20  C   UNL     1      22.958  49.971  49.009  1.00  0.00     0.053 A 
HETATM   21  C   UNL     1      23.773  50.409  47.988  1.00  0.00     0.036 A 
HETATM   22  C   UNL     1      24.987  49.692  48.113  1.00  0.00     0.045 A 
BRANCH  20  23
HETATM   23  C   UNL     1      21.578  50.320  49.431  1.00  0.00     0.060 C 
HETATM   24  C   UNL     1      20.949  51.335  48.492  1.00  0.00     0.012 C 
ENDBRANCH  20  23
ENDBRANCH  15  18
ENDBRANCH   1  14
BRANCH   1  25
HETATM   25  C   UNL     1      25.974  45.101  51.564  1.00  0.00    -0.031 A 
HETATM   26  C   UNL     1      27.103  44.272  51.457  1.00  0.00     0.049 A 
HETATM   27  C   UNL     1      26.961  42.923  51.128  1.00  0.00     0.102 A 
HETATM   28  C   UNL     1      25.696  42.392  50.867  1.00  0.00     0.102 A 
HETATM   29  O   UNL     1      28.114  42.179  51.071  1.00  0.00    -0.346 OA
HETATM   30  O   UNL     1      25.487  41.086  50.503  1.00  0.00    -0.346 OA
HETATM   31  C   UNL     1      24.568  43.199  50.979  1.00  0.00     0.040 A 
HETATM   32  C   UNL     1      26.707  40.458  50.093  1.00  0.00     0.202 C 
HETATM   33  C   UNL     1      27.828  40.777  51.070  1.00  0.00     0.202 C 
HETATM   34  C   UNL     1      24.705  44.544  51.325  1.00  0.00     0.012 A 
ENDBRANCH   1  25
TORSDOF 8
ENDMDL
MODEL 3
REMARK VINA RESULT:      -9.5      2.152      9.144
REMARK  8 active torsions:
REMARK  status: ('A' for Active; 'I' for Inactive)
REMARK    1  A    between atoms: C_2  and  C_3 
REMARK    2  A    between atoms: C_5  and  C_6 
REMARK       I    between atoms: C_6  and  N_7 
REMARK    3  A    between atoms: N_7  and  C_8 
REMARK    4  A    between atoms: C_8  and  C_9 
REMARK    5  A    between atoms: C_9  and  N_10 
REMARK    6  A    between atoms: C_9  and  C_20 
REMARK       I    between atoms: N_10  and  C_11 
REMARK    7  A    between atoms: C_11  and  C_12 
REMARK    8  A    between atoms: C_14  and  C_15 
ROOT
HETATM    1  C   UNL     1      25.886  46.568  51.054  1.00  0.00     0.136 C 
ENDROOT
BRANCH   1   2
HETATM    2  C   UNL     1      25.925  46.655  52.602  1.00  0.00     0.153 C 
BRANCH   2   3
HETATM    3  N   UNL     1      27.059  45.968  53.193  1.00  0.00    -0.353 N 
HETATM    4  C   UNL     1      26.934  44.768  53.856  1.00  0.00     0.275 C 
HETATM    5  O   UNL     1      25.844  44.230  54.032  1.00  0.00    -0.265 OA
HETATM    6  H   UNL     1      27.995  46.296  52.976  1.00  0.00     0.162 HD
BRANCH   4   7
HETATM    7  C   UNL     1      28.189  44.204  54.307  1.00  0.00     0.143 A 
HETATM    8  O   UNL     1      28.891  44.823  55.309  1.00  0.00    -0.310 OA
HETATM    9  C   UNL     1      30.006  44.076  55.543  1.00  0.00     0.053 A 
HETATM   10  C   UNL     1      30.038  42.990  54.696  1.00  0.00     0.036 A 
HETATM   11  C   UNL     1      28.871  43.072  53.901  1.00  0.00     0.045 A 
BRANCH   9  12
HETATM   12  C   UNL     1      30.913  44.558  56.614  1.00  0.00     0.060 C 
HETATM   13  C   UNL     1      31.777  43.435  57.161  1.00  0.00     0.012 C 
ENDBRANCH   9  12
ENDBRANCH   4   7
ENDBRANCH   2   3
ENDBRANCH   1   2
BRANCH   1  14
HETATM   14  N   UNL     1      25.035  47.541  50.376  1.00  0.00    -0.345 N 
HETATM   15  C   UNL     1      25.413  48.381  49.355  1.00  0.00     0.276 C 
HETATM   16  O   UNL     1      26.497  48.305  48.785  1.00  0.00    -0.265 OA
HETATM   17  H   UNL     1      24.150  47.762  50.816  1.00  0.00     0.163 HD
BRANCH  15  18
HETATM   18  C   UNL     1      24.408  49.368  49.017  1.00  0.00     0.143 A 
HETATM   19  O   UNL     1      23.295  49.499  49.808  1.00  0.00    -0.310 OA
HETATM   20  C   UNL     1      22.532  50.493  49.274  1.00  0.00     0.053 A 
HETATM   21  C   UNL     1      23.139  51.005  48.148  1.00  0.00     0.036 A 
HETATM   22  C   UNL     1      24.344  50.282  47.982  1.00  0.00     0.045 A 
BRANCH  20  23
HETATM   23  C   UNL     1      21.266  50.809  49.982  1.00  0.00     0.060 C 
HETATM   24  C   UNL     1      20.249  51.443  49.047  1.00  0.00     0.012 C 
ENDBRANCH  20  23
ENDBRANCH  15  18
ENDBRANCH   1  14
BRANCH   1  25
HETATM   25  C   UNL     1      25.590  45.157  50.571  1.00  0.00    -0.031 A 
HETATM   26  C   UNL     1      26.533  44.416  49.838  1.00  0.00     0.049 A 
HETATM   27  C   UNL     1      26.238  43.121  49.410  1.00  0.00     0.102 A 
HETATM   28  C   UNL     1      24.987  42.561  49.675  1.00  0.00     0.102 A 
HETATM   29  O   UNL     1      27.226  42.460  48.723  1.00  0.00    -0.346 OA
HETATM   30  O   UNL     1      24.617  41.309  49.254  1.00  0.00    -0.346 OA
HETATM   31  C   UNL     1      24.046  43.278  50.409  1.00  0.00     0.040 A 
HETATM   32  C   UNL     1      25.504  40.816  48.245  1.00  0.00     0.202 C 
HETATM   33  C   UNL     1      26.952  41.057  48.641  1.00  0.00     0.202 C 
HETATM   34  C   UNL     1      24.345  44.568  50.854  1.00  0.00     0.012 A 
ENDBRANCH   1  25
TORSDOF 8
ENDMDL
MODEL 4
REMARK VINA RESULT:      -9.4      1.228      1.840
REMARK  8 active torsions:
REMARK  status: ('A' for Active; 'I' for Inactive)
REMARK    1  A    between atoms: C_2  and  C_3 
REMARK    2  A    between atoms: C_5  and  C_6 
REMARK       I    between atoms: C_6  and  N_7 
REMARK    3  A    between atoms: N_7  and  C_8 
REMARK    4  A    between atoms: C_8  and  C_9 
REMARK    5  A    between atoms: C_9  and  N_10 
REMARK    6  A    between atoms: C_9  and  C_20 
REMARK       I    between atoms: N_10  and  C_11 
REMARK    7  A    between atoms: C_11  and  C_12 
REMARK    8  A    between atoms: C_14  and  C_15 
ROOT
HETATM    1  C   UNL     1      26.988  44.571  52.508  1.00  0.00     0.136 C 
ENDROOT
BRANCH   1   2
HETATM    2  C   UNL     1      25.523  44.958  52.834  1.00  0.00     0.153 C 
BRANCH   2   3
HETATM    3  N   UNL     1      24.841  45.627  51.742  1.00  0.00    -0.353 N 
HETATM    4  C   UNL     1      25.117  46.927  51.382  1.00  0.00     0.275 C 
HETATM    5  O   UNL     1      25.924  47.617  52.000  1.00  0.00    -0.265 OA
HETATM    6  H   UNL     1      24.260  45.075  51.119  1.00  0.00     0.162 HD
BRANCH   4   7
HETATM    7  C   UNL     1      24.390  47.390  50.219  1.00  0.00     0.143 A 
HETATM    8  O   UNL     1      24.570  48.674  49.772  1.00  0.00    -0.310 OA
HETATM    9  C   UNL     1      23.788  48.832  48.668  1.00  0.00     0.053 A 
HETATM   10  C   UNL     1      23.096  47.670  48.405  1.00  0.00     0.036 A 
HETATM   11  C   UNL     1      23.482  46.744  49.402  1.00  0.00     0.045 A 
BRANCH   9  12
HETATM   12  C   UNL     1      23.842  50.157  48.002  1.00  0.00     0.060 C 
HETATM   13  C   UNL     1      22.815  51.115  48.580  1.00  0.00     0.012 C 
ENDBRANCH   9  12
ENDBRANCH   4   7
ENDBRANCH   2   3
ENDBRANCH   1   2
BRANCH   1  14
HETATM   14  N   UNL     1      27.189  43.253  51.913  1.00  0.00    -0.345 N 
HETATM   15  C   UNL     1      26.986  42.915  50.596  1.00  0.00     0.276 C 
HETATM   16  O   UNL     1      26.746  43.736  49.717  1.00  0.00    -0.265 OA
HETATM   17  H   UNL     1      27.296  42.473  52.551  1.00  0.00     0.163 HD
BRANCH  15  18
HETATM   18  C   UNL     1      27.081  41.490  50.344  1.00  0.00     0.143 A 
HETATM   19  O   UNL     1      28.304  40.932  50.074  1.00  0.00    -0.310 OA
HETATM   20  C   UNL     1      28.108  39.596  49.890  1.00  0.00     0.053 A 
HETATM   21  C   UNL     1      26.774  39.286  50.038  1.00  0.00     0.036 A 
HETATM   22  C   UNL     1      26.113  40.504  50.329  1.00  0.00     0.045 A 
BRANCH  20  23
HETATM   23  C   UNL     1      29.314  38.786  49.585  1.00  0.00     0.060 C 
HETATM   24  C   UNL     1      29.826  38.064  50.821  1.00  0.00     0.012 C 
ENDBRANCH  20  23
ENDBRANCH  15  18
ENDBRANCH   1  14
BRANCH   1  25
HETATM   25  C   UNL     1      27.910  44.775  53.700  1.00  0.00    -0.031 A 
HETATM   26  C   UNL     1      28.856  43.806  54.074  1.00  0.00     0.049 A 
HETATM   27  C   UNL     1      29.693  44.020  55.170  1.00  0.00     0.102 A 
HETATM   28  C   UNL     1      29.574  45.187  55.928  1.00  0.00     0.102 A 
HETATM   29  O   UNL     1      30.606  43.034  55.449  1.00  0.00    -0.346 OA
HETATM   30  O   UNL     1      30.338  45.447  57.037  1.00  0.00    -0.346 OA
HETATM   31  C   UNL     1      28.648  46.161  55.564  1.00  0.00     0.040 A 
HETATM   32  C   UNL     1      30.991  44.263  57.507  1.00  0.00     0.202 C 
HETATM   33  C   UNL     1      31.616  43.501  56.350  1.00  0.00     0.202 C 
HETATM   34  C   UNL     1      27.821  45.957  54.457  1.00  0.00     0.012 A 
ENDBRANCH   1  25
TORSDOF 8
ENDMDL
MODEL 5
REMARK VINA RESULT:      -9.1      1.663      6.238
REMARK  8 active torsions:
REMARK  status: ('A' for Active; 'I' for Inactive)
REMARK    1  A    between atoms: C_2  and  C_3 
REMARK    2  A    between atoms: C_5  and  C_6 
REMARK       I    between atoms: C_6  and  N_7 
REMARK    3  A    between atoms: N_7  and  C_8 
REMARK    4  A    between atoms: C_8  and  C_9 
REMARK    5  A    between atoms: C_9  and  N_10 
REMARK    6  A    between atoms: C_9  and  C_20 
REMARK       I    between atoms: N_10  and  C_11 
REMARK    7  A    between atoms: C_11  and  C_12 
REMARK    8  A    between atoms: C_14  and  C_15 
ROOT
HETATM    1  C   UNL     1      26.536  44.273  51.126  1.00  0.00     0.136 C 
ENDROOT
BRANCH   1   2
HETATM    2  C   UNL     1      26.822  45.331  50.029  1.00  0.00     0.153 C 
BRANCH   2   3
HETATM    3  N   UNL     1      25.643  46.064  49.608  1.00  0.00    -0.353 N 
HETATM    4  C   UNL     1      25.318  47.300  50.119  1.00  0.00     0.275 C 
HETATM    5  O   UNL     1      25.982  47.835  51.004  1.00  0.00    -0.265 OA
HETATM    6  H   UNL     1      25.128  45.735  48.797  1.00  0.00     0.162 HD
BRANCH   4   7
HETATM    7  C   UNL     1      24.148  47.905  49.517  1.00  0.00     0.143 A 
HETATM    8  O   UNL     1      24.015  49.270  49.514  1.00  0.00    -0.310 OA
HETATM    9  C   UNL     1      22.847  49.561  48.876  1.00  0.00     0.053 A 
HETATM   10  C   UNL     1      22.220  48.400  48.478  1.00  0.00     0.036 A 
HETATM   11  C   UNL     1      23.056  47.336  48.891  1.00  0.00     0.045 A 
BRANCH   9  12
HETATM   12  C   UNL     1      22.507  50.999  48.740  1.00  0.00     0.060 C 
HETATM   13  C   UNL     1      21.005  51.214  48.680  1.00  0.00     0.012 C 
ENDBRANCH   9  12
ENDBRANCH   4   7
ENDBRANCH   2   3
ENDBRANCH   1   2
BRANCH   1  14
HETATM   14  N   UNL     1      27.377  44.337  52.318  1.00  0.00    -0.345 N 
HETATM   15  C   UNL     1      27.077  44.988  53.490  1.00  0.00     0.276 C 
HETATM   16  O   UNL     1      25.979  45.480  53.728  1.00  0.00    -0.265 OA
HETATM   17  H   UNL     1      28.342  44.050  52.213  1.00  0.00     0.163 HD
BRANCH  15  18
HETATM   18  C   UNL     1      28.186  45.040  54.422  1.00  0.00     0.143 A 
HETATM   19  O   UNL     1      28.989  43.938  54.579  1.00  0.00    -0.310 OA
HETATM   20  C   UNL     1      29.945  44.261  55.494  1.00  0.00     0.053 A 
HETATM   21  C   UNL     1      29.770  45.557  55.929  1.00  0.00     0.036 A 
HETATM   22  C   UNL     1      28.639  46.057  55.241  1.00  0.00     0.045 A 
BRANCH  20  23
HETATM   23  C   UNL     1      30.936  43.204  55.818  1.00  0.00     0.060 C 
HETATM   24  C   UNL     1      31.552  43.419  57.191  1.00  0.00     0.012 C 
ENDBRANCH  20  23
ENDBRANCH  15  18
ENDBRANCH   1  14
BRANCH   1  25
HETATM   25  C   UNL     1      26.501  42.862  50.560  1.00  0.00    -0.031 A 
HETATM   26  C   UNL     1      27.628  42.022  50.605  1.00  0.00     0.049 A 
HETATM   27  C   UNL     1      27.568  40.729  50.083  1.00  0.00     0.102 A 
HETATM   28  C   UNL     1      26.397  40.269  49.477  1.00  0.00     0.102 A 
HETATM   29  O   UNL     1      28.705  39.969  50.192  1.00  0.00    -0.346 OA
HETATM   30  O   UNL     1      26.280  39.025  48.912  1.00  0.00    -0.346 OA
HETATM   31  C   UNL     1      25.271  41.086  49.434  1.00  0.00     0.040 A 
HETATM   32  C   UNL     1      27.562  38.422  48.711  1.00  0.00     0.202 C 
HETATM   33  C   UNL     1      28.430  38.585  49.948  1.00  0.00     0.202 C 
HETATM   34  C   UNL     1      25.322  42.373  49.971  1.00  0.00     0.012 A 
ENDBRANCH   1  25
TORSDOF 8
ENDMDL
MODEL 6
REMARK VINA RESULT:      -8.9      1.696      8.436
REMARK  8 active torsions:
REMARK  status: ('A' for Active; 'I' for Inactive)
REMARK    1  A    between atoms: C_2  and  C_3 
REMARK    2  A    between atoms: C_5  and  C_6 
REMARK       I    between atoms: C_6  and  N_7 
REMARK    3  A    between atoms: N_7  and  C_8 
REMARK    4  A    between atoms: C_8  and  C_9 
REMARK    5  A    between atoms: C_9  and  N_10 
REMARK    6  A    between atoms: C_9  and  C_20 
REMARK       I    between atoms: N_10  and  C_11 
REMARK    7  A    between atoms: C_11  and  C_12 
REMARK    8  A    between atoms: C_14  and  C_15 
ROOT
HETATM    1  C   UNL     1      26.795  44.574  49.953  1.00  0.00     0.136 C 
ENDROOT
BRANCH   1   2
HETATM    2  C   UNL     1      25.871  43.382  49.591  1.00  0.00     0.153 C 
BRANCH   2   3
HETATM    3  N   UNL     1      26.587  42.142  49.359  1.00  0.00    -0.353 N 
HETATM    4  C   UNL     1      26.871  41.250  50.370  1.00  0.00     0.275 C 
HETATM    5  O   UNL     1      26.579  41.479  51.541  1.00  0.00    -0.265 OA
HETATM    6  H   UNL     1      26.744  41.840  48.402  1.00  0.00     0.162 HD
BRANCH   4   7
HETATM    7  C   UNL     1      27.523  40.036  49.928  1.00  0.00     0.143 A 
HETATM    8  O   UNL     1      28.637  39.585  50.587  1.00  0.00    -0.310 OA
HETATM    9  C   UNL     1      29.027  38.429  49.980  1.00  0.00     0.053 A 
HETATM   10  C   UNL     1      28.185  38.137  48.929  1.00  0.00     0.036 A 
HETATM   11  C   UNL     1      27.219  39.170  48.895  1.00  0.00     0.045 A 
BRANCH   9  12
HETATM   12  C   UNL     1      30.217  37.750  50.549  1.00  0.00     0.060 C 
HETATM   13  C   UNL     1      29.823  36.663  51.533  1.00  0.00     0.012 C 
ENDBRANCH   9  12
ENDBRANCH   4   7
ENDBRANCH   2   3
ENDBRANCH   1   2
BRANCH   1  14
HETATM   14  N   UNL     1      27.428  44.521  51.268  1.00  0.00    -0.345 N 
HETATM   15  C   UNL     1      26.794  44.635  52.481  1.00  0.00     0.276 C 
HETATM   16  O   UNL     1      25.574  44.647  52.607  1.00  0.00    -0.265 OA
HETATM   17  H   UNL     1      28.437  44.607  51.294  1.00  0.00     0.163 HD
BRANCH  15  18
HETATM   18  C   UNL     1      27.706  44.740  53.603  1.00  0.00     0.143 A 
HETATM   19  O   UNL     1      28.714  43.820  53.743  1.00  0.00    -0.310 OA
HETATM   20  C   UNL     1      29.418  44.158  54.859  1.00  0.00     0.053 A 
HETATM   21  C   UNL     1      28.877  45.284  55.441  1.00  0.00     0.036 A 
HETATM   22  C   UNL     1      27.776  45.658  54.634  1.00  0.00     0.045 A 
BRANCH  20  23
HETATM   23  C   UNL     1      30.571  43.288  55.203  1.00  0.00     0.060 C 
HETATM   24  C   UNL     1      31.204  43.699  56.523  1.00  0.00     0.012 C 
ENDBRANCH  20  23
ENDBRANCH  15  18
ENDBRANCH   1  14
BRANCH   1  25
HETATM   25  C   UNL     1      26.108  45.913  49.734  1.00  0.00    -0.031 A 
HETATM   26  C   UNL     1      24.728  46.001  49.487  1.00  0.00     0.049 A 
HETATM   27  C   UNL     1      24.121  47.244  49.294  1.00  0.00     0.102 A 
HETATM   28  C   UNL     1      24.889  48.410  49.308  1.00  0.00     0.102 A 
HETATM   29  O   UNL     1      22.765  47.240  49.086  1.00  0.00    -0.346 OA
HETATM   30  O   UNL     1      24.366  49.659  49.089  1.00  0.00    -0.346 OA
HETATM   31  C   UNL     1      26.256  48.339  49.560  1.00  0.00     0.040 A 
HETATM   32  C   UNL     1      23.057  49.582  48.515  1.00  0.00     0.202 C 
HETATM   33  C   UNL     1      22.212  48.551  49.245  1.00  0.00     0.202 C 
HETATM   34  C   UNL     1      26.862  47.099  49.772  1.00  0.00     0.012 A 
ENDBRANCH   1  25
TORSDOF 8
ENDMDL
MODEL 7
REMARK VINA RESULT:      -8.9      1.468      2.003
REMARK  8 active torsions:
REMARK  status: ('A' for Active; 'I' for Inactive)
REMARK    1  A    between atoms: C_2  and  C_3 
REMARK    2  A    between atoms: C_5  and  C_6 
REMARK       I    between atoms: C_6  and  N_7 
REMARK    3  A    between atoms: N_7  and  C_8 
REMARK    4  A    between atoms: C_8  and  C_9 
REMARK    5  A    between atoms: C_9  and  N_10 
REMARK    6  A    between atoms: C_9  and  C_20 
REMARK       I    between atoms: N_10  and  C_11 
REMARK    7  A    between atoms: C_11  and  C_12 
REMARK    8  A    between atoms: C_14  and  C_15 
ROOT
HETATM    1  C   UNL     1      27.635  44.562  52.457  1.00  0.00     0.136 C 
ENDROOT
BRANCH   1   2
HETATM    2  C   UNL     1      26.307  45.300  52.769  1.00  0.00     0.153 C 
BRANCH   2   3
HETATM    3  N   UNL     1      25.952  46.299  51.778  1.00  0.00    -0.353 N 
HETATM    4  C   UNL     1      24.876  46.153  50.932  1.00  0.00     0.275 C 
HETATM    5  O   UNL     1      24.180  45.140  50.931  1.00  0.00    -0.265 OA
HETATM    6  H   UNL     1      26.409  47.205  51.814  1.00  0.00     0.162 HD
BRANCH   4   7
HETATM    7  C   UNL     1      24.638  47.290  50.068  1.00  0.00     0.143 A 
HETATM    8  O   UNL     1      25.693  48.068  49.663  1.00  0.00    -0.310 OA
HETATM    9  C   UNL     1      25.191  49.041  48.854  1.00  0.00     0.053 A 
HETATM   10  C   UNL     1      23.824  48.909  48.741  1.00  0.00     0.036 A 
HETATM   11  C   UNL     1      23.468  47.784  49.522  1.00  0.00     0.045 A 
BRANCH   9  12
HETATM   12  C   UNL     1      26.170  49.997  48.280  1.00  0.00     0.060 C 
HETATM   13  C   UNL     1      27.570  49.749  48.814  1.00  0.00     0.012 C 
ENDBRANCH   9  12
ENDBRANCH   4   7
ENDBRANCH   2   3
ENDBRANCH   1   2
BRANCH   1  14
HETATM   14  N   UNL     1      27.514  43.286  51.759  1.00  0.00    -0.345 N 
HETATM   15  C   UNL     1      27.235  43.112  50.424  1.00  0.00     0.276 C 
HETATM   16  O   UNL     1      27.198  44.035  49.616  1.00  0.00    -0.265 OA
HETATM   17  H   UNL     1      27.432  42.455  52.332  1.00  0.00     0.163 HD
BRANCH  15  18
HETATM   18  C   UNL     1      26.986  41.731  50.061  1.00  0.00     0.143 A 
HETATM   19  O   UNL     1      27.289  41.301  48.794  1.00  0.00    -0.310 OA
HETATM   20  C   UNL     1      26.969  39.978  48.728  1.00  0.00     0.053 A 
HETATM   21  C   UNL     1      26.464  39.550  49.936  1.00  0.00     0.036 A 
HETATM   22  C   UNL     1      26.474  40.677  50.792  1.00  0.00     0.045 A 
BRANCH  20  23
HETATM   23  C   UNL     1      27.222  39.300  47.432  1.00  0.00     0.060 C 
HETATM   24  C   UNL     1      25.934  38.772  46.820  1.00  0.00     0.012 C 
ENDBRANCH  20  23
ENDBRANCH  15  18
ENDBRANCH   1  14
BRANCH   1  25
HETATM   25  C   UNL     1      28.512  44.425  53.692  1.00  0.00    -0.031 A 
HETATM   26  C   UNL     1      28.473  45.369  54.733  1.00  0.00     0.049 A 
HETATM   27  C   UNL     1      29.286  45.217  55.857  1.00  0.00     0.102 A 
HETATM   28  C   UNL     1      30.174  44.142  55.942  1.00  0.00     0.102 A 
HETATM   29  O   UNL     1      29.164  46.169  56.837  1.00  0.00    -0.346 OA
HETATM   30  O   UNL     1      31.026  43.951  57.000  1.00  0.00    -0.346 OA
HETATM   31  C   UNL     1      30.217  43.194  54.924  1.00  0.00     0.040 A 
HETATM   32  C   UNL     1      31.140  45.135  57.797  1.00  0.00     0.202 C 
HETATM   33  C   UNL     1      29.769  45.737  58.060  1.00  0.00     0.202 C 
HETATM   34  C   UNL     1      29.392  43.334  53.806  1.00  0.00     0.012 A 
ENDBRANCH   1  25
TORSDOF 8
ENDMDL
MODEL 8
REMARK VINA RESULT:      -8.9      1.936      7.434
REMARK  8 active torsions:
REMARK  status: ('A' for Active; 'I' for Inactive)
REMARK    1  A    between atoms: C_2  and  C_3 
REMARK    2  A    between atoms: C_5  and  C_6 
REMARK       I    between atoms: C_6  and  N_7 
REMARK    3  A    between atoms: N_7  and  C_8 
REMARK    4  A    between atoms: C_8  and  C_9 
REMARK    5  A    between atoms: C_9  and  N_10 
REMARK    6  A    between atoms: C_9  and  C_20 
REMARK       I    between atoms: N_10  and  C_11 
REMARK    7  A    between atoms: C_11  and  C_12 
REMARK    8  A    between atoms: C_14  and  C_15 
ROOT
HETATM    1  C   UNL     1      25.179  44.859  51.836  1.00  0.00     0.136 C 
ENDROOT
BRANCH   1   2
HETATM    2  C   UNL     1      26.019  45.726  52.810  1.00  0.00     0.153 C 
BRANCH   2   3
HETATM    3  N   UNL     1      27.196  45.048  53.322  1.00  0.00    -0.353 N 
HETATM    4  C   UNL     1      27.940  45.545  54.369  1.00  0.00     0.275 C 
HETATM    5  O   UNL     1      27.680  46.623  54.899  1.00  0.00    -0.265 OA
HETATM    6  H   UNL     1      27.387  44.101  53.011  1.00  0.00     0.162 HD
BRANCH   4   7
HETATM    7  C   UNL     1      29.029  44.688  54.785  1.00  0.00     0.143 A 
HETATM    8  O   UNL     1      29.652  44.916  55.985  1.00  0.00    -0.310 OA
HETATM    9  C   UNL     1      30.613  43.962  56.130  1.00  0.00     0.053 A 
HETATM   10  C   UNL     1      30.625  43.128  55.033  1.00  0.00     0.036 A 
HETATM   11  C   UNL     1      29.608  43.595  54.168  1.00  0.00     0.045 A 
BRANCH   9  12
HETATM   12  C   UNL     1      31.409  44.007  57.382  1.00  0.00     0.060 C 
HETATM   13  C   UNL     1      30.907  45.087  58.324  1.00  0.00     0.012 C 
ENDBRANCH   9  12
ENDBRANCH   4   7
ENDBRANCH   2   3
ENDBRANCH   1   2
BRANCH   1  14
HETATM   14  N   UNL     1      25.854  43.700  51.258  1.00  0.00    -0.345 N 
HETATM   15  C   UNL     1      26.894  43.730  50.359  1.00  0.00     0.276 C 
HETATM   16  O   UNL     1      27.485  44.757  50.044  1.00  0.00    -0.265 OA
HETATM   17  H   UNL     1      25.399  42.802  51.369  1.00  0.00     0.163 HD
BRANCH  15  18
HETATM   18  C   UNL     1      27.226  42.427  49.817  1.00  0.00     0.143 A 
HETATM   19  O   UNL     1      27.283  42.256  48.457  1.00  0.00    -0.310 OA
HETATM   20  C   UNL     1      27.623  40.957  48.227  1.00  0.00     0.053 A 
HETATM   21  C   UNL     1      27.786  40.289  49.420  1.00  0.00     0.036 A 
HETATM   22  C   UNL     1      27.530  41.233  50.443  1.00  0.00     0.045 A 
BRANCH  20  23
HETATM   23  C   UNL     1      27.746  40.547  46.805  1.00  0.00     0.060 C 
HETATM   24  C   UNL     1      26.383  40.343  46.165  1.00  0.00     0.012 C 
ENDBRANCH  20  23
ENDBRANCH  15  18
ENDBRANCH   1  14
BRANCH   1  25
HETATM   25  C   UNL     1      24.517  45.698  50.754  1.00  0.00    -0.031 A 
HETATM   26  C   UNL     1      24.792  47.069  50.614  1.00  0.00     0.049 A 
HETATM   27  C   UNL     1      24.174  47.815  49.609  1.00  0.00     0.102 A 
HETATM   28  C   UNL     1      23.247  47.213  48.755  1.00  0.00     0.102 A 
HETATM   29  O   UNL     1      24.520  49.141  49.527  1.00  0.00    -0.346 OA
HETATM   30  O   UNL     1      22.577  47.893  47.771  1.00  0.00    -0.346 OA
HETATM   31  C   UNL     1      22.972  45.854  48.876  1.00  0.00     0.040 A 
HETATM   32  C   UNL     1      22.674  49.309  47.958  1.00  0.00     0.202 C 
HETATM   33  C   UNL     1      24.105  49.709  48.280  1.00  0.00     0.202 C 
HETATM   34  C   UNL     1      23.603  45.101  49.869  1.00  0.00     0.012 A 
ENDBRANCH   1  25
TORSDOF 8
ENDMDL
MODEL 9
REMARK VINA RESULT:      -8.8      2.448      6.596
REMARK  8 active torsions:
REMARK  status: ('A' for Active; 'I' for Inactive)
REMARK    1  A    between atoms: C_2  and  C_3 
REMARK    2  A    between atoms: C_5  and  C_6 
REMARK       I    between atoms: C_6  and  N_7 
REMARK    3  A    between atoms: N_7  and  C_8 
REMARK    4  A    between atoms: C_8  and  C_9 
REMARK    5  A    between atoms: C_9  and  N_10 
REMARK    6  A    between atoms: C_9  and  C_20 
REMARK       I    between atoms: N_10  and  C_11 
REMARK    7  A    between atoms: C_11  and  C_12 
REMARK    8  A    between atoms: C_14  and  C_15 
ROOT
HETATM    1  C   UNL     1      26.520  45.063  52.569  1.00  0.00     0.136 C 
ENDROOT
BRANCH   1   2
HETATM    2  C   UNL     1      26.796  43.715  51.855  1.00  0.00     0.153 C 
BRANCH   2   3
HETATM    3  N   UNL     1      25.733  43.306  50.956  1.00  0.00    -0.353 N 
HETATM    4  C   UNL     1      25.962  42.970  49.641  1.00  0.00     0.275 C 
HETATM    5  O   UNL     1      27.079  43.048  49.133  1.00  0.00    -0.265 OA
HETATM    6  H   UNL     1      24.817  43.103  51.346  1.00  0.00     0.162 HD
BRANCH   4   7
HETATM    7  C   UNL     1      24.788  42.514  48.929  1.00  0.00     0.143 A 
HETATM    8  O   UNL     1      23.908  43.430  48.411  1.00  0.00    -0.310 OA
HETATM    9  C   UNL     1      22.919  42.733  47.785  1.00  0.00     0.053 A 
HETATM   10  C   UNL     1      23.144  41.378  47.903  1.00  0.00     0.036 A 
HETATM   11  C   UNL     1      24.344  41.238  48.639  1.00  0.00     0.045 A 
BRANCH   9  12
HETATM   12  C   UNL     1      21.856  43.534  47.130  1.00  0.00     0.060 C 
HETATM   13  C   UNL     1      21.638  43.102  45.690  1.00  0.00     0.012 C 
ENDBRANCH   9  12
ENDBRANCH   4   7
ENDBRANCH   2   3
ENDBRANCH   1   2
BRANCH   1  14
HETATM   14  N   UNL     1      26.438  46.242  51.712  1.00  0.00    -0.345 N 
HETATM   15  C   UNL     1      25.395  46.571  50.879  1.00  0.00     0.276 C 
HETATM   16  O   UNL     1      24.325  45.972  50.868  1.00  0.00    -0.265 OA
HETATM   17  H   UNL     1      27.294  46.762  51.564  1.00  0.00     0.163 HD
BRANCH  15  18
HETATM   18  C   UNL     1      25.682  47.695  50.010  1.00  0.00     0.143 A 
HETATM   19  O   UNL     1      24.646  48.415  49.472  1.00  0.00    -0.310 OA
HETATM   20  C   UNL     1      25.192  49.407  48.714  1.00  0.00     0.053 A 
HETATM   21  C   UNL     1      26.567  49.336  48.757  1.00  0.00     0.036 A 
HETATM   22  C   UNL     1      26.882  48.235  49.589  1.00  0.00     0.045 A 
BRANCH  20  23
HETATM   23  C   UNL     1      24.240  50.320  48.033  1.00  0.00     0.060 C 
HETATM   24  C   UNL     1      23.225  50.895  49.007  1.00  0.00     0.012 C 
ENDBRANCH  20  23
ENDBRANCH  15  18
ENDBRANCH   1  14
BRANCH   1  25
HETATM   25  C   UNL     1      27.477  45.299  53.728  1.00  0.00    -0.031 A 
HETATM   26  C   UNL     1      28.437  44.342  54.097  1.00  0.00     0.049 A 
HETATM   27  C   UNL     1      29.306  44.586  55.161  1.00  0.00     0.102 A 
HETATM   28  C   UNL     1      29.206  45.770  55.894  1.00  0.00     0.102 A 
HETATM   29  O   UNL     1      30.231  43.609  55.437  1.00  0.00    -0.346 OA
HETATM   30  O   UNL     1      30.002  46.059  56.973  1.00  0.00    -0.346 OA
HETATM   31  C   UNL     1      28.266  46.732  55.534  1.00  0.00     0.040 A 
HETATM   32  C   UNL     1      30.674  44.889  57.452  1.00  0.00     0.202 C 
HETATM   33  C   UNL     1      31.266  44.101  56.295  1.00  0.00     0.202 C 
HETATM   34  C   UNL     1      27.407  46.499  54.458  1.00  0.00     0.012 A 
ENDBRANCH   1  25
TORSDOF 8
ENDMDL
MODEL 10
REMARK VINA RESULT:      -8.7      1.935      6.704
REMARK  8 active torsions:
REMARK  status: ('A' for Active; 'I' for Inactive)
REMARK    1  A    between atoms: C_2  and  C_3 
REMARK    2  A    between atoms: C_5  and  C_6 
REMARK       I    between atoms: C_6  and  N_7 
REMARK    3  A    between atoms: N_7  and  C_8 
REMARK    4  A    between atoms: C_8  and  C_9 
REMARK    5  A    between atoms: C_9  and  N_10 
REMARK    6  A    between atoms: C_9  and  C_20 
REMARK       I    between atoms: N_10  and  C_11 
REMARK    7  A    between atoms: C_11  and  C_12 
REMARK    8  A    between atoms: C_14  and  C_15 
ROOT
HETATM    1  C   UNL     1      27.282  43.890  52.816  1.00  0.00     0.136 C 
ENDROOT
BRANCH   1   2
HETATM    2  C   UNL     1      27.921  42.750  51.982  1.00  0.00     0.153 C 
BRANCH   2   3
HETATM    3  N   UNL     1      26.990  42.102  51.076  1.00  0.00    -0.353 N 
HETATM    4  C   UNL     1      26.736  42.577  49.809  1.00  0.00     0.275 C 
HETATM    5  O   UNL     1      27.246  43.612  49.387  1.00  0.00    -0.265 OA
HETATM    6  H   UNL     1      26.636  41.182  51.318  1.00  0.00     0.162 HD
BRANCH   4   7
HETATM    7  C   UNL     1      25.839  41.750  49.031  1.00  0.00     0.143 A 
HETATM    8  O   UNL     1      26.327  40.653  48.370  1.00  0.00    -0.310 OA
HETATM    9  C   UNL     1      25.275  40.056  47.743  1.00  0.00     0.053 A 
HETATM   10  C   UNL     1      24.116  40.762  47.983  1.00  0.00     0.036 A 
HETATM   11  C   UNL     1      24.478  41.851  48.810  1.00  0.00     0.045 A 
BRANCH   9  12
HETATM   12  C   UNL     1      25.574  38.824  46.973  1.00  0.00     0.060 C 
HETATM   13  C   UNL     1      27.027  38.410  47.124  1.00  0.00     0.012 C 
ENDBRANCH   9  12
ENDBRANCH   4   7
ENDBRANCH   2   3
ENDBRANCH   1   2
BRANCH   1  14
HETATM   14  N   UNL     1      26.810  45.051  52.066  1.00  0.00    -0.345 N 
HETATM   15  C   UNL     1      25.498  45.380  51.819  1.00  0.00     0.276 C 
HETATM   16  O   UNL     1      24.548  44.803  52.336  1.00  0.00    -0.265 OA
HETATM   17  H   UNL     1      27.496  45.550  51.514  1.00  0.00     0.163 HD
BRANCH  15  18
HETATM   18  C   UNL     1      25.345  46.478  50.885  1.00  0.00     0.143 A 
HETATM   19  O   UNL     1      26.450  47.188  50.488  1.00  0.00    -0.310 OA
HETATM   20  C   UNL     1      26.026  48.141  49.612  1.00  0.00     0.053 A 
HETATM   21  C   UNL     1      24.662  48.055  49.439  1.00  0.00     0.036 A 
HETATM   22  C   UNL     1      24.224  46.987  50.258  1.00  0.00     0.045 A 
BRANCH  20  23
HETATM   23  C   UNL     1      27.070  49.033  49.047  1.00  0.00     0.060 C 
HETATM   24  C   UNL     1      26.460  50.137  48.200  1.00  0.00     0.012 C 
ENDBRANCH  20  23
ENDBRANCH  15  18
ENDBRANCH   1  14
BRANCH   1  25
HETATM   25  C   UNL     1      28.173  44.317  53.972  1.00  0.00    -0.031 A 
HETATM   26  C   UNL     1      29.106  43.437  54.547  1.00  0.00     0.049 A 
HETATM   27  C   UNL     1      29.915  43.854  55.605  1.00  0.00     0.102 A 
HETATM   28  C   UNL     1      29.779  45.142  56.127  1.00  0.00     0.102 A 
HETATM   29  O   UNL     1      30.817  42.940  56.087  1.00  0.00    -0.346 OA
HETATM   30  O   UNL     1      30.515  45.607  57.188  1.00  0.00    -0.346 OA
HETATM   31  C   UNL     1      28.866  46.028  55.562  1.00  0.00     0.040 A 
HETATM   32  C   UNL     1      31.153  44.534  57.888  1.00  0.00     0.202 C 
HETATM   33  C   UNL     1      31.805  43.569  56.911  1.00  0.00     0.202 C 
HETATM   34  C   UNL     1      28.068  45.619  54.492  1.00  0.00     0.012 A 
ENDBRANCH   1  25
TORSDOF 8
ENDMDL
