MODEL 1
REMARK VINA RESULT:      -8.0      0.000      0.000
REMARK  4 active torsions:
REMARK  status: ('A' for Active; 'I' for Inactive)
REMARK    1  A    between atoms: C_2  and  C_3 
REMARK    2  A    between atoms: C_3  and  C_4 
REMARK    3  A    between atoms: C_4  and  C_5 
REMARK    4  A    between atoms: C_25  and  N_26 
ROOT
HETATM    1  C   UNL     1      31.736  51.543  38.671  1.00  0.00     0.067 A 
HETATM    2  N   UNL     1      32.740  51.318  37.805  1.00  0.00    -0.177 NA
HETATM    3  N   UNL     1      33.814  51.095  38.585  1.00  0.00    -0.256 N 
HETATM    4  H   UNL     1      34.712  50.923  38.146  1.00  0.00     0.191 HD
HETATM    5  C   UNL     1      33.522  51.166  39.908  1.00  0.00     0.176 A 
HETATM    6  C   UNL     1      32.175  51.413  40.013  1.00  0.00     0.049 A 
HETATM    7  C   UNL     1      31.566  51.545  41.368  1.00  0.00     0.144 A 
HETATM    8  C   UNL     1      30.735  52.850  41.496  1.00  0.00     0.246 A 
HETATM    9  O   UNL     1      31.141  54.001  41.467  1.00  0.00    -0.271 OA
HETATM   10  N   UNL     1      29.409  52.476  41.683  1.00  0.00    -0.325 N 
HETATM   11  C   UNL     1      29.265  51.096  41.693  1.00  0.00     0.043 A 
HETATM   12  C   UNL     1      30.504  50.465  41.501  1.00  0.00     0.003 A 
HETATM   13  C   UNL     1      28.084  50.404  41.864  1.00  0.00     0.030 A 
HETATM   14  C   UNL     1      28.150  49.014  41.842  1.00  0.00     0.003 A 
HETATM   15  C   UNL     1      29.379  48.357  41.659  1.00  0.00     0.007 A 
HETATM   16  C   UNL     1      30.581  49.071  41.494  1.00  0.00    -0.051 A 
HETATM   17  C   UNL     1      31.864  48.320  41.300  1.00  0.00     0.049 C 
HETATM   18  C   UNL     1      32.637  51.520  42.450  1.00  0.00     0.081 A 
HETATM   19  C   UNL     1      32.205  51.885  43.861  1.00  0.00     0.021 C 
HETATM   20  N   UNL     1      31.846  52.189  45.031  1.00  0.00    -0.096 N 
HETATM   21  C   UNL     1      33.952  51.286  42.189  1.00  0.00     0.140 A 
HETATM   22  O   UNL     1      34.414  51.040  40.884  1.00  0.00    -0.279 OA
HETATM   23  H   UNL     1      28.665  53.147  41.815  1.00  0.00     0.169 HD
ENDROOT
BRANCH  21  24
HETATM   24  N   UNL     1      34.964  51.275  43.122  1.00  0.00    -0.282 NA
HETATM   25  H   UNL     1      34.678  51.074  44.078  1.00  0.00     0.126 HD
HETATM   26  H   UNL     1      35.546  52.106  43.057  1.00  0.00     0.126 HD
ENDBRANCH  21  24
BRANCH   1  27
HETATM   27  C   UNL     1      30.385  51.908  38.143  1.00  0.00     0.062 C 
BRANCH  27  28
HETATM   28  C   UNL     1      29.410  50.728  38.210  1.00  0.00     0.006 C 
BRANCH  28  29
HETATM   29  C   UNL     1      27.962  51.198  38.333  1.00  0.00    -0.004 C 
HETATM   30  C   UNL     1      26.993  50.029  38.254  1.00  0.00     0.005 C 
ENDBRANCH  28  29
ENDBRANCH  27  28
ENDBRANCH   1  27
TORSDOF 4
ENDMDL
MODEL 2
REMARK VINA RESULT:      -7.9      2.382      4.769
REMARK  4 active torsions:
REMARK  status: ('A' for Active; 'I' for Inactive)
REMARK    1  A    between atoms: C_2  and  C_3 
REMARK    2  A    between atoms: C_3  and  C_4 
REMARK    3  A    between atoms: C_4  and  C_5 
REMARK    4  A    between atoms: C_25  and  N_26 
ROOT
HETATM    1  C   UNL     1      32.519  52.522  39.619  1.00  0.00     0.067 A 
HETATM    2  N   UNL     1      32.828  53.794  39.923  1.00  0.00    -0.177 NA
HETATM    3  N   UNL     1      31.736  54.264  40.555  1.00  0.00    -0.256 N 
HETATM    4  H   UNL     1      31.726  55.230  40.864  1.00  0.00     0.191 HD
HETATM    5  C   UNL     1      30.756  53.333  40.665  1.00  0.00     0.176 A 
HETATM    6  C   UNL     1      31.234  52.173  40.108  1.00  0.00     0.049 A 
HETATM    7  C   UNL     1      30.360  50.965  40.086  1.00  0.00     0.144 A 
HETATM    8  C   UNL     1      30.264  50.356  38.662  1.00  0.00     0.246 A 
HETATM    9  O   UNL     1      29.759  50.852  37.667  1.00  0.00    -0.271 OA
HETATM   10  N   UNL     1      30.847  49.094  38.715  1.00  0.00    -0.325 N 
HETATM   11  C   UNL     1      31.312  48.801  39.989  1.00  0.00     0.043 A 
HETATM   12  C   UNL     1      31.069  49.870  40.865  1.00  0.00     0.003 A 
HETATM   13  C   UNL     1      31.933  47.632  40.377  1.00  0.00     0.030 A 
HETATM   14  C   UNL     1      32.328  47.531  41.708  1.00  0.00     0.003 A 
HETATM   15  C   UNL     1      32.090  48.583  42.609  1.00  0.00     0.007 A 
HETATM   16  C   UNL     1      31.448  49.770  42.205  1.00  0.00    -0.051 A 
HETATM   17  C   UNL     1      31.221  50.861  43.207  1.00  0.00     0.049 C 
HETATM   18  C   UNL     1      28.961  51.297  40.588  1.00  0.00     0.081 A 
HETATM   19  C   UNL     1      27.887  50.239  40.399  1.00  0.00     0.021 C 
HETATM   20  N   UNL     1      26.997  49.360  40.242  1.00  0.00    -0.096 N 
HETATM   21  C   UNL     1      28.623  52.514  41.094  1.00  0.00     0.140 A 
HETATM   22  O   UNL     1      29.559  53.558  41.197  1.00  0.00    -0.279 OA
HETATM   23  H   UNL     1      30.893  48.479  37.914  1.00  0.00     0.169 HD
ENDROOT
BRANCH  21  24
HETATM   24  N   UNL     1      27.372  52.877  41.539  1.00  0.00    -0.282 NA
HETATM   25  H   UNL     1      27.333  53.246  42.487  1.00  0.00     0.126 HD
HETATM   26  H   UNL     1      26.686  52.143  41.379  1.00  0.00     0.126 HD
ENDBRANCH  21  24
BRANCH   1  27
HETATM   27  C   UNL     1      33.490  51.704  38.829  1.00  0.00     0.062 C 
BRANCH  27  28
HETATM   28  C   UNL     1      34.821  51.530  39.567  1.00  0.00     0.006 C 
BRANCH  28  29
HETATM   29  C   UNL     1      34.705  50.525  40.712  1.00  0.00    -0.004 C 
HETATM   30  C   UNL     1      34.915  51.196  42.060  1.00  0.00     0.005 C 
ENDBRANCH  28  29
ENDBRANCH  27  28
ENDBRANCH   1  27
TORSDOF 4
ENDMDL
MODEL 3
REMARK VINA RESULT:      -7.6      3.198      5.504
REMARK  4 active torsions:
REMARK  status: ('A' for Active; 'I' for Inactive)
REMARK    1  A    between atoms: C_2  and  C_3 
REMARK    2  A    between atoms: C_3  and  C_4 
REMARK    3  A    between atoms: C_4  and  C_5 
REMARK    4  A    between atoms: C_25  and  N_26 
ROOT
HETATM    1  C   UNL     1      31.320  48.729  41.752  1.00  0.00     0.067 A 
HETATM    2  N   UNL     1      32.483  48.083  41.558  1.00  0.00    -0.177 NA
HETATM    3  N   UNL     1      32.315  47.427  40.395  1.00  0.00    -0.256 N 
HETATM    4  H   UNL     1      33.066  46.840  40.050  1.00  0.00     0.191 HD
HETATM    5  C   UNL     1      31.093  47.641  39.847  1.00  0.00     0.176 A 
HETATM    6  C   UNL     1      30.426  48.513  40.672  1.00  0.00     0.049 A 
HETATM    7  C   UNL     1      29.040  48.931  40.316  1.00  0.00     0.144 A 
HETATM    8  C   UNL     1      28.059  48.728  41.502  1.00  0.00     0.246 A 
HETATM    9  O   UNL     1      27.709  47.675  42.012  1.00  0.00    -0.271 OA
HETATM   10  N   UNL     1      27.611  49.987  41.885  1.00  0.00    -0.325 N 
HETATM   11  C   UNL     1      28.171  50.987  41.102  1.00  0.00     0.043 A 
HETATM   12  C   UNL     1      29.043  50.442  40.148  1.00  0.00     0.003 A 
HETATM   13  C   UNL     1      27.929  52.340  41.219  1.00  0.00     0.030 A 
HETATM   14  C   UNL     1      28.593  53.185  40.334  1.00  0.00     0.003 A 
HETATM   15  C   UNL     1      29.466  52.665  39.364  1.00  0.00     0.007 A 
HETATM   16  C   UNL     1      29.701  51.281  39.247  1.00  0.00    -0.051 A 
HETATM   17  C   UNL     1      30.644  50.781  38.195  1.00  0.00     0.049 C 
HETATM   18  C   UNL     1      28.533  48.159  39.105  1.00  0.00     0.081 A 
HETATM   19  C   UNL     1      27.057  48.292  38.766  1.00  0.00     0.021 C 
HETATM   20  N   UNL     1      25.833  48.402  38.486  1.00  0.00    -0.096 N 
HETATM   21  C   UNL     1      29.310  47.298  38.394  1.00  0.00     0.140 A 
HETATM   22  O   UNL     1      30.656  47.067  38.731  1.00  0.00    -0.279 OA
HETATM   23  H   UNL     1      26.942  50.127  42.629  1.00  0.00     0.169 HD
ENDROOT
BRANCH  21  24
HETATM   24  N   UNL     1      28.900  46.557  37.309  1.00  0.00    -0.282 NA
HETATM   25  H   UNL     1      28.073  46.905  36.828  1.00  0.00     0.126 HD
HETATM   26  H   UNL     1      28.833  45.567  37.531  1.00  0.00     0.126 HD
ENDBRANCH  21  24
BRANCH   1  27
HETATM   27  C   UNL     1      31.119  49.510  43.011  1.00  0.00     0.062 C 
BRANCH  27  28
HETATM   28  C   UNL     1      32.151  50.633  43.153  1.00  0.00     0.006 C 
BRANCH  28  29
HETATM   29  C   UNL     1      31.847  51.803  42.219  1.00  0.00    -0.004 C 
HETATM   30  C   UNL     1      32.829  51.852  41.058  1.00  0.00     0.005 C 
ENDBRANCH  28  29
ENDBRANCH  27  28
ENDBRANCH   1  27
TORSDOF 4
ENDMDL
MODEL 4
REMARK VINA RESULT:      -7.4      2.888      5.348
REMARK  4 active torsions:
REMARK  status: ('A' for Active; 'I' for Inactive)
REMARK    1  A    between atoms: C_2  and  C_3 
REMARK    2  A    between atoms: C_3  and  C_4 
REMARK    3  A    between atoms: C_4  and  C_5 
REMARK    4  A    between atoms: C_25  and  N_26 
ROOT
HETATM    1  C   UNL     1      30.472  51.484  38.036  1.00  0.00     0.067 A 
HETATM    2  N   UNL     1      29.866  52.485  37.373  1.00  0.00    -0.177 NA
HETATM    3  N   UNL     1      28.569  52.378  37.715  1.00  0.00    -0.256 N 
HETATM    4  H   UNL     1      27.900  53.025  37.310  1.00  0.00     0.191 HD
HETATM    5  C   UNL     1      28.337  51.352  38.571  1.00  0.00     0.176 A 
HETATM    6  C   UNL     1      29.549  50.768  38.841  1.00  0.00     0.049 A 
HETATM    7  C   UNL     1      29.601  49.598  39.764  1.00  0.00     0.144 A 
HETATM    8  C   UNL     1      30.367  48.405  39.132  1.00  0.00     0.246 A 
HETATM    9  O   UNL     1      30.046  47.740  38.160  1.00  0.00    -0.271 OA
HETATM   10  N   UNL     1      31.507  48.196  39.900  1.00  0.00    -0.325 N 
HETATM   11  C   UNL     1      31.585  49.097  40.952  1.00  0.00     0.043 A 
HETATM   12  C   UNL     1      30.491  49.975  40.937  1.00  0.00     0.003 A 
HETATM   13  C   UNL     1      32.586  49.153  41.899  1.00  0.00     0.030 A 
HETATM   14  C   UNL     1      32.483  50.137  42.879  1.00  0.00     0.003 A 
HETATM   15  C   UNL     1      31.394  51.025  42.891  1.00  0.00     0.007 A 
HETATM   16  C   UNL     1      30.372  50.955  41.925  1.00  0.00    -0.051 A 
HETATM   17  C   UNL     1      29.233  51.928  41.985  1.00  0.00     0.049 C 
HETATM   18  C   UNL     1      28.198  49.148  40.151  1.00  0.00     0.081 A 
HETATM   19  C   UNL     1      28.072  47.825  40.887  1.00  0.00     0.021 C 
HETATM   20  N   UNL     1      27.969  46.726  41.498  1.00  0.00    -0.096 N 
HETATM   21  C   UNL     1      27.074  49.821  39.782  1.00  0.00     0.140 A 
HETATM   22  O   UNL     1      27.136  50.999  39.016  1.00  0.00    -0.279 OA
HETATM   23  H   UNL     1      32.168  47.456  39.707  1.00  0.00     0.169 HD
ENDROOT
BRANCH  21  24
HETATM   24  N   UNL     1      25.783  49.450  40.083  1.00  0.00    -0.282 NA
HETATM   25  H   UNL     1      25.520  48.508  39.800  1.00  0.00     0.126 HD
HETATM   26  H   UNL     1      25.109  50.149  39.780  1.00  0.00     0.126 HD
ENDBRANCH  21  24
BRANCH   1  27
HETATM   27  C   UNL     1      31.934  51.250  37.828  1.00  0.00     0.062 C 
BRANCH  27  28
HETATM   28  C   UNL     1      32.784  52.026  38.839  1.00  0.00     0.006 C 
BRANCH  28  29
HETATM   29  C   UNL     1      34.069  51.278  39.188  1.00  0.00    -0.004 C 
HETATM   30  C   UNL     1      34.730  51.863  40.427  1.00  0.00     0.005 C 
ENDBRANCH  28  29
ENDBRANCH  27  28
ENDBRANCH   1  27
TORSDOF 4
ENDMDL
MODEL 5
REMARK VINA RESULT:      -7.4      2.748      5.747
REMARK  4 active torsions:
REMARK  status: ('A' for Active; 'I' for Inactive)
REMARK    1  A    between atoms: C_2  and  C_3 
REMARK    2  A    between atoms: C_3  and  C_4 
REMARK    3  A    between atoms: C_4  and  C_5 
REMARK    4  A    between atoms: C_25  and  N_26 
ROOT
HETATM    1  C   UNL     1      28.998  52.166  40.821  1.00  0.00     0.067 A 
HETATM    2  N   UNL     1      27.926  52.811  41.315  1.00  0.00    -0.177 NA
HETATM    3  N   UNL     1      26.903  51.956  41.128  1.00  0.00    -0.256 N 
HETATM    4  H   UNL     1      25.970  52.239  41.406  1.00  0.00     0.191 HD
HETATM    5  C   UNL     1      27.292  50.797  40.542  1.00  0.00     0.176 A 
HETATM    6  C   UNL     1      28.651  50.870  40.361  1.00  0.00     0.049 A 
HETATM    7  C   UNL     1      29.361  49.723  39.727  1.00  0.00     0.144 A 
HETATM    8  C   UNL     1      30.249  50.186  38.540  1.00  0.00     0.246 A 
HETATM    9  O   UNL     1      29.888  50.668  37.478  1.00  0.00    -0.271 OA
HETATM   10  N   UNL     1      31.570  49.927  38.891  1.00  0.00    -0.325 N 
HETATM   11  C   UNL     1      31.660  49.355  40.152  1.00  0.00     0.043 A 
HETATM   12  C   UNL     1      30.387  49.208  40.723  1.00  0.00     0.003 A 
HETATM   13  C   UNL     1      32.823  48.974  40.788  1.00  0.00     0.030 A 
HETATM   14  C   UNL     1      32.702  48.416  42.058  1.00  0.00     0.003 A 
HETATM   15  C   UNL     1      31.438  48.251  42.651  1.00  0.00     0.007 A 
HETATM   16  C   UNL     1      30.256  48.636  41.990  1.00  0.00    -0.051 A 
HETATM   17  C   UNL     1      28.934  48.438  42.669  1.00  0.00     0.049 C 
HETATM   18  C   UNL     1      28.371  48.674  39.236  1.00  0.00     0.081 A 
HETATM   19  C   UNL     1      28.918  47.564  38.354  1.00  0.00     0.021 C 
HETATM   20  N   UNL     1      29.372  46.643  37.621  1.00  0.00    -0.096 N 
HETATM   21  C   UNL     1      27.033  48.750  39.470  1.00  0.00     0.140 A 
HETATM   22  O   UNL     1      26.469  49.812  40.198  1.00  0.00    -0.279 OA
HETATM   23  H   UNL     1      32.347  50.121  38.274  1.00  0.00     0.169 HD
ENDROOT
BRANCH  21  24
HETATM   24  N   UNL     1      26.091  47.846  39.032  1.00  0.00    -0.282 NA
HETATM   25  H   UNL     1      25.624  47.311  39.761  1.00  0.00     0.126 HD
HETATM   26  H   UNL     1      26.453  47.256  38.287  1.00  0.00     0.126 HD
ENDBRANCH  21  24
BRANCH   1  27
HETATM   27  C   UNL     1      30.320  52.864  40.793  1.00  0.00     0.062 C 
BRANCH  27  28
HETATM   28  C   UNL     1      30.912  53.018  42.197  1.00  0.00     0.006 C 
BRANCH  28  29
HETATM   29  C   UNL     1      32.061  52.040  42.437  1.00  0.00    -0.004 C 
HETATM   30  C   UNL     1      32.238  51.747  43.918  1.00  0.00     0.005 C 
ENDBRANCH  28  29
ENDBRANCH  27  28
ENDBRANCH   1  27
TORSDOF 4
ENDMDL
MODEL 6
REMARK VINA RESULT:      -7.3      1.916      3.293
REMARK  4 active torsions:
REMARK  status: ('A' for Active; 'I' for Inactive)
REMARK    1  A    between atoms: C_2  and  C_3 
REMARK    2  A    between atoms: C_3  and  C_4 
REMARK    3  A    between atoms: C_4  and  C_5 
REMARK    4  A    between atoms: C_25  and  N_26 
ROOT
HETATM    1  C   UNL     1      29.657  52.607  41.143  1.00  0.00     0.067 A 
HETATM    2  N   UNL     1      29.374  53.832  40.665  1.00  0.00    -0.177 NA
HETATM    3  N   UNL     1      30.550  54.290  40.197  1.00  0.00    -0.256 N 
HETATM    4  H   UNL     1      30.590  55.224  39.802  1.00  0.00     0.191 HD
HETATM    5  C   UNL     1      31.559  53.399  40.357  1.00  0.00     0.176 A 
HETATM    6  C   UNL     1      31.019  52.274  40.930  1.00  0.00     0.049 A 
HETATM    7  C   UNL     1      31.907  51.114  41.228  1.00  0.00     0.144 A 
HETATM    8  C   UNL     1      31.756  50.642  42.699  1.00  0.00     0.246 A 
HETATM    9  O   UNL     1      32.056  51.249  43.715  1.00  0.00    -0.271 OA
HETATM   10  N   UNL     1      31.228  49.356  42.665  1.00  0.00    -0.325 N 
HETATM   11  C   UNL     1      31.014  48.926  41.363  1.00  0.00     0.043 A 
HETATM   12  C   UNL     1      31.384  49.921  40.445  1.00  0.00     0.003 A 
HETATM   13  C   UNL     1      30.507  47.701  40.986  1.00  0.00     0.030 A 
HETATM   14  C   UNL     1      30.367  47.460  39.622  1.00  0.00     0.003 A 
HETATM   15  C   UNL     1      30.737  48.436  38.680  1.00  0.00     0.007 A 
HETATM   16  C   UNL     1      31.261  49.682  39.075  1.00  0.00    -0.051 A 
HETATM   17  C   UNL     1      31.639  50.686  38.028  1.00  0.00     0.049 C 
HETATM   18  C   UNL     1      33.365  51.462  40.957  1.00  0.00     0.081 A 
HETATM   19  C   UNL     1      34.414  50.474  41.439  1.00  0.00     0.021 C 
HETATM   20  N   UNL     1      35.285  49.654  41.840  1.00  0.00    -0.096 N 
HETATM   21  C   UNL     1      33.757  52.641  40.403  1.00  0.00     0.140 A 
HETATM   22  O   UNL     1      32.826  53.628  40.031  1.00  0.00    -0.279 OA
HETATM   23  H   UNL     1      31.052  48.815  43.501  1.00  0.00     0.169 HD
ENDROOT
BRANCH  21  24
HETATM   24  N   UNL     1      35.058  53.018  40.158  1.00  0.00    -0.282 NA
HETATM   25  H   UNL     1      35.228  54.021  40.136  1.00  0.00     0.126 HD
HETATM   26  H   UNL     1      35.442  52.541  39.346  1.00  0.00     0.126 HD
ENDBRANCH  21  24
BRANCH   1  27
HETATM   27  C   UNL     1      28.580  51.822  41.821  1.00  0.00     0.062 C 
BRANCH  27  28
HETATM   28  C   UNL     1      27.409  51.530  40.878  1.00  0.00     0.006 C 
BRANCH  28  29
HETATM   29  C   UNL     1      27.728  50.385  39.919  1.00  0.00    -0.004 C 
HETATM   30  C   UNL     1      27.747  50.862  38.475  1.00  0.00     0.005 C 
ENDBRANCH  28  29
ENDBRANCH  27  28
ENDBRANCH   1  27
TORSDOF 4
ENDMDL
MODEL 7
REMARK VINA RESULT:      -7.3      2.357      3.656
REMARK  4 active torsions:
REMARK  status: ('A' for Active; 'I' for Inactive)
REMARK    1  A    between atoms: C_2  and  C_3 
REMARK    2  A    between atoms: C_3  and  C_4 
REMARK    3  A    between atoms: C_4  and  C_5 
REMARK    4  A    between atoms: C_25  and  N_26 
ROOT
HETATM    1  C   UNL     1      31.796  48.579  40.452  1.00  0.00     0.067 A 
HETATM    2  N   UNL     1      32.339  47.488  41.020  1.00  0.00    -0.177 NA
HETATM    3  N   UNL     1      33.555  47.892  41.433  1.00  0.00    -0.256 N 
HETATM    4  H   UNL     1      34.170  47.220  41.878  1.00  0.00     0.191 HD
HETATM    5  C   UNL     1      33.794  49.197  41.152  1.00  0.00     0.176 A 
HETATM    6  C   UNL     1      32.664  49.696  40.552  1.00  0.00     0.049 A 
HETATM    7  C   UNL     1      32.641  51.125  40.127  1.00  0.00     0.144 A 
HETATM    8  C   UNL     1      32.204  51.272  38.644  1.00  0.00     0.246 A 
HETATM    9  O   UNL     1      32.798  50.891  37.648  1.00  0.00    -0.271 OA
HETATM   10  N   UNL     1      30.995  51.959  38.638  1.00  0.00    -0.325 N 
HETATM   11  C   UNL     1      30.584  52.279  39.924  1.00  0.00     0.043 A 
HETATM   12  C   UNL     1      31.505  51.809  40.872  1.00  0.00     0.003 A 
HETATM   13  C   UNL     1      29.434  52.962  40.261  1.00  0.00     0.030 A 
HETATM   14  C   UNL     1      29.199  53.185  41.615  1.00  0.00     0.003 A 
HETATM   15  C   UNL     1      30.109  52.731  42.586  1.00  0.00     0.007 A 
HETATM   16  C   UNL     1      31.285  52.041  42.231  1.00  0.00    -0.051 A 
HETATM   17  C   UNL     1      32.220  51.578  43.307  1.00  0.00     0.049 C 
HETATM   18  C   UNL     1      34.006  51.773  40.318  1.00  0.00     0.081 A 
HETATM   19  C   UNL     1      34.212  53.149  39.708  1.00  0.00     0.021 C 
HETATM   20  N   UNL     1      34.382  54.291  39.201  1.00  0.00    -0.096 N 
HETATM   21  C   UNL     1      35.052  51.138  40.912  1.00  0.00     0.140 A 
HETATM   22  O   UNL     1      34.938  49.825  41.404  1.00  0.00    -0.279 OA
HETATM   23  H   UNL     1      30.508  52.201  37.786  1.00  0.00     0.169 HD
ENDROOT
BRANCH  21  24
HETATM   24  N   UNL     1      36.312  51.664  41.090  1.00  0.00    -0.282 NA
HETATM   25  H   UNL     1      36.574  52.404  40.443  1.00  0.00     0.126 HD
HETATM   26  H   UNL     1      37.019  50.935  41.154  1.00  0.00     0.126 HD
ENDBRANCH  21  24
BRANCH   1  27
HETATM   27  C   UNL     1      30.453  48.473  39.804  1.00  0.00     0.062 C 
BRANCH  27  28
HETATM   28  C   UNL     1      29.379  48.007  40.793  1.00  0.00     0.006 C 
BRANCH  28  29
HETATM   29  C   UNL     1      29.116  49.052  41.875  1.00  0.00    -0.004 C 
HETATM   30  C   UNL     1      27.845  49.836  41.589  1.00  0.00     0.005 C 
ENDBRANCH  28  29
ENDBRANCH  27  28
ENDBRANCH   1  27
TORSDOF 4
ENDMDL
MODEL 8
REMARK VINA RESULT:      -7.2      1.193      1.519
REMARK  4 active torsions:
REMARK  status: ('A' for Active; 'I' for Inactive)
REMARK    1  A    between atoms: C_2  and  C_3 
REMARK    2  A    between atoms: C_3  and  C_4 
REMARK    3  A    between atoms: C_4  and  C_5 
REMARK    4  A    between atoms: C_25  and  N_26 
ROOT
HETATM    1  C   UNL     1      30.055  51.472  38.095  1.00  0.00     0.067 A 
HETATM    2  N   UNL     1      30.723  51.545  36.930  1.00  0.00    -0.177 NA
HETATM    3  N   UNL     1      32.018  51.421  37.277  1.00  0.00    -0.256 N 
HETATM    4  H   UNL     1      32.727  51.472  36.553  1.00  0.00     0.191 HD
HETATM    5  C   UNL     1      32.189  51.266  38.613  1.00  0.00     0.176 A 
HETATM    6  C   UNL     1      30.939  51.251  39.182  1.00  0.00     0.049 A 
HETATM    7  C   UNL     1      30.817  51.094  40.660  1.00  0.00     0.144 A 
HETATM    8  C   UNL     1      29.921  52.200  41.280  1.00  0.00     0.246 A 
HETATM    9  O   UNL     1      30.142  53.399  41.334  1.00  0.00    -0.271 OA
HETATM   10  N   UNL     1      28.797  51.571  41.805  1.00  0.00    -0.325 N 
HETATM   11  C   UNL     1      28.843  50.198  41.609  1.00  0.00     0.043 A 
HETATM   12  C   UNL     1      30.011  49.833  40.924  1.00  0.00     0.003 A 
HETATM   13  C   UNL     1      27.889  49.289  42.015  1.00  0.00     0.030 A 
HETATM   14  C   UNL     1      28.119  47.948  41.721  1.00  0.00     0.003 A 
HETATM   15  C   UNL     1      29.285  47.553  41.042  1.00  0.00     0.007 A 
HETATM   16  C   UNL     1      30.258  48.488  40.638  1.00  0.00    -0.051 A 
HETATM   17  C   UNL     1      31.482  48.012  39.916  1.00  0.00     0.049 C 
HETATM   18  C   UNL     1      32.187  51.123  41.325  1.00  0.00     0.081 A 
HETATM   19  C   UNL     1      32.220  51.218  42.841  1.00  0.00     0.021 C 
HETATM   20  N   UNL     1      32.246  51.299  44.099  1.00  0.00    -0.096 N 
HETATM   21  C   UNL     1      33.352  51.166  40.623  1.00  0.00     0.140 A 
HETATM   22  O   UNL     1      33.369  51.178  39.217  1.00  0.00    -0.279 OA
HETATM   23  H   UNL     1      28.064  52.074  42.285  1.00  0.00     0.169 HD
ENDROOT
BRANCH  21  24
HETATM   24  N   UNL     1      34.615  51.217  41.170  1.00  0.00    -0.282 NA
HETATM   25  H   UNL     1      35.370  50.914  40.559  1.00  0.00     0.126 HD
HETATM   26  H   UNL     1      34.649  50.769  42.083  1.00  0.00     0.126 HD
ENDBRANCH  21  24
BRANCH   1  27
HETATM   27  C   UNL     1      28.571  51.652  38.097  1.00  0.00     0.062 C 
BRANCH  27  28
HETATM   28  C   UNL     1      27.834  50.309  38.129  1.00  0.00     0.006 C 
BRANCH  28  29
HETATM   29  C   UNL     1      26.463  50.432  38.791  1.00  0.00    -0.004 C 
HETATM   30  C   UNL     1      25.789  49.075  38.923  1.00  0.00     0.005 C 
ENDBRANCH  28  29
ENDBRANCH  27  28
ENDBRANCH   1  27
TORSDOF 4
ENDMDL
MODEL 9
REMARK VINA RESULT:      -6.9      2.313      3.116
REMARK  4 active torsions:
REMARK  status: ('A' for Active; 'I' for Inactive)
REMARK    1  A    between atoms: C_2  and  C_3 
REMARK    2  A    between atoms: C_3  and  C_4 
REMARK    3  A    between atoms: C_4  and  C_5 
REMARK    4  A    between atoms: C_25  and  N_26 
ROOT
HETATM    1  C   UNL     1      28.914  51.163  38.351  1.00  0.00     0.067 A 
HETATM    2  N   UNL     1      29.529  51.771  37.321  1.00  0.00    -0.177 NA
HETATM    3  N   UNL     1      30.839  51.543  37.529  1.00  0.00    -0.256 N 
HETATM    4  H   UNL     1      31.514  51.934  36.880  1.00  0.00     0.191 HD
HETATM    5  C   UNL     1      31.071  50.809  38.645  1.00  0.00     0.176 A 
HETATM    6  C   UNL     1      29.848  50.502  39.190  1.00  0.00     0.049 A 
HETATM    7  C   UNL     1      29.794  49.694  40.441  1.00  0.00     0.144 A 
HETATM    8  C   UNL     1      28.915  50.376  41.524  1.00  0.00     0.246 A 
HETATM    9  O   UNL     1      29.127  51.429  42.105  1.00  0.00    -0.271 OA
HETATM   10  N   UNL     1      27.823  49.546  41.750  1.00  0.00    -0.325 N 
HETATM   11  C   UNL     1      27.873  48.410  40.955  1.00  0.00     0.043 A 
HETATM   12  C   UNL     1      29.013  48.426  40.137  1.00  0.00     0.003 A 
HETATM   13  C   UNL     1      26.947  47.388  40.941  1.00  0.00     0.030 A 
HETATM   14  C   UNL     1      27.178  46.330  40.066  1.00  0.00     0.003 A 
HETATM   15  C   UNL     1      28.316  46.317  39.241  1.00  0.00     0.007 A 
HETATM   16  C   UNL     1      29.260  47.361  39.268  1.00  0.00    -0.051 A 
HETATM   17  C   UNL     1      30.456  47.297  38.366  1.00  0.00     0.049 C 
HETATM   18  C   UNL     1      31.192  49.461  40.999  1.00  0.00     0.081 A 
HETATM   19  C   UNL     1      31.291  48.866  42.394  1.00  0.00     0.021 C 
HETATM   20  N   UNL     1      31.373  48.372  43.552  1.00  0.00    -0.096 N 
HETATM   21  C   UNL     1      32.324  49.849  40.352  1.00  0.00     0.140 A 
HETATM   22  O   UNL     1      32.277  50.493  39.102  1.00  0.00    -0.279 OA
HETATM   23  H   UNL     1      27.107  49.758  42.431  1.00  0.00     0.169 HD
ENDROOT
BRANCH  21  24
HETATM   24  N   UNL     1      33.609  49.686  40.818  1.00  0.00    -0.282 NA
HETATM   25  H   UNL     1      34.339  49.712  40.110  1.00  0.00     0.126 HD
HETATM   26  H   UNL     1      33.689  48.876  41.429  1.00  0.00     0.126 HD
ENDBRANCH  21  24
BRANCH   1  27
HETATM   27  C   UNL     1      27.430  51.279  38.487  1.00  0.00     0.062 C 
BRANCH  27  28
HETATM   28  C   UNL     1      26.706  50.069  37.888  1.00  0.00     0.006 C 
BRANCH  28  29
HETATM   29  C   UNL     1      25.398  49.774  38.619  1.00  0.00    -0.004 C 
HETATM   30  C   UNL     1      24.590  48.707  37.897  1.00  0.00     0.005 C 
ENDBRANCH  28  29
ENDBRANCH  27  28
ENDBRANCH   1  27
TORSDOF 4
ENDMDL
MODEL 10
REMARK VINA RESULT:      -6.9     12.719     15.213
REMARK  4 active torsions:
REMARK  status: ('A' for Active; 'I' for Inactive)
REMARK    1  A    between atoms: C_2  and  C_3 
REMARK    2  A    between atoms: C_3  and  C_4 
REMARK    3  A    between atoms: C_4  and  C_5 
REMARK    4  A    between atoms: C_25  and  N_26 
ROOT
HETATM    1  C   UNL     1      19.980  48.239  49.047  1.00  0.00     0.067 A 
HETATM    2  N   UNL     1      21.311  48.398  49.155  1.00  0.00    -0.177 NA
HETATM    3  N   UNL     1      21.799  47.964  47.978  1.00  0.00    -0.256 N 
HETATM    4  H   UNL     1      22.803  47.966  47.833  1.00  0.00     0.191 HD
HETATM    5  C   UNL     1      20.826  47.544  47.132  1.00  0.00     0.176 A 
HETATM    6  C   UNL     1      19.624  47.742  47.766  1.00  0.00     0.049 A 
HETATM    7  C   UNL     1      18.364  47.364  47.065  1.00  0.00     0.144 A 
HETATM    8  C   UNL     1      17.469  46.454  47.950  1.00  0.00     0.246 A 
HETATM    9  O   UNL     1      17.704  45.319  48.333  1.00  0.00    -0.271 OA
HETATM   10  N   UNL     1      16.304  47.162  48.220  1.00  0.00    -0.325 N 
HETATM   11  C   UNL     1      16.320  48.417  47.628  1.00  0.00     0.043 A 
HETATM   12  C   UNL     1      17.519  48.620  46.928  1.00  0.00     0.003 A 
HETATM   13  C   UNL     1      15.316  49.360  47.698  1.00  0.00     0.030 A 
HETATM   14  C   UNL     1      15.525  50.565  47.033  1.00  0.00     0.003 A 
HETATM   15  C   UNL     1      16.714  50.792  46.318  1.00  0.00     0.007 A 
HETATM   16  C   UNL     1      17.730  49.820  46.245  1.00  0.00    -0.051 A 
HETATM   17  C   UNL     1      18.978  50.115  45.470  1.00  0.00     0.049 C 
HETATM   18  C   UNL     1      18.663  46.654  45.752  1.00  0.00     0.081 A 
HETATM   19  C   UNL     1      17.496  45.992  45.039  1.00  0.00     0.021 C 
HETATM   20  N   UNL     1      16.527  45.442  44.449  1.00  0.00    -0.096 N 
HETATM   21  C   UNL     1      19.923  46.508  45.257  1.00  0.00     0.140 A 
HETATM   22  O   UNL     1      21.046  47.019  45.932  1.00  0.00    -0.279 OA
HETATM   23  H   UNL     1      15.544  46.777  48.765  1.00  0.00     0.169 HD
ENDROOT
BRANCH  21  24
HETATM   24  N   UNL     1      20.254  45.857  44.090  1.00  0.00    -0.282 NA
HETATM   25  H   UNL     1      19.470  45.582  43.503  1.00  0.00     0.126 HD
HETATM   26  H   UNL     1      20.903  45.092  44.256  1.00  0.00     0.126 HD
ENDBRANCH  21  24
BRANCH   1  27
HETATM   27  C   UNL     1      19.109  48.552  50.220  1.00  0.00     0.062 C 
BRANCH  27  28
HETATM   28  C   UNL     1      19.214  50.025  50.629  1.00  0.00     0.006 C 
BRANCH  28  29
HETATM   29  C   UNL     1      18.369  50.924  49.728  1.00  0.00    -0.004 C 
HETATM   30  C   UNL     1      19.233  51.927  48.981  1.00  0.00     0.005 C 
ENDBRANCH  28  29
ENDBRANCH  27  28
ENDBRANCH   1  27
TORSDOF 4
ENDMDL
