MODEL 1
REMARK VINA RESULT:      -8.8      0.000      0.000
REMARK  10 active torsions:
REMARK  status: ('A' for Active; 'I' for Inactive)
REMARK    1  A    between atoms: O_2  and  C_3 
REMARK    2  A    between atoms: C_3  and  C_4 
REMARK    3  A    between atoms: C_11  and  N_12 
REMARK    4  A    between atoms: N_12  and  C_13 
REMARK    5  A    between atoms: C_13  and  N_14 
REMARK    6  A    between atoms: N_14  and  N_15 
REMARK       I    between atoms: N_15  and  C_16 
REMARK    7  A    between atoms: C_16  and  C_17 
REMARK    8  A    between atoms: C_17  and  S_18 
REMARK    9  A    between atoms: S_18  and  C_19 
REMARK   10  A    between atoms: C_19  and  C_20 
ROOT
HETATM    1  C   UNL     1      24.786  47.152  50.208  1.00  0.00     0.191 C 
HETATM    2  S   UNL     1      26.216  47.927  49.798  1.00  0.00    -0.039 SA
ENDROOT
BRANCH   1   3
HETATM    3  N   UNL     1      24.819  46.265  51.247  1.00  0.00    -0.332 N 
HETATM    4  H   UNL     1      23.937  46.228  51.750  1.00  0.00     0.168 HD
BRANCH   3   5
HETATM    5  C   UNL     1      25.888  45.560  51.843  1.00  0.00     0.035 A 
HETATM    6  C   UNL     1      26.298  46.004  53.109  1.00  0.00     0.049 A 
HETATM    7  C   UNL     1      27.414  45.408  53.737  1.00  0.00     0.020 A 
HETATM    8  S   UNL     1      28.081  45.828  55.260  1.00  0.00    -0.082 SA
HETATM    9  C   UNL     1      28.126  44.369  53.140  1.00  0.00     0.004 A 
HETATM   10  C   UNL     1      29.344  44.675  55.140  1.00  0.00     0.103 A 
HETATM   11  C   UNL     1      29.229  43.950  53.968  1.00  0.00     0.068 A 
HETATM   12 CL   UNL     1      30.279  42.680  53.470  1.00  0.00    -0.082 Cl
HETATM   13  C   UNL     1      27.688  43.930  51.866  1.00  0.00     0.017 A 
HETATM   14  C   UNL     1      26.595  44.535  51.228  1.00  0.00     0.030 A 
BRANCH  10  15
HETATM   15  C   UNL     1      30.361  44.551  56.173  1.00  0.00     0.301 C 
HETATM   16  O   UNL     1      31.031  43.550  56.398  1.00  0.00    -0.259 OA
BRANCH  15  17
HETATM   17  O   UNL     1      30.505  45.716  56.876  1.00  0.00    -0.322 OA
HETATM   18  C   UNL     1      30.414  45.563  58.293  1.00  0.00     0.213 C 
ENDBRANCH  15  17
ENDBRANCH  10  15
ENDBRANCH   3   5
ENDBRANCH   1   3
BRANCH   1  19
HETATM   19  N   UNL     1      23.590  47.351  49.578  1.00  0.00    -0.274 N 
HETATM   20  H   UNL     1      23.073  46.548  49.216  1.00  0.00     0.189 HD
BRANCH  19  21
HETATM   21  N   UNL     1      22.818  48.503  49.796  1.00  0.00    -0.267 N 
HETATM   22  C   UNL     1      22.925  49.511  48.853  1.00  0.00     0.245 C 
HETATM   23  O   UNL     1      23.424  49.333  47.742  1.00  0.00    -0.271 OA
HETATM   24  H   UNL     1      22.658  48.743  50.774  1.00  0.00     0.190 HD
BRANCH  22  25
HETATM   25  C   UNL     1      22.387  50.850  49.315  1.00  0.00     0.178 C 
BRANCH  25  26
HETATM   26  S   UNL     1      20.619  50.673  49.708  1.00  0.00    -0.155 SA
BRANCH  26  27
HETATM   27  C   UNL     1      19.955  51.931  48.575  1.00  0.00     0.114 C 
BRANCH  27  28
HETATM   28  C   UNL     1      18.446  51.970  48.622  1.00  0.00    -0.032 A 
HETATM   29  C   UNL     1      17.626  51.494  47.585  1.00  0.00     0.018 A 
HETATM   30 BR   UNL     1      18.334  50.759  45.981  1.00  0.00    -0.051 Br
HETATM   31  C   UNL     1      16.231  51.541  47.700  1.00  0.00     0.019 A 
HETATM   32  C   UNL     1      15.637  52.057  48.851  1.00  0.00     0.001 A 
HETATM   33  C   UNL     1      16.434  52.525  49.891  1.00  0.00     0.001 A 
HETATM   34  C   UNL     1      17.825  52.479  49.779  1.00  0.00     0.009 A 
ENDBRANCH  27  28
ENDBRANCH  26  27
ENDBRANCH  25  26
ENDBRANCH  22  25
ENDBRANCH  19  21
ENDBRANCH   1  19
TORSDOF 10
ENDMDL
MODEL 2
REMARK VINA RESULT:      -8.7      4.873     12.534
REMARK  10 active torsions:
REMARK  status: ('A' for Active; 'I' for Inactive)
REMARK    1  A    between atoms: O_2  and  C_3 
REMARK    2  A    between atoms: C_3  and  C_4 
REMARK    3  A    between atoms: C_11  and  N_12 
REMARK    4  A    between atoms: N_12  and  C_13 
REMARK    5  A    between atoms: C_13  and  N_14 
REMARK    6  A    between atoms: N_14  and  N_15 
REMARK       I    between atoms: N_15  and  C_16 
REMARK    7  A    between atoms: C_16  and  C_17 
REMARK    8  A    between atoms: C_17  and  S_18 
REMARK    9  A    between atoms: S_18  and  C_19 
REMARK   10  A    between atoms: C_19  and  C_20 
ROOT
HETATM    1  C   UNL     1      25.029  47.639  49.963  1.00  0.00     0.191 C 
HETATM    2  S   UNL     1      26.640  48.044  49.727  1.00  0.00    -0.039 SA
ENDROOT
BRANCH   1   3
HETATM    3  N   UNL     1      24.144  47.946  48.967  1.00  0.00    -0.332 N 
HETATM    4  H   UNL     1      24.431  47.572  48.068  1.00  0.00     0.168 HD
BRANCH   3   5
HETATM    5  C   UNL     1      23.042  48.829  48.933  1.00  0.00     0.035 A 
HETATM    6  C   UNL     1      21.771  48.245  49.040  1.00  0.00     0.049 A 
HETATM    7  C   UNL     1      20.615  49.048  48.930  1.00  0.00     0.020 A 
HETATM    8  S   UNL     1      18.985  48.519  49.005  1.00  0.00    -0.082 SA
HETATM    9  C   UNL     1      20.693  50.426  48.729  1.00  0.00     0.004 A 
HETATM   10  C   UNL     1      18.355  50.090  48.733  1.00  0.00     0.103 A 
HETATM   11  C   UNL     1      19.380  51.012  48.630  1.00  0.00     0.068 A 
HETATM   12 CL   UNL     1      19.182  52.704  48.377  1.00  0.00    -0.082 Cl
HETATM   13  C   UNL     1      21.987  50.996  48.634  1.00  0.00     0.017 A 
HETATM   14  C   UNL     1      23.137  50.198  48.719  1.00  0.00     0.030 A 
BRANCH  10  15
HETATM   15  C   UNL     1      16.923  50.327  48.631  1.00  0.00     0.301 C 
HETATM   16  O   UNL     1      16.155  49.737  47.881  1.00  0.00    -0.259 OA
BRANCH  15  17
HETATM   17  O   UNL     1      16.513  51.299  49.502  1.00  0.00    -0.322 OA
HETATM   18  C   UNL     1      15.474  52.139  48.999  1.00  0.00     0.213 C 
ENDBRANCH  15  17
ENDBRANCH  10  15
ENDBRANCH   3   5
ENDBRANCH   1   3
BRANCH   1  19
HETATM   19  N   UNL     1      24.542  47.019  51.078  1.00  0.00    -0.274 N 
HETATM   20  H   UNL     1      23.728  46.409  50.999  1.00  0.00     0.189 HD
BRANCH  19  21
HETATM   21  N   UNL     1      25.338  46.800  52.214  1.00  0.00    -0.267 N 
HETATM   22  C   UNL     1      25.118  45.625  52.910  1.00  0.00     0.245 C 
HETATM   23  O   UNL     1      24.484  44.680  52.439  1.00  0.00    -0.271 OA
HETATM   24  H   UNL     1      25.620  47.640  52.718  1.00  0.00     0.190 HD
BRANCH  22  25
HETATM   25  C   UNL     1      25.713  45.610  54.304  1.00  0.00     0.178 C 
BRANCH  25  26
HETATM   26  S   UNL     1      27.067  44.395  54.356  1.00  0.00    -0.155 SA
BRANCH  26  27
HETATM   27  C   UNL     1      28.458  45.539  54.605  1.00  0.00     0.114 C 
BRANCH  27  28
HETATM   28  C   UNL     1      29.468  44.973  55.574  1.00  0.00    -0.032 A 
HETATM   29  C   UNL     1      30.268  43.853  55.294  1.00  0.00     0.018 A 
HETATM   30 BR   UNL     1      30.150  42.901  53.652  1.00  0.00    -0.051 Br
HETATM   31  C   UNL     1      31.201  43.391  56.230  1.00  0.00     0.019 A 
HETATM   32  C   UNL     1      31.352  44.042  57.453  1.00  0.00     0.001 A 
HETATM   33  C   UNL     1      30.575  45.159  57.744  1.00  0.00     0.001 A 
HETATM   34  C   UNL     1      29.644  45.622  56.813  1.00  0.00     0.009 A 
ENDBRANCH  27  28
ENDBRANCH  26  27
ENDBRANCH  25  26
ENDBRANCH  22  25
ENDBRANCH  19  21
ENDBRANCH   1  19
TORSDOF 10
ENDMDL
MODEL 3
REMARK VINA RESULT:      -8.5      5.128     12.797
REMARK  10 active torsions:
REMARK  status: ('A' for Active; 'I' for Inactive)
REMARK    1  A    between atoms: O_2  and  C_3 
REMARK    2  A    between atoms: C_3  and  C_4 
REMARK    3  A    between atoms: C_11  and  N_12 
REMARK    4  A    between atoms: N_12  and  C_13 
REMARK    5  A    between atoms: C_13  and  N_14 
REMARK    6  A    between atoms: N_14  and  N_15 
REMARK       I    between atoms: N_15  and  C_16 
REMARK    7  A    between atoms: C_16  and  C_17 
REMARK    8  A    between atoms: C_17  and  S_18 
REMARK    9  A    between atoms: S_18  and  C_19 
REMARK   10  A    between atoms: C_19  and  C_20 
ROOT
HETATM    1  C   UNL     1      23.457  48.984  49.112  1.00  0.00     0.191 C 
HETATM    2  S   UNL     1      24.267  50.105  48.163  1.00  0.00    -0.039 SA
ENDROOT
BRANCH   1   3
HETATM    3  N   UNL     1      22.353  49.410  49.796  1.00  0.00    -0.332 N 
HETATM    4  H   UNL     1      22.534  49.521  50.789  1.00  0.00     0.168 HD
BRANCH   3   5
HETATM    5  C   UNL     1      20.999  49.527  49.408  1.00  0.00     0.035 A 
HETATM    6  C   UNL     1      20.397  50.776  49.618  1.00  0.00     0.049 A 
HETATM    7  C   UNL     1      19.024  50.952  49.336  1.00  0.00     0.020 A 
HETATM    8  S   UNL     1      18.107  52.386  49.550  1.00  0.00    -0.082 SA
HETATM    9  C   UNL     1      18.237  49.915  48.837  1.00  0.00     0.004 A 
HETATM   10  C   UNL     1      16.648  51.652  49.028  1.00  0.00     0.103 A 
HETATM   11  C   UNL     1      16.871  50.340  48.654  1.00  0.00     0.068 A 
HETATM   12 CL   UNL     1      15.679  49.254  48.051  1.00  0.00    -0.082 Cl
HETATM   13  C   UNL     1      18.868  48.665  48.625  1.00  0.00     0.017 A 
HETATM   14  C   UNL     1      20.225  48.479  48.926  1.00  0.00     0.030 A 
BRANCH  10  15
HETATM   15  C   UNL     1      15.390  52.384  49.020  1.00  0.00     0.301 C 
HETATM   16  O   UNL     1      14.948  53.033  48.080  1.00  0.00    -0.259 OA
BRANCH  15  17
HETATM   17  O   UNL     1      14.726  52.249  50.209  1.00  0.00    -0.322 OA
HETATM   18  C   UNL     1      13.936  53.382  50.573  1.00  0.00     0.213 C 
ENDBRANCH  15  17
ENDBRANCH  10  15
ENDBRANCH   3   5
ENDBRANCH   1   3
BRANCH   1  19
HETATM   19  N   UNL     1      23.823  47.675  49.246  1.00  0.00    -0.274 N 
HETATM   20  H   UNL     1      24.378  47.231  48.513  1.00  0.00     0.189 HD
BRANCH  19  21
HETATM   21  N   UNL     1      23.884  47.045  50.500  1.00  0.00    -0.267 N 
HETATM   22  C   UNL     1      25.141  46.679  50.950  1.00  0.00     0.245 C 
HETATM   23  O   UNL     1      26.180  47.115  50.455  1.00  0.00    -0.271 OA
HETATM   24  H   UNL     1      23.076  46.474  50.741  1.00  0.00     0.190 HD
BRANCH  22  25
HETATM   25  C   UNL     1      25.122  45.687  52.097  1.00  0.00     0.178 C 
BRANCH  25  26
HETATM   26  S   UNL     1      26.705  44.790  52.128  1.00  0.00    -0.155 SA
BRANCH  26  27
HETATM   27  C   UNL     1      26.625  44.144  53.825  1.00  0.00     0.114 C 
BRANCH  27  28
HETATM   28  C   UNL     1      27.993  44.103  54.462  1.00  0.00    -0.032 A 
HETATM   29  C   UNL     1      28.880  43.022  54.325  1.00  0.00     0.018 A 
HETATM   30 BR   UNL     1      28.442  41.464  53.328  1.00  0.00    -0.051 Br
HETATM   31  C   UNL     1      30.145  43.057  54.925  1.00  0.00     0.019 A 
HETATM   32  C   UNL     1      30.543  44.170  55.664  1.00  0.00     0.001 A 
HETATM   33  C   UNL     1      29.681  45.253  55.803  1.00  0.00     0.001 A 
HETATM   34  C   UNL     1      28.420  45.221  55.206  1.00  0.00     0.009 A 
ENDBRANCH  27  28
ENDBRANCH  26  27
ENDBRANCH  25  26
ENDBRANCH  22  25
ENDBRANCH  19  21
ENDBRANCH   1  19
TORSDOF 10
ENDMDL
MODEL 4
REMARK VINA RESULT:      -8.5      2.001      2.342
REMARK  10 active torsions:
REMARK  status: ('A' for Active; 'I' for Inactive)
REMARK    1  A    between atoms: O_2  and  C_3 
REMARK    2  A    between atoms: C_3  and  C_4 
REMARK    3  A    between atoms: C_11  and  N_12 
REMARK    4  A    between atoms: N_12  and  C_13 
REMARK    5  A    between atoms: C_13  and  N_14 
REMARK    6  A    between atoms: N_14  and  N_15 
REMARK       I    between atoms: N_15  and  C_16 
REMARK    7  A    between atoms: C_16  and  C_17 
REMARK    8  A    between atoms: C_17  and  S_18 
REMARK    9  A    between atoms: S_18  and  C_19 
REMARK   10  A    between atoms: C_19  and  C_20 
ROOT
HETATM    1  C   UNL     1      23.474  44.681  49.520  1.00  0.00     0.191 C 
HETATM    2  S   UNL     1      23.799  43.915  48.064  1.00  0.00    -0.039 SA
ENDROOT
BRANCH   1   3
HETATM    3  N   UNL     1      23.831  44.037  50.671  1.00  0.00    -0.332 N 
HETATM    4  H   UNL     1      23.026  43.796  51.242  1.00  0.00     0.168 HD
BRANCH   3   5
HETATM    5  C   UNL     1      25.090  43.830  51.278  1.00  0.00     0.035 A 
HETATM    6  C   UNL     1      25.313  44.493  52.494  1.00  0.00     0.049 A 
HETATM    7  C   UNL     1      26.574  44.407  53.122  1.00  0.00     0.020 A 
HETATM    8  S   UNL     1      27.046  45.164  54.588  1.00  0.00    -0.082 SA
HETATM    9  C   UNL     1      27.619  43.664  52.575  1.00  0.00     0.004 A 
HETATM   10  C   UNL     1      28.647  44.558  54.504  1.00  0.00     0.103 A 
HETATM   11  C   UNL     1      28.804  43.753  53.392  1.00  0.00     0.068 A 
HETATM   12 CL   UNL     1      30.250  42.930  52.947  1.00  0.00    -0.082 Cl
HETATM   13  C   UNL     1      27.369  42.995  51.352  1.00  0.00     0.017 A 
HETATM   14  C   UNL     1      26.125  43.097  50.712  1.00  0.00     0.030 A 
BRANCH  10  15
HETATM   15  C   UNL     1      29.644  44.904  55.507  1.00  0.00     0.301 C 
HETATM   16  O   UNL     1      30.682  44.290  55.723  1.00  0.00    -0.259 OA
BRANCH  15  17
HETATM   17  O   UNL     1      29.292  46.035  56.192  1.00  0.00    -0.322 OA
HETATM   18  C   UNL     1      29.606  46.000  57.585  1.00  0.00     0.213 C 
ENDBRANCH  15  17
ENDBRANCH  10  15
ENDBRANCH   3   5
ENDBRANCH   1   3
BRANCH   1  19
HETATM   19  N   UNL     1      22.883  45.907  49.634  1.00  0.00    -0.274 N 
HETATM   20  H   UNL     1      22.453  46.177  50.519  1.00  0.00     0.189 HD
BRANCH  19  21
HETATM   21  N   UNL     1      23.221  46.977  48.789  1.00  0.00    -0.267 N 
HETATM   22  C   UNL     1      23.863  48.053  49.376  1.00  0.00     0.245 C 
HETATM   23  O   UNL     1      24.377  47.995  50.493  1.00  0.00    -0.271 OA
HETATM   24  H   UNL     1      22.587  47.133  48.007  1.00  0.00     0.190 HD
BRANCH  22  25
HETATM   25  C   UNL     1      23.864  49.310  48.528  1.00  0.00     0.178 C 
BRANCH  25  26
HETATM   26  S   UNL     1      22.172  49.626  47.938  1.00  0.00    -0.155 SA
BRANCH  26  27
HETATM   27  C   UNL     1      21.392  50.024  49.531  1.00  0.00     0.114 C 
BRANCH  27  28
HETATM   28  C   UNL     1      20.081  50.748  49.335  1.00  0.00    -0.032 A 
HETATM   29  C   UNL     1      18.873  50.335  49.921  1.00  0.00     0.018 A 
HETATM   30 BR   UNL     1      18.749  48.789  51.021  1.00  0.00    -0.051 Br
HETATM   31  C   UNL     1      17.695  51.064  49.716  1.00  0.00     0.019 A 
HETATM   32  C   UNL     1      17.708  52.215  48.930  1.00  0.00     0.001 A 
HETATM   33  C   UNL     1      18.897  52.644  48.349  1.00  0.00     0.001 A 
HETATM   34  C   UNL     1      20.073  51.919  48.552  1.00  0.00     0.009 A 
ENDBRANCH  27  28
ENDBRANCH  26  27
ENDBRANCH  25  26
ENDBRANCH  22  25
ENDBRANCH  19  21
ENDBRANCH   1  19
TORSDOF 10
ENDMDL
MODEL 5
REMARK VINA RESULT:      -8.5      4.793     12.108
REMARK  10 active torsions:
REMARK  status: ('A' for Active; 'I' for Inactive)
REMARK    1  A    between atoms: O_2  and  C_3 
REMARK    2  A    between atoms: C_3  and  C_4 
REMARK    3  A    between atoms: C_11  and  N_12 
REMARK    4  A    between atoms: N_12  and  C_13 
REMARK    5  A    between atoms: C_13  and  N_14 
REMARK    6  A    between atoms: N_14  and  N_15 
REMARK       I    between atoms: N_15  and  C_16 
REMARK    7  A    between atoms: C_16  and  C_17 
REMARK    8  A    between atoms: C_17  and  S_18 
REMARK    9  A    between atoms: S_18  and  C_19 
REMARK   10  A    between atoms: C_19  and  C_20 
ROOT
HETATM    1  C   UNL     1      25.061  46.850  50.070  1.00  0.00     0.191 C 
HETATM    2  S   UNL     1      25.709  47.157  51.586  1.00  0.00    -0.039 SA
ENDROOT
BRANCH   1   3
HETATM    3  N   UNL     1      24.787  47.921  49.267  1.00  0.00    -0.332 N 
HETATM    4  H   UNL     1      25.614  48.266  48.790  1.00  0.00     0.168 HD
BRANCH   3   5
HETATM    5  C   UNL     1      23.633  48.726  49.141  1.00  0.00     0.035 A 
HETATM    6  C   UNL     1      22.422  48.051  48.927  1.00  0.00     0.049 A 
HETATM    7  C   UNL     1      21.236  48.785  48.706  1.00  0.00     0.020 A 
HETATM    8  S   UNL     1      19.674  48.146  48.401  1.00  0.00    -0.082 SA
HETATM    9  C   UNL     1      21.223  50.179  48.706  1.00  0.00     0.004 A 
HETATM   10  C   UNL     1      18.962  49.696  48.224  1.00  0.00     0.103 A 
HETATM   11  C   UNL     1      19.901  50.687  48.438  1.00  0.00     0.068 A 
HETATM   12 CL   UNL     1      19.599  52.381  48.376  1.00  0.00    -0.082 Cl
HETATM   13  C   UNL     1      22.456  50.840  48.933  1.00  0.00     0.017 A 
HETATM   14  C   UNL     1      23.640  50.115  49.129  1.00  0.00     0.030 A 
BRANCH  10  15
HETATM   15  C   UNL     1      17.556  49.851  47.883  1.00  0.00     0.301 C 
HETATM   16  O   UNL     1      16.623  49.819  48.676  1.00  0.00    -0.259 OA
BRANCH  15  17
HETATM   17  O   UNL     1      17.386  50.063  46.542  1.00  0.00    -0.322 OA
HETATM   18  C   UNL     1      16.841  51.341  46.212  1.00  0.00     0.213 C 
ENDBRANCH  15  17
ENDBRANCH  10  15
ENDBRANCH   3   5
ENDBRANCH   1   3
BRANCH   1  19
HETATM   19  N   UNL     1      24.794  45.602  49.581  1.00  0.00    -0.274 N 
HETATM   20  H   UNL     1      24.203  45.503  48.755  1.00  0.00     0.189 HD
BRANCH  19  21
HETATM   21  N   UNL     1      25.628  44.505  49.849  1.00  0.00    -0.267 N 
HETATM   22  C   UNL     1      25.255  43.683  50.898  1.00  0.00     0.245 C 
HETATM   23  O   UNL     1      24.131  43.709  51.398  1.00  0.00    -0.271 OA
HETATM   24  H   UNL     1      26.617  44.648  49.648  1.00  0.00     0.190 HD
BRANCH  22  25
HETATM   25  C   UNL     1      26.356  42.760  51.383  1.00  0.00     0.178 C 
BRANCH  25  26
HETATM   26  S   UNL     1      27.814  43.759  51.817  1.00  0.00    -0.155 SA
BRANCH  26  27
HETATM   27  C   UNL     1      27.358  44.190  53.523  1.00  0.00     0.114 C 
BRANCH  27  28
HETATM   28  C   UNL     1      28.579  44.327  54.400  1.00  0.00    -0.032 A 
HETATM   29  C   UNL     1      28.878  45.485  55.138  1.00  0.00     0.018 A 
HETATM   30 BR   UNL     1      27.775  47.033  55.096  1.00  0.00    -0.051 Br
HETATM   31  C   UNL     1      30.017  45.539  55.950  1.00  0.00     0.019 A 
HETATM   32  C   UNL     1      30.870  44.440  56.041  1.00  0.00     0.001 A 
HETATM   33  C   UNL     1      30.585  43.282  55.324  1.00  0.00     0.001 A 
HETATM   34  C   UNL     1      29.450  43.225  54.514  1.00  0.00     0.009 A 
ENDBRANCH  27  28
ENDBRANCH  26  27
ENDBRANCH  25  26
ENDBRANCH  22  25
ENDBRANCH  19  21
ENDBRANCH   1  19
TORSDOF 10
ENDMDL
MODEL 6
REMARK VINA RESULT:      -8.3      2.905      4.066
REMARK  10 active torsions:
REMARK  status: ('A' for Active; 'I' for Inactive)
REMARK    1  A    between atoms: O_2  and  C_3 
REMARK    2  A    between atoms: C_3  and  C_4 
REMARK    3  A    between atoms: C_11  and  N_12 
REMARK    4  A    between atoms: N_12  and  C_13 
REMARK    5  A    between atoms: C_13  and  N_14 
REMARK    6  A    between atoms: N_14  and  N_15 
REMARK       I    between atoms: N_15  and  C_16 
REMARK    7  A    between atoms: C_16  and  C_17 
REMARK    8  A    between atoms: C_17  and  S_18 
REMARK    9  A    between atoms: S_18  and  C_19 
REMARK   10  A    between atoms: C_19  and  C_20 
ROOT
HETATM    1  C   UNL     1      22.511  45.042  48.880  1.00  0.00     0.191 C 
HETATM    2  S   UNL     1      22.911  44.615  47.309  1.00  0.00    -0.039 SA
ENDROOT
BRANCH   1   3
HETATM    3  N   UNL     1      23.449  45.709  49.617  1.00  0.00    -0.332 N 
HETATM    4  H   UNL     1      23.680  46.614  49.218  1.00  0.00     0.168 HD
BRANCH   3   5
HETATM    5  C   UNL     1      24.270  45.291  50.688  1.00  0.00     0.035 A 
HETATM    6  C   UNL     1      24.801  46.304  51.500  1.00  0.00     0.049 A 
HETATM    7  C   UNL     1      25.698  45.976  52.540  1.00  0.00     0.020 A 
HETATM    8  S   UNL     1      26.469  47.068  53.614  1.00  0.00    -0.082 SA
HETATM    9  C   UNL     1      26.071  44.658  52.801  1.00  0.00     0.004 A 
HETATM   10  C   UNL     1      27.339  45.827  54.415  1.00  0.00     0.103 A 
HETATM   11  C   UNL     1      27.009  44.590  53.894  1.00  0.00     0.068 A 
HETATM   12 CL   UNL     1      27.639  43.079  54.427  1.00  0.00    -0.082 Cl
HETATM   13  C   UNL     1      25.515  43.650  51.975  1.00  0.00     0.017 A 
HETATM   14  C   UNL     1      24.642  43.974  50.926  1.00  0.00     0.030 A 
BRANCH  10  15
HETATM   15  C   UNL     1      28.282  46.126  55.481  1.00  0.00     0.301 C 
HETATM   16  O   UNL     1      28.021  46.724  56.519  1.00  0.00    -0.259 OA
BRANCH  15  17
HETATM   17  O   UNL     1      29.529  45.638  55.199  1.00  0.00    -0.322 OA
HETATM   18  C   UNL     1      30.268  45.214  56.345  1.00  0.00     0.213 C 
ENDBRANCH  15  17
ENDBRANCH  10  15
ENDBRANCH   3   5
ENDBRANCH   1   3
BRANCH   1  19
HETATM   19  N   UNL     1      21.309  44.775  49.473  1.00  0.00    -0.274 N 
HETATM   20  H   UNL     1      21.277  44.169  50.294  1.00  0.00     0.189 HD
BRANCH  19  21
HETATM   21  N   UNL     1      20.200  45.621  49.318  1.00  0.00    -0.267 N 
HETATM   22  C   UNL     1      19.288  45.277  48.334  1.00  0.00     0.245 C 
HETATM   23  O   UNL     1      19.263  44.164  47.810  1.00  0.00    -0.271 OA
HETATM   24  H   UNL     1      20.367  46.604  49.527  1.00  0.00     0.190 HD
BRANCH  22  25
HETATM   25  C   UNL     1      18.337  46.394  47.954  1.00  0.00     0.178 C 
BRANCH  25  26
HETATM   26  S   UNL     1      18.655  47.831  49.025  1.00  0.00    -0.155 SA
BRANCH  26  27
HETATM   27  C   UNL     1      19.154  49.024  47.748  1.00  0.00     0.114 C 
BRANCH  27  28
HETATM   28  C   UNL     1      20.552  49.540  47.993  1.00  0.00    -0.032 A 
HETATM   29  C   UNL     1      20.839  50.877  48.317  1.00  0.00     0.018 A 
HETATM   30 BR   UNL     1      19.486  52.205  48.461  1.00  0.00    -0.051 Br
HETATM   31  C   UNL     1      22.157  51.286  48.553  1.00  0.00     0.019 A 
HETATM   32  C   UNL     1      23.203  50.368  48.475  1.00  0.00     0.001 A 
HETATM   33  C   UNL     1      22.936  49.038  48.165  1.00  0.00     0.001 A 
HETATM   34  C   UNL     1      21.623  48.628  47.930  1.00  0.00     0.009 A 
ENDBRANCH  27  28
ENDBRANCH  26  27
ENDBRANCH  25  26
ENDBRANCH  22  25
ENDBRANCH  19  21
ENDBRANCH   1  19
TORSDOF 10
ENDMDL
MODEL 7
REMARK VINA RESULT:      -8.1      2.266      2.725
REMARK  10 active torsions:
REMARK  status: ('A' for Active; 'I' for Inactive)
REMARK    1  A    between atoms: O_2  and  C_3 
REMARK    2  A    between atoms: C_3  and  C_4 
REMARK    3  A    between atoms: C_11  and  N_12 
REMARK    4  A    between atoms: N_12  and  C_13 
REMARK    5  A    between atoms: C_13  and  N_14 
REMARK    6  A    between atoms: N_14  and  N_15 
REMARK       I    between atoms: N_15  and  C_16 
REMARK    7  A    between atoms: C_16  and  C_17 
REMARK    8  A    between atoms: C_17  and  S_18 
REMARK    9  A    between atoms: S_18  and  C_19 
REMARK   10  A    between atoms: C_19  and  C_20 
ROOT
HETATM    1  C   UNL     1      24.426  46.543  50.268  1.00  0.00     0.191 C 
HETATM    2  S   UNL     1      25.285  47.839  49.640  1.00  0.00    -0.039 SA
ENDROOT
BRANCH   1   3
HETATM    3  N   UNL     1      24.588  46.256  51.595  1.00  0.00    -0.332 N 
HETATM    4  H   UNL     1      23.887  46.706  52.175  1.00  0.00     0.168 HD
BRANCH   3   5
HETATM    5  C   UNL     1      25.641  45.624  52.294  1.00  0.00     0.035 A 
HETATM    6  C   UNL     1      26.173  46.325  53.386  1.00  0.00     0.049 A 
HETATM    7  C   UNL     1      27.283  45.802  54.086  1.00  0.00     0.020 A 
HETATM    8  S   UNL     1      28.086  46.520  55.421  1.00  0.00    -0.082 SA
HETATM    9  C   UNL     1      27.869  44.588  53.733  1.00  0.00     0.004 A 
HETATM   10  C   UNL     1      29.246  45.262  55.529  1.00  0.00     0.103 A 
HETATM   11  C   UNL     1      28.993  44.286  54.583  1.00  0.00     0.068 A 
HETATM   12 CL   UNL     1      29.906  42.842  54.366  1.00  0.00    -0.082 Cl
HETATM   13  C   UNL     1      27.309  43.892  52.633  1.00  0.00     0.017 A 
HETATM   14  C   UNL     1      26.223  44.419  51.920  1.00  0.00     0.030 A 
BRANCH  10  15
HETATM   15  C   UNL     1      30.322  45.303  56.508  1.00  0.00     0.301 C 
HETATM   16  O   UNL     1      30.346  46.003  57.513  1.00  0.00    -0.259 OA
BRANCH  15  17
HETATM   17  O   UNL     1      31.328  44.433  56.183  1.00  0.00    -0.322 OA
HETATM   18  C   UNL     1      31.739  43.584  57.255  1.00  0.00     0.213 C 
ENDBRANCH  15  17
ENDBRANCH  10  15
ENDBRANCH   3   5
ENDBRANCH   1   3
BRANCH   1  19
HETATM   19  N   UNL     1      23.571  45.759  49.547  1.00  0.00    -0.274 N 
HETATM   20  H   UNL     1      23.531  44.756  49.733  1.00  0.00     0.189 HD
BRANCH  19  21
HETATM   21  N   UNL     1      22.440  46.289  48.906  1.00  0.00    -0.267 N 
HETATM   22  C   UNL     1      21.477  45.383  48.495  1.00  0.00     0.245 C 
HETATM   23  O   UNL     1      21.439  44.221  48.900  1.00  0.00    -0.271 OA
HETATM   24  H   UNL     1      22.602  47.133  48.359  1.00  0.00     0.190 HD
BRANCH  22  25
HETATM   25  C   UNL     1      20.485  45.944  47.495  1.00  0.00     0.178 C 
BRANCH  25  26
HETATM   26  S   UNL     1      20.699  47.749  47.401  1.00  0.00    -0.155 SA
BRANCH  26  27
HETATM   27  C   UNL     1      18.983  48.250  47.733  1.00  0.00     0.114 C 
BRANCH  27  28
HETATM   28  C   UNL     1      18.913  49.673  48.232  1.00  0.00    -0.032 A 
HETATM   29  C   UNL     1      18.765  50.013  49.587  1.00  0.00     0.018 A 
HETATM   30 BR   UNL     1      18.614  48.702  50.956  1.00  0.00    -0.051 Br
HETATM   31  C   UNL     1      18.728  51.354  49.987  1.00  0.00     0.019 A 
HETATM   32  C   UNL     1      18.843  52.373  49.042  1.00  0.00     0.001 A 
HETATM   33  C   UNL     1      18.999  52.055  47.696  1.00  0.00     0.001 A 
HETATM   34  C   UNL     1      19.037  50.719  47.296  1.00  0.00     0.009 A 
ENDBRANCH  27  28
ENDBRANCH  26  27
ENDBRANCH  25  26
ENDBRANCH  22  25
ENDBRANCH  19  21
ENDBRANCH   1  19
TORSDOF 10
ENDMDL
MODEL 8
REMARK VINA RESULT:      -8.0      2.880      3.421
REMARK  10 active torsions:
REMARK  status: ('A' for Active; 'I' for Inactive)
REMARK    1  A    between atoms: O_2  and  C_3 
REMARK    2  A    between atoms: C_3  and  C_4 
REMARK    3  A    between atoms: C_11  and  N_12 
REMARK    4  A    between atoms: N_12  and  C_13 
REMARK    5  A    between atoms: C_13  and  N_14 
REMARK    6  A    between atoms: N_14  and  N_15 
REMARK       I    between atoms: N_15  and  C_16 
REMARK    7  A    between atoms: C_16  and  C_17 
REMARK    8  A    between atoms: C_17  and  S_18 
REMARK    9  A    between atoms: S_18  and  C_19 
REMARK   10  A    between atoms: C_19  and  C_20 
ROOT
HETATM    1  C   UNL     1      23.999  43.986  50.216  1.00  0.00     0.191 C 
HETATM    2  S   UNL     1      24.252  42.329  50.168  1.00  0.00    -0.039 SA
ENDROOT
BRANCH   1   3
HETATM    3  N   UNL     1      25.092  44.792  50.368  1.00  0.00    -0.332 N 
HETATM    4  H   UNL     1      25.695  44.782  49.551  1.00  0.00     0.168 HD
BRANCH   3   5
HETATM    5  C   UNL     1      25.614  45.460  51.498  1.00  0.00     0.035 A 
HETATM    6  C   UNL     1      26.566  44.758  52.253  1.00  0.00     0.049 A 
HETATM    7  C   UNL     1      27.074  45.320  53.445  1.00  0.00     0.020 A 
HETATM    8  S   UNL     1      28.214  44.610  54.511  1.00  0.00    -0.082 SA
HETATM    9  C   UNL     1      26.666  46.574  53.898  1.00  0.00     0.004 A 
HETATM   10  C   UNL     1      28.159  45.925  55.609  1.00  0.00     0.103 A 
HETATM   11  C   UNL     1      27.312  46.912  55.142  1.00  0.00     0.068 A 
HETATM   12 CL   UNL     1      26.987  48.408  55.930  1.00  0.00    -0.082 Cl
HETATM   13  C   UNL     1      25.712  47.269  53.116  1.00  0.00     0.017 A 
HETATM   14  C   UNL     1      25.187  46.704  51.944  1.00  0.00     0.030 A 
BRANCH  10  15
HETATM   15  C   UNL     1      28.926  45.915  56.846  1.00  0.00     0.301 C 
HETATM   16  O   UNL     1      28.563  46.392  57.915  1.00  0.00    -0.259 OA
BRANCH  15  17
HETATM   17  O   UNL     1      30.128  45.280  56.684  1.00  0.00    -0.322 OA
HETATM   18  C   UNL     1      30.799  44.973  57.907  1.00  0.00     0.213 C 
ENDBRANCH  15  17
ENDBRANCH  10  15
ENDBRANCH   3   5
ENDBRANCH   1   3
BRANCH   1  19
HETATM   19  N   UNL     1      22.776  44.585  50.108  1.00  0.00    -0.274 N 
HETATM   20  H   UNL     1      22.112  44.513  50.880  1.00  0.00     0.189 HD
BRANCH  19  21
HETATM   21  N   UNL     1      22.548  45.655  49.228  1.00  0.00    -0.267 N 
HETATM   22  C   UNL     1      21.510  45.506  48.325  1.00  0.00     0.245 C 
HETATM   23  O   UNL     1      20.642  44.641  48.444  1.00  0.00    -0.271 OA
HETATM   24  H   UNL     1      23.377  46.185  48.960  1.00  0.00     0.190 HD
BRANCH  22  25
HETATM   25  C   UNL     1      21.544  46.493  47.174  1.00  0.00     0.178 C 
BRANCH  25  26
HETATM   26  S   UNL     1      21.616  48.182  47.846  1.00  0.00    -0.155 SA
BRANCH  26  27
HETATM   27  C   UNL     1      19.999  48.779  47.270  1.00  0.00     0.114 C 
BRANCH  27  28
HETATM   28  C   UNL     1      19.496  49.916  48.127  1.00  0.00    -0.032 A 
HETATM   29  C   UNL     1      18.740  49.729  49.297  1.00  0.00     0.018 A 
HETATM   30 BR   UNL     1      18.243  48.005  49.925  1.00  0.00    -0.051 Br
HETATM   31  C   UNL     1      18.322  50.827  50.059  1.00  0.00     0.019 A 
HETATM   32  C   UNL     1      18.656  52.122  49.668  1.00  0.00     0.001 A 
HETATM   33  C   UNL     1      19.411  52.326  48.517  1.00  0.00     0.001 A 
HETATM   34  C   UNL     1      19.829  51.233  47.756  1.00  0.00     0.009 A 
ENDBRANCH  27  28
ENDBRANCH  26  27
ENDBRANCH  25  26
ENDBRANCH  22  25
ENDBRANCH  19  21
ENDBRANCH   1  19
TORSDOF 10
ENDMDL
MODEL 9
REMARK VINA RESULT:      -7.9      4.673     11.662
REMARK  10 active torsions:
REMARK  status: ('A' for Active; 'I' for Inactive)
REMARK    1  A    between atoms: O_2  and  C_3 
REMARK    2  A    between atoms: C_3  and  C_4 
REMARK    3  A    between atoms: C_11  and  N_12 
REMARK    4  A    between atoms: N_12  and  C_13 
REMARK    5  A    between atoms: C_13  and  N_14 
REMARK    6  A    between atoms: N_14  and  N_15 
REMARK       I    between atoms: N_15  and  C_16 
REMARK    7  A    between atoms: C_16  and  C_17 
REMARK    8  A    between atoms: C_17  and  S_18 
REMARK    9  A    between atoms: S_18  and  C_19 
REMARK   10  A    between atoms: C_19  and  C_20 
ROOT
HETATM    1  C   UNL     1      25.011  43.658  49.357  1.00  0.00     0.191 C 
HETATM    2  S   UNL     1      24.574  43.708  50.975  1.00  0.00    -0.039 SA
ENDROOT
BRANCH   1   3
HETATM    3  N   UNL     1      24.674  44.727  48.574  1.00  0.00    -0.332 N 
HETATM    4  H   UNL     1      25.133  44.700  47.668  1.00  0.00     0.168 HD
BRANCH   3   5
HETATM    5  C   UNL     1      23.979  45.921  48.867  1.00  0.00     0.035 A 
HETATM    6  C   UNL     1      22.669  46.017  48.377  1.00  0.00     0.049 A 
HETATM    7  C   UNL     1      21.935  47.211  48.554  1.00  0.00     0.020 A 
HETATM    8  S   UNL     1      20.341  47.528  48.007  1.00  0.00    -0.082 SA
HETATM    9  C   UNL     1      22.472  48.311  49.221  1.00  0.00     0.004 A 
HETATM   10  C   UNL     1      20.347  49.135  48.604  1.00  0.00     0.103 A 
HETATM   11  C   UNL     1      21.537  49.408  49.251  1.00  0.00     0.068 A 
HETATM   12 CL   UNL     1      21.944  50.898  50.013  1.00  0.00    -0.082 Cl
HETATM   13  C   UNL     1      23.794  48.189  49.717  1.00  0.00     0.017 A 
HETATM   14  C   UNL     1      24.534  47.013  49.522  1.00  0.00     0.030 A 
BRANCH  10  15
HETATM   15  C   UNL     1      19.212  50.024  48.403  1.00  0.00     0.301 C 
HETATM   16  O   UNL     1      18.069  49.821  48.793  1.00  0.00    -0.259 OA
BRANCH  15  17
HETATM   17  O   UNL     1      19.577  51.156  47.725  1.00  0.00    -0.322 OA
HETATM   18  C   UNL     1      19.163  52.373  48.347  1.00  0.00     0.213 C 
ENDBRANCH  15  17
ENDBRANCH  10  15
ENDBRANCH   3   5
ENDBRANCH   1   3
BRANCH   1  19
HETATM   19  N   UNL     1      25.685  42.625  48.768  1.00  0.00    -0.274 N 
HETATM   20  H   UNL     1      25.474  42.374  47.802  1.00  0.00     0.189 HD
BRANCH  19  21
HETATM   21  N   UNL     1      26.938  42.195  49.233  1.00  0.00    -0.267 N 
HETATM   22  C   UNL     1      26.943  41.108  50.089  1.00  0.00     0.245 C 
HETATM   23  O   UNL     1      25.973  40.363  50.227  1.00  0.00    -0.271 OA
HETATM   24  H   UNL     1      27.637  42.928  49.345  1.00  0.00     0.190 HD
BRANCH  22  25
HETATM   25  C   UNL     1      28.243  40.924  50.848  1.00  0.00     0.178 C 
BRANCH  25  26
HETATM   26  S   UNL     1      27.965  41.325  52.600  1.00  0.00    -0.155 SA
BRANCH  26  27
HETATM   27  C   UNL     1      28.133  43.132  52.502  1.00  0.00     0.114 C 
BRANCH  27  28
HETATM   28  C   UNL     1      28.870  43.682  53.700  1.00  0.00    -0.032 A 
HETATM   29  C   UNL     1      28.451  44.818  54.413  1.00  0.00     0.018 A 
HETATM   30 BR   UNL     1      26.905  45.813  53.930  1.00  0.00    -0.051 Br
HETATM   31  C   UNL     1      29.169  45.264  55.530  1.00  0.00     0.019 A 
HETATM   32  C   UNL     1      30.309  44.581  55.952  1.00  0.00     0.001 A 
HETATM   33  C   UNL     1      30.733  43.449  55.263  1.00  0.00     0.001 A 
HETATM   34  C   UNL     1      30.018  43.002  54.150  1.00  0.00     0.009 A 
ENDBRANCH  27  28
ENDBRANCH  26  27
ENDBRANCH  25  26
ENDBRANCH  22  25
ENDBRANCH  19  21
ENDBRANCH   1  19
TORSDOF 10
ENDMDL
MODEL 10
REMARK VINA RESULT:      -7.8      5.299     13.085
REMARK  10 active torsions:
REMARK  status: ('A' for Active; 'I' for Inactive)
REMARK    1  A    between atoms: O_2  and  C_3 
REMARK    2  A    between atoms: C_3  and  C_4 
REMARK    3  A    between atoms: C_11  and  N_12 
REMARK    4  A    between atoms: N_12  and  C_13 
REMARK    5  A    between atoms: C_13  and  N_14 
REMARK    6  A    between atoms: N_14  and  N_15 
REMARK       I    between atoms: N_15  and  C_16 
REMARK    7  A    between atoms: C_16  and  C_17 
REMARK    8  A    between atoms: C_17  and  S_18 
REMARK    9  A    between atoms: S_18  and  C_19 
REMARK   10  A    between atoms: C_19  and  C_20 
ROOT
HETATM    1  C   UNL     1      23.319  49.225  49.161  1.00  0.00     0.191 C 
HETATM    2  S   UNL     1      24.251  50.085  48.063  1.00  0.00    -0.039 SA
ENDROOT
BRANCH   1   3
HETATM    3  N   UNL     1      22.369  49.912  49.863  1.00  0.00    -0.332 N 
HETATM    4  H   UNL     1      22.594  49.979  50.851  1.00  0.00     0.168 HD
BRANCH   3   5
HETATM    5  C   UNL     1      21.078  50.358  49.502  1.00  0.00     0.035 A 
HETATM    6  C   UNL     1      20.671  50.093  48.187  1.00  0.00     0.049 A 
HETATM    7  C   UNL     1      19.429  50.579  47.721  1.00  0.00     0.020 A 
HETATM    8  S   UNL     1      18.773  50.382  46.149  1.00  0.00    -0.082 SA
HETATM    9  C   UNL     1      18.574  51.314  48.540  1.00  0.00     0.004 A 
HETATM   10  C   UNL     1      17.370  51.298  46.509  1.00  0.00     0.103 A 
HETATM   11  C   UNL     1      17.385  51.711  47.828  1.00  0.00     0.068 A 
HETATM   12 CL   UNL     1      16.156  52.635  48.602  1.00  0.00    -0.082 Cl
HETATM   13  C   UNL     1      19.001  51.563  49.868  1.00  0.00     0.017 A 
HETATM   14  C   UNL     1      20.243  51.102  50.327  1.00  0.00     0.030 A 
BRANCH  10  15
HETATM   15  C   UNL     1      16.356  51.564  45.499  1.00  0.00     0.301 C 
HETATM   16  O   UNL     1      16.568  51.994  44.372  1.00  0.00    -0.259 OA
BRANCH  15  17
HETATM   17  O   UNL     1      15.103  51.254  45.954  1.00  0.00    -0.322 OA
HETATM   18  C   UNL     1      14.566  50.043  45.421  1.00  0.00     0.213 C 
ENDBRANCH  15  17
ENDBRANCH  10  15
ENDBRANCH   3   5
ENDBRANCH   1   3
BRANCH   1  19
HETATM   19  N   UNL     1      23.441  47.885  49.398  1.00  0.00    -0.274 N 
HETATM   20  H   UNL     1      23.348  47.228  48.624  1.00  0.00     0.189 HD
BRANCH  19  21
HETATM   21  N   UNL     1      24.127  47.389  50.518  1.00  0.00    -0.267 N 
HETATM   22  C   UNL     1      24.501  46.057  50.478  1.00  0.00     0.245 C 
HETATM   23  O   UNL     1      24.508  45.398  49.439  1.00  0.00    -0.271 OA
HETATM   24  H   UNL     1      23.875  47.815  51.409  1.00  0.00     0.190 HD
BRANCH  22  25
HETATM   25  C   UNL     1      24.886  45.481  51.827  1.00  0.00     0.178 C 
BRANCH  25  26
HETATM   26  S   UNL     1      26.527  44.708  51.692  1.00  0.00    -0.155 SA
BRANCH  26  27
HETATM   27  C   UNL     1      26.488  43.706  53.209  1.00  0.00     0.114 C 
BRANCH  27  28
HETATM   28  C   UNL     1      27.773  43.843  53.990  1.00  0.00    -0.032 A 
HETATM   29  C   UNL     1      28.763  42.846  54.034  1.00  0.00     0.018 A 
HETATM   30 BR   UNL     1      28.582  41.188  53.122  1.00  0.00    -0.051 Br
HETATM   31  C   UNL     1      29.942  43.045  54.762  1.00  0.00     0.019 A 
HETATM   32  C   UNL     1      30.152  44.239  55.450  1.00  0.00     0.001 A 
HETATM   33  C   UNL     1      29.187  45.240  55.410  1.00  0.00     0.001 A 
HETATM   34  C   UNL     1      28.010  45.045  54.685  1.00  0.00     0.009 A 
ENDBRANCH  27  28
ENDBRANCH  26  27
ENDBRANCH  25  26
ENDBRANCH  22  25
ENDBRANCH  19  21
ENDBRANCH   1  19
TORSDOF 10
ENDMDL
