MODEL 1
REMARK VINA RESULT:      -9.8      0.000      0.000
REMARK  6 active torsions:
REMARK  status: ('A' for Active; 'I' for Inactive)
REMARK    1  A    between atoms: C_5  and  N_6 
REMARK    2  A    between atoms: N_6  and  C_7 
REMARK    3  A    between atoms: C_7  and  N_8 
REMARK    4  A    between atoms: C_11  and  C_12 
REMARK    5  A    between atoms: N_14  and  C_15 
REMARK    6  A    between atoms: C_21  and  O_22 
ROOT
HETATM    1  N   UNL     1      26.038  47.022  50.287  1.00  0.00    -0.358 N 
HETATM    2  C   UNL     1      26.258  47.341  51.706  1.00  0.00     0.126 C 
HETATM    3  C   UNL     1      25.538  46.365  52.634  1.00  0.00     0.031 C 
HETATM    4  C   UNL     1      25.846  44.894  52.301  1.00  0.00     0.043 C 
HETATM    5  C   UNL     1      25.593  44.658  50.802  1.00  0.00     0.031 C 
HETATM    6  C   UNL     1      26.374  45.641  49.934  1.00  0.00     0.126 C 
ENDROOT
BRANCH   4   7
HETATM    7  C   UNL     1      27.214  44.423  52.735  1.00  0.00     0.063 C 
HETATM    8  N   UNL     1      27.613  44.502  54.009  1.00  0.00    -0.169 NA
HETATM    9  N   UNL     1      28.895  44.041  54.015  1.00  0.00    -0.211 N 
HETATM   10  C   UNL     1      29.227  43.482  52.781  1.00  0.00     0.165 C 
HETATM   11  C   UNL     1      28.189  43.787  51.935  1.00  0.00     0.087 C 
BRANCH   9  12
HETATM   12  C   UNL     1      29.693  44.164  55.188  1.00  0.00     0.061 A 
HETATM   13  C   UNL     1      29.600  45.331  55.961  1.00  0.00     0.031 A 
HETATM   14  C   UNL     1      30.359  45.465  57.126  1.00  0.00     0.002 A 
HETATM   15  C   UNL     1      31.228  44.448  57.515  1.00  0.00     0.000 A 
HETATM   16  C   UNL     1      31.352  43.301  56.733  1.00  0.00     0.002 A 
HETATM   17  C   UNL     1      30.591  43.157  55.570  1.00  0.00     0.031 A 
ENDBRANCH   9  12
BRANCH  10  18
HETATM   18  O   UNL     1      30.314  42.755  52.519  1.00  0.00    -0.345 OA
HETATM   19  H   UNL     1      30.033  41.894  52.162  1.00  0.00     0.219 HD
ENDBRANCH  10  18
ENDBRANCH   4   7
BRANCH   1  20
HETATM   20  C   UNL     1      26.230  48.047  49.370  1.00  0.00     0.174 C 
HETATM   21  S   UNL     1      27.590  49.033  49.295  1.00  0.00    -0.041 SA
BRANCH  20  22
HETATM   22  N   UNL     1      25.220  48.333  48.491  1.00  0.00    -0.333 N 
HETATM   23  H   UNL     1      25.227  47.729  47.676  1.00  0.00     0.168 HD
BRANCH  22  24
HETATM   24  C   UNL     1      24.061  49.125  48.640  1.00  0.00     0.034 A 
HETATM   25  C   UNL     1      24.018  50.499  48.404  1.00  0.00     0.030 A 
HETATM   26  C   UNL     1      22.834  51.220  48.593  1.00  0.00     0.009 A 
HETATM   27  C   UNL     1      21.679  50.580  49.053  1.00  0.00    -0.062 A 
HETATM   28  C   UNL     1      20.399  51.343  49.226  1.00  0.00     0.048 C 
HETATM   29  C   UNL     1      21.724  49.207  49.309  1.00  0.00     0.009 A 
HETATM   30  C   UNL     1      22.908  48.489  49.114  1.00  0.00     0.030 A 
ENDBRANCH  22  24
ENDBRANCH  20  22
ENDBRANCH   1  20
TORSDOF 6
ENDMDL
MODEL 2
REMARK VINA RESULT:      -9.7      2.915      9.682
REMARK  6 active torsions:
REMARK  status: ('A' for Active; 'I' for Inactive)
REMARK    1  A    between atoms: C_5  and  N_6 
REMARK    2  A    between atoms: N_6  and  C_7 
REMARK    3  A    between atoms: C_7  and  N_8 
REMARK    4  A    between atoms: C_11  and  C_12 
REMARK    5  A    between atoms: N_14  and  C_15 
REMARK    6  A    between atoms: C_21  and  O_22 
ROOT
HETATM    1  N   UNL     1      25.950  44.785  51.254  1.00  0.00    -0.358 N 
HETATM    2  C   UNL     1      25.096  45.654  52.078  1.00  0.00     0.126 C 
HETATM    3  C   UNL     1      25.446  47.132  51.911  1.00  0.00     0.031 C 
HETATM    4  C   UNL     1      25.489  47.567  50.435  1.00  0.00     0.043 C 
HETATM    5  C   UNL     1      26.398  46.601  49.655  1.00  0.00     0.031 C 
HETATM    6  C   UNL     1      25.966  45.148  49.835  1.00  0.00     0.126 C 
ENDROOT
BRANCH   4   7
HETATM    7  C   UNL     1      24.133  47.731  49.787  1.00  0.00     0.063 C 
HETATM    8  N   UNL     1      23.481  48.899  49.809  1.00  0.00    -0.169 NA
HETATM    9  N   UNL     1      22.294  48.660  49.184  1.00  0.00    -0.211 N 
HETATM   10  C   UNL     1      22.291  47.398  48.590  1.00  0.00     0.165 C 
HETATM   11  C   UNL     1      23.428  46.768  49.032  1.00  0.00     0.087 C 
BRANCH   9  12
HETATM   12  C   UNL     1      21.268  49.649  49.197  1.00  0.00     0.061 A 
HETATM   13  C   UNL     1      20.108  49.421  49.953  1.00  0.00     0.031 A 
HETATM   14  C   UNL     1      19.098  50.384  49.996  1.00  0.00     0.002 A 
HETATM   15  C   UNL     1      19.228  51.567  49.272  1.00  0.00     0.000 A 
HETATM   16  C   UNL     1      20.362  51.784  48.491  1.00  0.00     0.002 A 
HETATM   17  C   UNL     1      21.380  50.828  48.448  1.00  0.00     0.031 A 
ENDBRANCH   9  12
BRANCH  10  18
HETATM   18  O   UNL     1      21.381  46.943  47.728  1.00  0.00    -0.345 OA
HETATM   19  H   UNL     1      21.827  46.369  47.080  1.00  0.00     0.219 HD
ENDBRANCH  10  18
ENDBRANCH   4   7
BRANCH   1  20
HETATM   20  C   UNL     1      26.061  43.456  51.640  1.00  0.00     0.174 C 
HETATM   21  S   UNL     1      25.790  42.134  50.638  1.00  0.00    -0.041 SA
BRANCH  20  22
HETATM   22  N   UNL     1      26.354  43.180  52.949  1.00  0.00    -0.333 N 
HETATM   23  H   UNL     1      25.709  42.514  53.362  1.00  0.00     0.168 HD
BRANCH  22  24
HETATM   24  C   UNL     1      27.505  43.455  53.717  1.00  0.00     0.034 A 
HETATM   25  C   UNL     1      27.685  44.618  54.466  1.00  0.00     0.030 A 
HETATM   26  C   UNL     1      28.865  44.829  55.186  1.00  0.00     0.009 A 
HETATM   27  C   UNL     1      29.900  43.890  55.145  1.00  0.00    -0.062 A 
HETATM   28  C   UNL     1      31.154  44.096  55.941  1.00  0.00     0.048 C 
HETATM   29  C   UNL     1      29.730  42.732  54.380  1.00  0.00     0.009 A 
HETATM   30  C   UNL     1      28.547  42.523  53.664  1.00  0.00     0.030 A 
ENDBRANCH  22  24
ENDBRANCH  20  22
ENDBRANCH   1  20
TORSDOF 6
ENDMDL
MODEL 3
REMARK VINA RESULT:      -9.6      1.788      2.609
REMARK  6 active torsions:
REMARK  status: ('A' for Active; 'I' for Inactive)
REMARK    1  A    between atoms: C_5  and  N_6 
REMARK    2  A    between atoms: N_6  and  C_7 
REMARK    3  A    between atoms: C_7  and  N_8 
REMARK    4  A    between atoms: C_11  and  C_12 
REMARK    5  A    between atoms: N_14  and  C_15 
REMARK    6  A    between atoms: C_21  and  O_22 
ROOT
HETATM    1  N   UNL     1      24.885  47.100  49.427  1.00  0.00    -0.358 N 
HETATM    2  C   UNL     1      24.066  45.989  49.933  1.00  0.00     0.126 C 
HETATM    3  C   UNL     1      24.690  44.628  49.627  1.00  0.00     0.031 C 
HETATM    4  C   UNL     1      26.160  44.536  50.074  1.00  0.00     0.043 C 
HETATM    5  C   UNL     1      26.933  45.738  49.504  1.00  0.00     0.031 C 
HETATM    6  C   UNL     1      26.277  47.063  49.881  1.00  0.00     0.126 C 
ENDROOT
BRANCH   4   7
HETATM    7  C   UNL     1      26.356  44.380  51.565  1.00  0.00     0.063 C 
HETATM    8  N   UNL     1      27.523  44.665  52.153  1.00  0.00    -0.169 NA
HETATM    9  N   UNL     1      27.347  44.362  53.469  1.00  0.00    -0.211 N 
HETATM   10  C   UNL     1      26.007  44.083  53.739  1.00  0.00     0.165 C 
HETATM   11  C   UNL     1      25.380  44.018  52.519  1.00  0.00     0.087 C 
BRANCH   9  12
HETATM   12  C   UNL     1      28.458  44.368  54.360  1.00  0.00     0.061 A 
HETATM   13  C   UNL     1      29.317  43.259  54.391  1.00  0.00     0.031 A 
HETATM   14  C   UNL     1      30.425  43.252  55.241  1.00  0.00     0.002 A 
HETATM   15  C   UNL     1      30.670  44.337  56.079  1.00  0.00     0.000 A 
HETATM   16  C   UNL     1      29.801  45.427  56.079  1.00  0.00     0.002 A 
HETATM   17  C   UNL     1      28.695  45.445  55.225  1.00  0.00     0.031 A 
ENDBRANCH   9  12
BRANCH  10  18
HETATM   18  O   UNL     1      25.462  43.962  54.950  1.00  0.00    -0.345 OA
HETATM   19  H   UNL     1      26.017  43.364  55.482  1.00  0.00     0.219 HD
ENDBRANCH  10  18
ENDBRANCH   4   7
BRANCH   1  20
HETATM   20  C   UNL     1      24.246  48.316  49.222  1.00  0.00     0.174 C 
HETATM   21  S   UNL     1      24.981  49.704  48.623  1.00  0.00    -0.041 SA
BRANCH  20  22
HETATM   22  N   UNL     1      22.931  48.430  49.587  1.00  0.00    -0.333 N 
HETATM   23  H   UNL     1      22.701  47.871  50.401  1.00  0.00     0.168 HD
BRANCH  22  24
HETATM   24  C   UNL     1      21.941  49.357  49.196  1.00  0.00     0.034 A 
HETATM   25  C   UNL     1      21.377  49.405  47.921  1.00  0.00     0.030 A 
HETATM   26  C   UNL     1      20.413  50.367  47.603  1.00  0.00     0.009 A 
HETATM   27  C   UNL     1      20.018  51.318  48.548  1.00  0.00    -0.062 A 
HETATM   28  C   UNL     1      18.961  52.331  48.222  1.00  0.00     0.048 C 
HETATM   29  C   UNL     1      20.595  51.284  49.821  1.00  0.00     0.009 A 
HETATM   30  C   UNL     1      21.556  50.318  50.137  1.00  0.00     0.030 A 
ENDBRANCH  22  24
ENDBRANCH  20  22
ENDBRANCH   1  20
TORSDOF 6
ENDMDL
MODEL 4
REMARK VINA RESULT:      -9.0      3.773      6.477
REMARK  6 active torsions:
REMARK  status: ('A' for Active; 'I' for Inactive)
REMARK    1  A    between atoms: C_5  and  N_6 
REMARK    2  A    between atoms: N_6  and  C_7 
REMARK    3  A    between atoms: C_7  and  N_8 
REMARK    4  A    between atoms: C_11  and  C_12 
REMARK    5  A    between atoms: N_14  and  C_15 
REMARK    6  A    between atoms: C_21  and  O_22 
ROOT
HETATM    1  N   UNL     1      25.184  43.646  50.002  1.00  0.00    -0.358 N 
HETATM    2  C   UNL     1      26.349  44.503  49.735  1.00  0.00     0.126 C 
HETATM    3  C   UNL     1      26.423  45.689  50.694  1.00  0.00     0.031 C 
HETATM    4  C   UNL     1      26.323  45.264  52.171  1.00  0.00     0.043 C 
HETATM    5  C   UNL     1      25.083  44.370  52.351  1.00  0.00     0.031 C 
HETATM    6  C   UNL     1      25.096  43.185  51.389  1.00  0.00     0.126 C 
ENDROOT
BRANCH   4   7
HETATM    7  C   UNL     1      27.576  44.630  52.730  1.00  0.00     0.063 C 
HETATM    8  N   UNL     1      27.910  44.753  54.019  1.00  0.00    -0.169 NA
HETATM    9  N   UNL     1      29.103  44.107  54.146  1.00  0.00    -0.211 N 
HETATM   10  C   UNL     1      29.413  43.405  52.981  1.00  0.00     0.165 C 
HETATM   11  C   UNL     1      28.485  43.792  52.046  1.00  0.00     0.087 C 
BRANCH   9  12
HETATM   12  C   UNL     1      29.843  44.204  55.359  1.00  0.00     0.061 A 
HETATM   13  C   UNL     1      30.684  43.145  55.734  1.00  0.00     0.031 A 
HETATM   14  C   UNL     1      31.434  43.227  56.909  1.00  0.00     0.002 A 
HETATM   15  C   UNL     1      31.335  44.351  57.725  1.00  0.00     0.000 A 
HETATM   16  C   UNL     1      30.475  45.391  57.377  1.00  0.00     0.002 A 
HETATM   17  C   UNL     1      29.726  45.320  56.199  1.00  0.00     0.031 A 
ENDBRANCH   9  12
BRANCH  10  18
HETATM   18  O   UNL     1      30.388  42.505  52.847  1.00  0.00    -0.345 OA
HETATM   19  H   UNL     1      31.057  42.668  53.535  1.00  0.00     0.219 HD
ENDBRANCH  10  18
ENDBRANCH   4   7
BRANCH   1  20
HETATM   20  C   UNL     1      24.743  42.835  48.964  1.00  0.00     0.174 C 
HETATM   21  S   UNL     1      23.132  42.505  48.616  1.00  0.00    -0.041 SA
BRANCH  20  22
HETATM   22  N   UNL     1      25.677  42.200  48.191  1.00  0.00    -0.333 N 
HETATM   23  H   UNL     1      25.840  42.670  47.307  1.00  0.00     0.168 HD
BRANCH  22  24
HETATM   24  C   UNL     1      26.604  41.184  48.509  1.00  0.00     0.034 A 
HETATM   25  C   UNL     1      27.868  41.070  47.930  1.00  0.00     0.030 A 
HETATM   26  C   UNL     1      28.724  40.021  48.283  1.00  0.00     0.009 A 
HETATM   27  C   UNL     1      28.315  39.050  49.201  1.00  0.00    -0.062 A 
HETATM   28  C   UNL     1      29.241  37.942  49.606  1.00  0.00     0.048 C 
HETATM   29  C   UNL     1      27.042  39.150  49.768  1.00  0.00     0.009 A 
HETATM   30  C   UNL     1      26.190  40.202  49.416  1.00  0.00     0.030 A 
ENDBRANCH  22  24
ENDBRANCH  20  22
ENDBRANCH   1  20
TORSDOF 6
ENDMDL
MODEL 5
REMARK VINA RESULT:      -9.0      1.436      2.163
REMARK  6 active torsions:
REMARK  status: ('A' for Active; 'I' for Inactive)
REMARK    1  A    between atoms: C_5  and  N_6 
REMARK    2  A    between atoms: N_6  and  C_7 
REMARK    3  A    between atoms: C_7  and  N_8 
REMARK    4  A    between atoms: C_11  and  C_12 
REMARK    5  A    between atoms: N_14  and  C_15 
REMARK    6  A    between atoms: C_21  and  O_22 
ROOT
HETATM    1  N   UNL     1      25.319  46.316  50.961  1.00  0.00    -0.358 N 
HETATM    2  C   UNL     1      25.509  46.502  52.408  1.00  0.00     0.126 C 
HETATM    3  C   UNL     1      25.101  45.265  53.206  1.00  0.00     0.031 C 
HETATM    4  C   UNL     1      25.759  43.977  52.681  1.00  0.00     0.043 C 
HETATM    5  C   UNL     1      25.513  43.872  51.165  1.00  0.00     0.031 C 
HETATM    6  C   UNL     1      25.980  45.123  50.428  1.00  0.00     0.126 C 
ENDROOT
BRANCH   4   7
HETATM    7  C   UNL     1      27.219  43.824  53.038  1.00  0.00     0.063 C 
HETATM    8  N   UNL     1      27.652  43.957  54.297  1.00  0.00    -0.169 NA
HETATM    9  N   UNL     1      29.004  43.807  54.230  1.00  0.00    -0.211 N 
HETATM   10  C   UNL     1      29.395  43.376  52.962  1.00  0.00     0.165 C 
HETATM   11  C   UNL     1      28.274  43.457  52.173  1.00  0.00     0.087 C 
BRANCH   9  12
HETATM   12  C   UNL     1      29.811  44.078  55.373  1.00  0.00     0.061 A 
HETATM   13  C   UNL     1      30.724  43.107  55.812  1.00  0.00     0.031 A 
HETATM   14  C   UNL     1      31.538  43.358  56.918  1.00  0.00     0.002 A 
HETATM   15  C   UNL     1      31.433  44.566  57.604  1.00  0.00     0.000 A 
HETATM   16  C   UNL     1      30.502  45.520  57.196  1.00  0.00     0.002 A 
HETATM   17  C   UNL     1      29.689  45.279  56.086  1.00  0.00     0.031 A 
ENDBRANCH   9  12
BRANCH  10  18
HETATM   18  O   UNL     1      30.606  42.931  52.627  1.00  0.00    -0.345 OA
HETATM   19  H   UNL     1      31.191  43.010  53.401  1.00  0.00     0.219 HD
ENDBRANCH  10  18
ENDBRANCH   4   7
BRANCH   1  20
HETATM   20  C   UNL     1      25.204  47.462  50.185  1.00  0.00     0.174 C 
HETATM   21  S   UNL     1      26.491  48.282  49.480  1.00  0.00    -0.041 SA
BRANCH  20  22
HETATM   22  N   UNL     1      23.964  48.016  50.020  1.00  0.00    -0.333 N 
HETATM   23  H   UNL     1      23.841  48.869  50.556  1.00  0.00     0.168 HD
BRANCH  22  24
HETATM   24  C   UNL     1      22.953  47.754  49.070  1.00  0.00     0.034 A 
HETATM   25  C   UNL     1      22.846  46.564  48.351  1.00  0.00     0.030 A 
HETATM   26  C   UNL     1      21.827  46.386  47.410  1.00  0.00     0.009 A 
HETATM   27  C   UNL     1      20.913  47.412  47.151  1.00  0.00    -0.062 A 
HETATM   28  C   UNL     1      19.799  47.215  46.166  1.00  0.00     0.048 C 
HETATM   29  C   UNL     1      21.029  48.613  47.856  1.00  0.00     0.009 A 
HETATM   30  C   UNL     1      22.047  48.786  48.799  1.00  0.00     0.030 A 
ENDBRANCH  22  24
ENDBRANCH  20  22
ENDBRANCH   1  20
TORSDOF 6
ENDMDL
MODEL 6
REMARK VINA RESULT:      -8.6      4.055      8.163
REMARK  6 active torsions:
REMARK  status: ('A' for Active; 'I' for Inactive)
REMARK    1  A    between atoms: C_5  and  N_6 
REMARK    2  A    between atoms: N_6  and  C_7 
REMARK    3  A    between atoms: C_7  and  N_8 
REMARK    4  A    between atoms: C_11  and  C_12 
REMARK    5  A    between atoms: N_14  and  C_15 
REMARK    6  A    between atoms: C_21  and  O_22 
ROOT
HETATM    1  N   UNL     1      26.564  46.134  54.192  1.00  0.00    -0.358 N 
HETATM    2  C   UNL     1      26.285  44.812  54.774  1.00  0.00     0.126 C 
HETATM    3  C   UNL     1      25.168  44.081  54.032  1.00  0.00     0.031 C 
HETATM    4  C   UNL     1      25.405  44.024  52.512  1.00  0.00     0.043 C 
HETATM    5  C   UNL     1      25.692  45.445  51.997  1.00  0.00     0.031 C 
HETATM    6  C   UNL     1      26.844  46.099  52.755  1.00  0.00     0.126 C 
ENDROOT
BRANCH   4   7
HETATM    7  C   UNL     1      26.456  43.030  52.074  1.00  0.00     0.063 C 
HETATM    8  N   UNL     1      26.489  42.545  50.829  1.00  0.00    -0.169 NA
HETATM    9  N   UNL     1      27.520  41.655  50.816  1.00  0.00    -0.211 N 
HETATM   10  C   UNL     1      28.260  41.735  51.996  1.00  0.00     0.165 C 
HETATM   11  C   UNL     1      27.546  42.553  52.835  1.00  0.00     0.087 C 
BRANCH   9  12
HETATM   12  C   UNL     1      27.720  40.809  49.687  1.00  0.00     0.061 A 
HETATM   13  C   UNL     1      27.598  41.349  48.397  1.00  0.00     0.031 A 
HETATM   14  C   UNL     1      27.810  40.544  47.276  1.00  0.00     0.002 A 
HETATM   15  C   UNL     1      28.122  39.196  47.432  1.00  0.00     0.000 A 
HETATM   16  C   UNL     1      28.210  38.644  48.710  1.00  0.00     0.002 A 
HETATM   17  C   UNL     1      28.007  39.446  49.837  1.00  0.00     0.031 A 
ENDBRANCH   9  12
BRANCH  10  18
HETATM   18  O   UNL     1      29.445  41.164  52.215  1.00  0.00    -0.345 OA
HETATM   19  H   UNL     1      29.913  41.085  51.365  1.00  0.00     0.219 HD
ENDBRANCH  10  18
ENDBRANCH   4   7
BRANCH   1  20
HETATM   20  C   UNL     1      27.194  47.064  55.008  1.00  0.00     0.174 C 
HETATM   21  S   UNL     1      26.428  48.346  55.780  1.00  0.00    -0.041 SA
BRANCH  20  22
HETATM   22  N   UNL     1      28.552  46.985  55.159  1.00  0.00    -0.333 N 
HETATM   23  H   UNL     1      29.019  47.867  54.976  1.00  0.00     0.168 HD
BRANCH  22  24
HETATM   24  C   UNL     1      29.360  45.991  55.752  1.00  0.00     0.034 A 
HETATM   25  C   UNL     1      29.843  46.054  57.059  1.00  0.00     0.030 A 
HETATM   26  C   UNL     1      30.657  45.038  57.570  1.00  0.00     0.009 A 
HETATM   27  C   UNL     1      31.025  43.953  56.770  1.00  0.00    -0.062 A 
HETATM   28  C   UNL     1      31.870  42.845  57.323  1.00  0.00     0.048 C 
HETATM   29  C   UNL     1      30.558  43.896  55.454  1.00  0.00     0.009 A 
HETATM   30  C   UNL     1      29.742  44.912  54.947  1.00  0.00     0.030 A 
ENDBRANCH  22  24
ENDBRANCH  20  22
ENDBRANCH   1  20
TORSDOF 6
ENDMDL
MODEL 7
REMARK VINA RESULT:      -8.5      2.195      2.853
REMARK  6 active torsions:
REMARK  status: ('A' for Active; 'I' for Inactive)
REMARK    1  A    between atoms: C_5  and  N_6 
REMARK    2  A    between atoms: N_6  and  C_7 
REMARK    3  A    between atoms: C_7  and  N_8 
REMARK    4  A    between atoms: C_11  and  C_12 
REMARK    5  A    between atoms: N_14  and  C_15 
REMARK    6  A    between atoms: C_21  and  O_22 
ROOT
HETATM    1  N   UNL     1      25.244  44.339  50.034  1.00  0.00    -0.358 N 
HETATM    2  C   UNL     1      25.033  43.499  51.223  1.00  0.00     0.126 C 
HETATM    3  C   UNL     1      26.233  42.600  51.514  1.00  0.00     0.031 C 
HETATM    4  C   UNL     1      27.559  43.379  51.565  1.00  0.00     0.043 C 
HETATM    5  C   UNL     1      27.689  44.229  50.289  1.00  0.00     0.031 C 
HETATM    6  C   UNL     1      26.475  45.131  50.083  1.00  0.00     0.126 C 
ENDROOT
BRANCH   4   7
HETATM    7  C   UNL     1      27.763  44.194  52.822  1.00  0.00     0.063 C 
HETATM    8  N   UNL     1      28.841  44.033  53.596  1.00  0.00    -0.169 NA
HETATM    9  N   UNL     1      28.662  44.883  54.645  1.00  0.00    -0.211 N 
HETATM   10  C   UNL     1      27.571  45.723  54.423  1.00  0.00     0.165 C 
HETATM   11  C   UNL     1      26.946  45.243  53.299  1.00  0.00     0.087 C 
BRANCH   9  12
HETATM   12  C   UNL     1      29.540  44.831  55.766  1.00  0.00     0.061 A 
HETATM   13  C   UNL     1      30.482  43.794  55.850  1.00  0.00     0.031 A 
HETATM   14  C   UNL     1      31.366  43.734  56.929  1.00  0.00     0.002 A 
HETATM   15  C   UNL     1      31.304  44.692  57.938  1.00  0.00     0.000 A 
HETATM   16  C   UNL     1      30.347  45.705  57.879  1.00  0.00     0.002 A 
HETATM   17  C   UNL     1      29.463  45.775  56.799  1.00  0.00     0.031 A 
ENDBRANCH   9  12
BRANCH  10  18
HETATM   18  O   UNL     1      27.255  46.801  55.141  1.00  0.00    -0.345 OA
HETATM   19  H   UNL     1      27.430  46.610  56.080  1.00  0.00     0.219 HD
ENDBRANCH  10  18
ENDBRANCH   4   7
BRANCH   1  20
HETATM   20  C   UNL     1      24.113  44.837  49.402  1.00  0.00     0.174 C 
HETATM   21  S   UNL     1      23.428  44.198  48.006  1.00  0.00    -0.041 SA
BRANCH  20  22
HETATM   22  N   UNL     1      23.532  45.971  49.903  1.00  0.00    -0.333 N 
HETATM   23  H   UNL     1      23.256  45.874  50.874  1.00  0.00     0.168 HD
BRANCH  22  24
HETATM   24  C   UNL     1      23.486  47.287  49.395  1.00  0.00     0.034 A 
HETATM   25  C   UNL     1      24.572  48.163  49.395  1.00  0.00     0.030 A 
HETATM   26  C   UNL     1      24.442  49.462  48.892  1.00  0.00     0.009 A 
HETATM   27  C   UNL     1      23.212  49.916  48.407  1.00  0.00    -0.062 A 
HETATM   28  C   UNL     1      23.076  51.297  47.837  1.00  0.00     0.048 C 
HETATM   29  C   UNL     1      22.117  49.047  48.424  1.00  0.00     0.009 A 
HETATM   30  C   UNL     1      22.252  47.748  48.924  1.00  0.00     0.030 A 
ENDBRANCH  22  24
ENDBRANCH  20  22
ENDBRANCH   1  20
TORSDOF 6
ENDMDL
MODEL 8
REMARK VINA RESULT:      -8.5      3.734      7.685
REMARK  6 active torsions:
REMARK  status: ('A' for Active; 'I' for Inactive)
REMARK    1  A    between atoms: C_5  and  N_6 
REMARK    2  A    between atoms: N_6  and  C_7 
REMARK    3  A    between atoms: C_7  and  N_8 
REMARK    4  A    between atoms: C_11  and  C_12 
REMARK    5  A    between atoms: N_14  and  C_15 
REMARK    6  A    between atoms: C_21  and  O_22 
ROOT
HETATM    1  N   UNL     1      26.284  46.233  53.709  1.00  0.00    -0.358 N 
HETATM    2  C   UNL     1      26.029  44.818  54.021  1.00  0.00     0.126 C 
HETATM    3  C   UNL     1      24.754  44.303  53.355  1.00  0.00     0.031 C 
HETATM    4  C   UNL     1      24.715  44.595  51.845  1.00  0.00     0.043 C 
HETATM    5  C   UNL     1      24.997  46.091  51.617  1.00  0.00     0.031 C 
HETATM    6  C   UNL     1      26.304  46.526  52.274  1.00  0.00     0.126 C 
ENDROOT
BRANCH   4   7
HETATM    7  C   UNL     1      25.606  43.707  51.008  1.00  0.00     0.063 C 
HETATM    8  N   UNL     1      26.123  42.573  51.493  1.00  0.00    -0.169 NA
HETATM    9  N   UNL     1      26.901  42.074  50.492  1.00  0.00    -0.211 N 
HETATM   10  C   UNL     1      26.707  42.789  49.309  1.00  0.00     0.165 C 
HETATM   11  C   UNL     1      25.942  43.878  49.646  1.00  0.00     0.087 C 
BRANCH   9  12
HETATM   12  C   UNL     1      27.755  40.961  50.737  1.00  0.00     0.061 A 
HETATM   13  C   UNL     1      27.814  39.923  49.796  1.00  0.00     0.031 A 
HETATM   14  C   UNL     1      28.659  38.831  50.006  1.00  0.00     0.002 A 
HETATM   15  C   UNL     1      29.432  38.758  51.162  1.00  0.00     0.000 A 
HETATM   16  C   UNL     1      29.352  39.768  52.119  1.00  0.00     0.002 A 
HETATM   17  C   UNL     1      28.513  40.867  51.912  1.00  0.00     0.031 A 
ENDBRANCH   9  12
BRANCH  10  18
HETATM   18  O   UNL     1      27.143  42.433  48.101  1.00  0.00    -0.345 OA
HETATM   19  H   UNL     1      27.714  41.649  48.195  1.00  0.00     0.219 HD
ENDBRANCH  10  18
ENDBRANCH   4   7
BRANCH   1  20
HETATM   20  C   UNL     1      27.107  46.935  54.580  1.00  0.00     0.174 C 
HETATM   21  S   UNL     1      26.583  48.100  55.672  1.00  0.00    -0.041 SA
BRANCH  20  22
HETATM   22  N   UNL     1      28.457  46.720  54.518  1.00  0.00    -0.333 N 
HETATM   23  H   UNL     1      28.960  47.499  54.108  1.00  0.00     0.168 HD
BRANCH  22  24
HETATM   24  C   UNL     1      29.267  45.743  55.137  1.00  0.00     0.034 A 
HETATM   25  C   UNL     1      29.537  44.490  54.589  1.00  0.00     0.030 A 
HETATM   26  C   UNL     1      30.334  43.567  55.273  1.00  0.00     0.009 A 
HETATM   27  C   UNL     1      30.851  43.873  56.535  1.00  0.00    -0.062 A 
HETATM   28  C   UNL     1      31.733  42.899  57.259  1.00  0.00     0.048 C 
HETATM   29  C   UNL     1      30.567  45.121  57.096  1.00  0.00     0.009 A 
HETATM   30  C   UNL     1      29.772  46.043  56.407  1.00  0.00     0.030 A 
ENDBRANCH  22  24
ENDBRANCH  20  22
ENDBRANCH   1  20
TORSDOF 6
ENDMDL
MODEL 9
REMARK VINA RESULT:      -8.5      4.152      8.491
REMARK  6 active torsions:
REMARK  status: ('A' for Active; 'I' for Inactive)
REMARK    1  A    between atoms: C_5  and  N_6 
REMARK    2  A    between atoms: N_6  and  C_7 
REMARK    3  A    between atoms: C_7  and  N_8 
REMARK    4  A    between atoms: C_11  and  C_12 
REMARK    5  A    between atoms: N_14  and  C_15 
REMARK    6  A    between atoms: C_21  and  O_22 
ROOT
HETATM    1  N   UNL     1      26.291  45.282  52.082  1.00  0.00    -0.358 N 
HETATM    2  C   UNL     1      25.037  44.587  51.753  1.00  0.00     0.126 C 
HETATM    3  C   UNL     1      24.774  44.556  50.248  1.00  0.00     0.031 C 
HETATM    4  C   UNL     1      25.977  44.025  49.447  1.00  0.00     0.043 C 
HETATM    5  C   UNL     1      27.237  44.805  49.862  1.00  0.00     0.031 C 
HETATM    6  C   UNL     1      27.460  44.760  51.371  1.00  0.00     0.126 C 
ENDROOT
BRANCH   4   7
HETATM    7  C   UNL     1      26.175  42.528  49.525  1.00  0.00     0.063 C 
HETATM    8  N   UNL     1      27.009  41.886  48.700  1.00  0.00    -0.169 NA
HETATM    9  N   UNL     1      26.892  40.568  49.024  1.00  0.00    -0.211 N 
HETATM   10  C   UNL     1      26.140  40.407  50.188  1.00  0.00     0.165 C 
HETATM   11  C   UNL     1      25.615  41.644  50.473  1.00  0.00     0.087 C 
BRANCH   9  12
HETATM   12  C   UNL     1      27.506  39.575  48.208  1.00  0.00     0.061 A 
HETATM   13  C   UNL     1      28.647  38.910  48.682  1.00  0.00     0.031 A 
HETATM   14  C   UNL     1      29.254  37.919  47.908  1.00  0.00     0.002 A 
HETATM   15  C   UNL     1      28.742  37.600  46.653  1.00  0.00     0.000 A 
HETATM   16  C   UNL     1      27.630  38.281  46.160  1.00  0.00     0.002 A 
HETATM   17  C   UNL     1      27.013  39.270  46.932  1.00  0.00     0.031 A 
ENDBRANCH   9  12
BRANCH  10  18
HETATM   18  O   UNL     1      26.018  39.280  50.890  1.00  0.00    -0.345 OA
HETATM   19  H   UNL     1      26.773  39.212  51.501  1.00  0.00     0.219 HD
ENDBRANCH  10  18
ENDBRANCH   4   7
BRANCH   1  20
HETATM   20  C   UNL     1      26.418  45.780  53.372  1.00  0.00     0.174 C 
HETATM   21  S   UNL     1      26.215  47.390  53.809  1.00  0.00    -0.041 SA
BRANCH  20  22
HETATM   22  N   UNL     1      26.797  44.921  54.368  1.00  0.00    -0.333 N 
HETATM   23  H   UNL     1      26.035  44.334  54.691  1.00  0.00     0.168 HD
BRANCH  22  24
HETATM   24  C   UNL     1      28.077  44.546  54.828  1.00  0.00     0.034 A 
HETATM   25  C   UNL     1      28.726  43.368  54.459  1.00  0.00     0.030 A 
HETATM   26  C   UNL     1      29.989  43.055  54.974  1.00  0.00     0.009 A 
HETATM   27  C   UNL     1      30.611  43.905  55.893  1.00  0.00    -0.062 A 
HETATM   28  C   UNL     1      31.978  43.591  56.424  1.00  0.00     0.048 C 
HETATM   29  C   UNL     1      29.955  45.077  56.280  1.00  0.00     0.009 A 
HETATM   30  C   UNL     1      28.694  45.388  55.760  1.00  0.00     0.030 A 
ENDBRANCH  22  24
ENDBRANCH  20  22
ENDBRANCH   1  20
TORSDOF 6
ENDMDL
MODEL 10
REMARK VINA RESULT:      -8.4      4.095      6.980
REMARK  6 active torsions:
REMARK  status: ('A' for Active; 'I' for Inactive)
REMARK    1  A    between atoms: C_5  and  N_6 
REMARK    2  A    between atoms: N_6  and  C_7 
REMARK    3  A    between atoms: C_7  and  N_8 
REMARK    4  A    between atoms: C_11  and  C_12 
REMARK    5  A    between atoms: N_14  and  C_15 
REMARK    6  A    between atoms: C_21  and  O_22 
ROOT
HETATM    1  N   UNL     1      20.772  49.847  48.703  1.00  0.00    -0.358 N 
HETATM    2  C   UNL     1      21.596  49.402  47.569  1.00  0.00     0.126 C 
HETATM    3  C   UNL     1      22.709  50.395  47.241  1.00  0.00     0.031 C 
HETATM    4  C   UNL     1      23.549  50.773  48.474  1.00  0.00     0.043 C 
HETATM    5  C   UNL     1      22.605  51.219  49.605  1.00  0.00     0.031 C 
HETATM    6  C   UNL     1      21.545  50.163  49.906  1.00  0.00     0.126 C 
ENDROOT
BRANCH   4   7
HETATM    7  C   UNL     1      24.522  49.708  48.924  1.00  0.00     0.063 C 
HETATM    8  N   UNL     1      24.142  48.696  49.711  1.00  0.00    -0.169 NA
HETATM    9  N   UNL     1      25.275  47.978  49.947  1.00  0.00    -0.211 N 
HETATM   10  C   UNL     1      26.323  48.424  49.141  1.00  0.00     0.165 C 
HETATM   11  C   UNL     1      25.875  49.575  48.541  1.00  0.00     0.087 C 
BRANCH   9  12
HETATM   12  C   UNL     1      25.268  46.927  50.910  1.00  0.00     0.061 A 
HETATM   13  C   UNL     1      25.965  47.099  52.115  1.00  0.00     0.031 A 
HETATM   14  C   UNL     1      25.956  46.091  53.081  1.00  0.00     0.002 A 
HETATM   15  C   UNL     1      25.272  44.901  52.844  1.00  0.00     0.000 A 
HETATM   16  C   UNL     1      24.607  44.709  51.633  1.00  0.00     0.002 A 
HETATM   17  C   UNL     1      24.606  45.717  50.665  1.00  0.00     0.031 A 
ENDBRANCH   9  12
BRANCH  10  18
HETATM   18  O   UNL     1      27.492  47.807  48.967  1.00  0.00    -0.345 OA
HETATM   19  H   UNL     1      28.055  47.985  49.742  1.00  0.00     0.219 HD
ENDBRANCH  10  18
ENDBRANCH   4   7
BRANCH   1  20
HETATM   20  C   UNL     1      19.497  49.308  48.809  1.00  0.00     0.174 C 
HETATM   21  S   UNL     1      19.127  47.844  49.548  1.00  0.00    -0.041 SA
BRANCH  20  22
HETATM   22  N   UNL     1      18.456  49.975  48.221  1.00  0.00    -0.333 N 
HETATM   23  H   UNL     1      18.203  49.587  47.318  1.00  0.00     0.168 HD
BRANCH  22  24
HETATM   24  C   UNL     1      17.542  50.913  48.748  1.00  0.00     0.034 A 
HETATM   25  C   UNL     1      16.159  50.829  48.591  1.00  0.00     0.030 A 
HETATM   26  C   UNL     1      15.318  51.810  49.127  1.00  0.00     0.009 A 
HETATM   27  C   UNL     1      15.852  52.910  49.804  1.00  0.00    -0.062 A 
HETATM   28  C   UNL     1      14.953  53.947  50.409  1.00  0.00     0.048 C 
HETATM   29  C   UNL     1      17.239  53.006  49.947  1.00  0.00     0.009 A 
HETATM   30  C   UNL     1      18.076  52.021  49.413  1.00  0.00     0.030 A 
ENDBRANCH  22  24
ENDBRANCH  20  22
ENDBRANCH   1  20
TORSDOF 6
ENDMDL
