MODEL 1
REMARK VINA RESULT:      -9.3      0.000      0.000
REMARK  5 active torsions:
REMARK  status: ('A' for Active; 'I' for Inactive)
REMARK    1  A    between atoms: C_8  and  C_9 
REMARK    2  A    between atoms: C_9  and  N_10 
REMARK    3  A    between atoms: N_10  and  C_13 
REMARK    4  A    between atoms: C_16  and  O_17 
REMARK    5  A    between atoms: O_17  and  C_18 
ROOT
HETATM    1  C   UNL     1      28.670  44.489  54.043  1.00  0.00     0.164 A 
HETATM    2  N   UNL     1      29.531  43.452  54.081  1.00  0.00    -0.236 NA
HETATM    3  C   UNL     1      30.373  43.394  55.144  1.00  0.00     0.142 A 
HETATM    4  C   UNL     1      30.397  44.334  56.163  1.00  0.00     0.062 A 
HETATM    5  C   UNL     1      31.315  44.203  57.249  1.00  0.00     0.101 C 
HETATM    6  N   UNL     1      32.066  44.095  58.127  1.00  0.00    -0.191 NA
HETATM    7  C   UNL     1      29.503  45.401  56.087  1.00  0.00     0.028 A 
HETATM    8  C   UNL     1      28.629  45.487  55.004  1.00  0.00     0.059 A 
ENDROOT
BRANCH   1   9
HETATM    9  O   UNL     1      27.809  44.619  52.969  1.00  0.00    -0.329 OA
BRANCH   9  10
HETATM   10  C   UNL     1      26.818  43.583  52.899  1.00  0.00     0.130 C 
HETATM   11  C   UNL     1      25.461  44.240  53.200  1.00  0.00     0.034 C 
HETATM   12  C   UNL     1      25.018  45.213  52.103  1.00  0.00     0.035 C 
HETATM   13  C   UNL     1      25.010  44.531  50.733  1.00  0.00     0.186 C 
HETATM   14  C   UNL     1      26.377  43.934  50.411  1.00  0.00     0.035 C 
HETATM   15  C   UNL     1      26.804  42.947  51.501  1.00  0.00     0.034 C 
BRANCH  13  16
HETATM   16  N   UNL     1      24.611  45.543  49.705  1.00  0.00    -0.067 N 
HETATM   17  H   UNL     1      23.841  45.197  49.118  1.00  0.00     0.277 HD
HETATM   18  H   UNL     1      25.408  45.680  49.065  1.00  0.00     0.277 HD
BRANCH  16  19
HETATM   19  C   UNL     1      24.258  46.903  50.220  1.00  0.00     0.274 C 
BRANCH  19  20
HETATM   20  C   UNL     1      25.071  47.983  49.579  1.00  0.00     0.004 A 
HETATM   21  C   UNL     1      24.473  48.954  48.790  1.00  0.00     0.113 A 
HETATM   22  C   UNL     1      25.197  49.929  48.146  1.00  0.00     0.105 A 
HETATM   23  O   UNL     1      23.132  49.077  48.570  1.00  0.00    -0.322 OA
HETATM   24  C   UNL     1      26.568  50.001  48.255  1.00  0.00     0.040 A 
HETATM   25  O   UNL     1      24.412  50.769  47.426  1.00  0.00    -0.323 OA
HETATM   26  C   UNL     1      27.207  49.042  49.044  1.00  0.00     0.003 A 
HETATM   27  C   UNL     1      26.469  48.038  49.699  1.00  0.00     0.012 A 
HETATM   28  C   UNL     1      23.113  50.185  47.631  1.00  0.00     0.352 A 
ENDBRANCH  19  20
ENDBRANCH  16  19
ENDBRANCH  13  16
ENDBRANCH   9  10
ENDBRANCH   1   9
TORSDOF 5
ENDMDL
MODEL 2
REMARK VINA RESULT:      -9.2      1.285      2.123
REMARK  5 active torsions:
REMARK  status: ('A' for Active; 'I' for Inactive)
REMARK    1  A    between atoms: C_8  and  C_9 
REMARK    2  A    between atoms: C_9  and  N_10 
REMARK    3  A    between atoms: N_10  and  C_13 
REMARK    4  A    between atoms: C_16  and  O_17 
REMARK    5  A    between atoms: O_17  and  C_18 
ROOT
HETATM    1  C   UNL     1      28.449  44.472  53.773  1.00  0.00     0.164 A 
HETATM    2  N   UNL     1      28.647  45.342  54.784  1.00  0.00    -0.236 NA
HETATM    3  C   UNL     1      29.604  45.021  55.690  1.00  0.00     0.142 A 
HETATM    4  C   UNL     1      30.365  43.863  55.633  1.00  0.00     0.062 A 
HETATM    5  C   UNL     1      31.355  43.596  56.627  1.00  0.00     0.101 C 
HETATM    6  N   UNL     1      32.155  43.380  57.439  1.00  0.00    -0.191 NA
HETATM    7  C   UNL     1      30.128  42.977  54.583  1.00  0.00     0.028 A 
HETATM    8  C   UNL     1      29.146  43.282  53.639  1.00  0.00     0.059 A 
ENDROOT
BRANCH   1   9
HETATM    9  O   UNL     1      27.465  44.730  52.837  1.00  0.00    -0.329 OA
BRANCH   9  10
HETATM   10  C   UNL     1      27.325  43.695  51.851  1.00  0.00     0.130 C 
HETATM   11  C   UNL     1      25.881  43.175  51.948  1.00  0.00     0.034 C 
HETATM   12  C   UNL     1      24.846  44.213  51.507  1.00  0.00     0.035 C 
HETATM   13  C   UNL     1      25.152  44.731  50.100  1.00  0.00     0.186 C 
HETATM   14  C   UNL     1      26.565  45.304  50.022  1.00  0.00     0.035 C 
HETATM   15  C   UNL     1      27.596  44.255  50.446  1.00  0.00     0.034 C 
BRANCH  13  16
HETATM   16  N   UNL     1      24.133  45.768  49.746  1.00  0.00    -0.067 N 
HETATM   17  H   UNL     1      23.178  45.426  49.912  1.00  0.00     0.277 HD
HETATM   18  H   UNL     1      24.193  45.943  48.731  1.00  0.00     0.277 HD
BRANCH  16  19
HETATM   19  C   UNL     1      24.294  47.102  50.404  1.00  0.00     0.274 C 
BRANCH  19  20
HETATM   20  C   UNL     1      24.224  48.232  49.425  1.00  0.00     0.004 A 
HETATM   21  C   UNL     1      25.371  48.896  49.018  1.00  0.00     0.113 A 
HETATM   22  C   UNL     1      25.336  49.970  48.161  1.00  0.00     0.105 A 
HETATM   23  O   UNL     1      26.644  48.572  49.388  1.00  0.00    -0.322 OA
HETATM   24  C   UNL     1      24.150  50.445  47.648  1.00  0.00     0.040 A 
HETATM   25  O   UNL     1      26.571  50.469  47.902  1.00  0.00    -0.323 OA
HETATM   26  C   UNL     1      22.972  49.801  48.031  1.00  0.00     0.003 A 
HETATM   27  C   UNL     1      23.005  48.705  48.915  1.00  0.00     0.012 A 
HETATM   28  C   UNL     1      27.392  49.635  48.738  1.00  0.00     0.352 A 
ENDBRANCH  19  20
ENDBRANCH  16  19
ENDBRANCH  13  16
ENDBRANCH   9  10
ENDBRANCH   1   9
TORSDOF 5
ENDMDL
MODEL 3
REMARK VINA RESULT:      -9.2      2.271      8.755
REMARK  5 active torsions:
REMARK  status: ('A' for Active; 'I' for Inactive)
REMARK    1  A    between atoms: C_8  and  C_9 
REMARK    2  A    between atoms: C_9  and  N_10 
REMARK    3  A    between atoms: N_10  and  C_13 
REMARK    4  A    between atoms: C_16  and  O_17 
REMARK    5  A    between atoms: O_17  and  C_18 
ROOT
HETATM    1  C   UNL     1      25.782  47.075  50.500  1.00  0.00     0.164 A 
HETATM    2  N   UNL     1      24.444  47.100  50.330  1.00  0.00    -0.236 NA
HETATM    3  C   UNL     1      23.946  48.085  49.541  1.00  0.00     0.142 A 
HETATM    4  C   UNL     1      24.726  49.050  48.923  1.00  0.00     0.062 A 
HETATM    5  C   UNL     1      24.125  50.055  48.107  1.00  0.00     0.101 C 
HETATM    6  N   UNL     1      23.633  50.873  47.448  1.00  0.00    -0.191 NA
HETATM    7  C   UNL     1      26.105  49.004  49.129  1.00  0.00     0.028 A 
HETATM    8  C   UNL     1      26.643  48.005  49.939  1.00  0.00     0.059 A 
ENDROOT
BRANCH   1   9
HETATM    9  O   UNL     1      26.345  46.114  51.319  1.00  0.00    -0.329 OA
BRANCH   9  10
HETATM   10  C   UNL     1      26.065  44.769  50.903  1.00  0.00     0.130 C 
HETATM   11  C   UNL     1      27.419  44.072  50.696  1.00  0.00     0.034 C 
HETATM   12  C   UNL     1      28.189  43.873  52.005  1.00  0.00     0.035 C 
HETATM   13  C   UNL     1      27.338  43.129  53.036  1.00  0.00     0.186 C 
HETATM   14  C   UNL     1      26.020  43.858  53.286  1.00  0.00     0.035 C 
HETATM   15  C   UNL     1      25.247  44.035  51.977  1.00  0.00     0.034 C 
BRANCH  13  16
HETATM   16  N   UNL     1      28.129  43.005  54.300  1.00  0.00    -0.067 N 
HETATM   17  H   UNL     1      28.023  42.072  54.718  1.00  0.00     0.277 HD
HETATM   18  H   UNL     1      27.737  43.665  54.990  1.00  0.00     0.277 HD
BRANCH  16  19
HETATM   19  C   UNL     1      29.586  43.331  54.201  1.00  0.00     0.274 C 
BRANCH  19  20
HETATM   20  C   UNL     1      30.168  43.744  55.516  1.00  0.00     0.004 A 
HETATM   21  C   UNL     1      29.638  44.808  56.229  1.00  0.00     0.113 A 
HETATM   22  C   UNL     1      30.180  45.245  57.414  1.00  0.00     0.105 A 
HETATM   23  O   UNL     1      28.536  45.528  55.870  1.00  0.00    -0.322 OA
HETATM   24  C   UNL     1      31.285  44.639  57.969  1.00  0.00     0.040 A 
HETATM   25  O   UNL     1      29.507  46.301  57.936  1.00  0.00    -0.323 OA
HETATM   26  C   UNL     1      31.847  43.560  57.283  1.00  0.00     0.003 A 
HETATM   27  C   UNL     1      31.298  43.116  56.065  1.00  0.00     0.012 A 
HETATM   28  C   UNL     1      28.513  46.531  56.922  1.00  0.00     0.352 A 
ENDBRANCH  19  20
ENDBRANCH  16  19
ENDBRANCH  13  16
ENDBRANCH   9  10
ENDBRANCH   1   9
TORSDOF 5
ENDMDL
MODEL 4
REMARK VINA RESULT:      -8.5      1.598      2.293
REMARK  5 active torsions:
REMARK  status: ('A' for Active; 'I' for Inactive)
REMARK    1  A    between atoms: C_8  and  C_9 
REMARK    2  A    between atoms: C_9  and  N_10 
REMARK    3  A    between atoms: N_10  and  C_13 
REMARK    4  A    between atoms: C_16  and  O_17 
REMARK    5  A    between atoms: O_17  and  C_18 
ROOT
HETATM    1  C   UNL     1      28.057  44.469  53.563  1.00  0.00     0.164 A 
HETATM    2  N   UNL     1      28.314  45.394  54.511  1.00  0.00    -0.236 NA
HETATM    3  C   UNL     1      29.315  45.113  55.384  1.00  0.00     0.142 A 
HETATM    4  C   UNL     1      30.062  43.945  55.354  1.00  0.00     0.062 A 
HETATM    5  C   UNL     1      31.100  43.723  56.309  1.00  0.00     0.101 C 
HETATM    6  N   UNL     1      31.939  43.545  57.090  1.00  0.00    -0.191 NA
HETATM    7  C   UNL     1      29.762  43.004  54.370  1.00  0.00     0.028 A 
HETATM    8  C   UNL     1      28.735  43.266  53.463  1.00  0.00     0.059 A 
ENDROOT
BRANCH   1   9
HETATM    9  O   UNL     1      27.027  44.685  52.666  1.00  0.00    -0.329 OA
BRANCH   9  10
HETATM   10  C   UNL     1      26.887  43.641  51.691  1.00  0.00     0.130 C 
HETATM   11  C   UNL     1      25.400  43.250  51.663  1.00  0.00     0.034 C 
HETATM   12  C   UNL     1      24.505  44.361  51.108  1.00  0.00     0.035 C 
HETATM   13  C   UNL     1      24.983  44.812  49.726  1.00  0.00     0.186 C 
HETATM   14  C   UNL     1      26.441  45.259  49.769  1.00  0.00     0.035 C 
HETATM   15  C   UNL     1      27.333  44.137  50.307  1.00  0.00     0.034 C 
BRANCH  13  16
HETATM   16  N   UNL     1      24.096  45.923  49.259  1.00  0.00    -0.067 N 
HETATM   17  H   UNL     1      23.105  45.648  49.286  1.00  0.00     0.277 HD
HETATM   18  H   UNL     1      24.306  46.106  48.266  1.00  0.00     0.277 HD
BRANCH  16  19
HETATM   19  C   UNL     1      24.256  47.234  49.962  1.00  0.00     0.274 C 
BRANCH  19  20
HETATM   20  C   UNL     1      23.696  48.375  49.173  1.00  0.00     0.004 A 
HETATM   21  C   UNL     1      22.400  48.335  48.681  1.00  0.00     0.113 A 
HETATM   22  C   UNL     1      21.873  49.343  47.909  1.00  0.00     0.105 A 
HETATM   23  O   UNL     1      21.503  47.331  48.902  1.00  0.00    -0.322 OA
HETATM   24  C   UNL     1      22.605  50.463  47.586  1.00  0.00     0.040 A 
HETATM   25  O   UNL     1      20.594  49.094  47.532  1.00  0.00    -0.323 OA
HETATM   26  C   UNL     1      23.914  50.544  48.067  1.00  0.00     0.003 A 
HETATM   27  C   UNL     1      24.459  49.509  48.850  1.00  0.00     0.012 A 
HETATM   28  C   UNL     1      20.384  47.787  48.094  1.00  0.00     0.352 A 
ENDBRANCH  19  20
ENDBRANCH  16  19
ENDBRANCH  13  16
ENDBRANCH   9  10
ENDBRANCH   1   9
TORSDOF 5
ENDMDL
MODEL 5
REMARK VINA RESULT:      -8.1      2.490      4.118
REMARK  5 active torsions:
REMARK  status: ('A' for Active; 'I' for Inactive)
REMARK    1  A    between atoms: C_8  and  C_9 
REMARK    2  A    between atoms: C_9  and  N_10 
REMARK    3  A    between atoms: N_10  and  C_13 
REMARK    4  A    between atoms: C_16  and  O_17 
REMARK    5  A    between atoms: O_17  and  C_18 
ROOT
HETATM    1  C   UNL     1      26.955  44.527  52.592  1.00  0.00     0.164 A 
HETATM    2  N   UNL     1      27.097  45.231  53.734  1.00  0.00    -0.236 NA
HETATM    3  C   UNL     1      28.162  44.921  54.515  1.00  0.00     0.142 A 
HETATM    4  C   UNL     1      29.085  43.932  54.208  1.00  0.00     0.062 A 
HETATM    5  C   UNL     1      30.180  43.665  55.084  1.00  0.00     0.101 C 
HETATM    6  N   UNL     1      31.066  43.448  55.800  1.00  0.00    -0.191 NA
HETATM    7  C   UNL     1      28.902  43.214  53.027  1.00  0.00     0.028 A 
HETATM    8  C   UNL     1      27.813  43.510  52.207  1.00  0.00     0.059 A 
ENDROOT
BRANCH   1   9
HETATM    9  O   UNL     1      25.871  44.777  51.771  1.00  0.00    -0.329 OA
BRANCH   9  10
HETATM   10  C   UNL     1      26.227  44.972  50.393  1.00  0.00     0.130 C 
HETATM   11  C   UNL     1      24.960  44.711  49.561  1.00  0.00     0.034 C 
HETATM   12  C   UNL     1      23.874  45.767  49.789  1.00  0.00     0.035 C 
HETATM   13  C   UNL     1      24.417  47.176  49.541  1.00  0.00     0.186 C 
HETATM   14  C   UNL     1      25.638  47.454  50.414  1.00  0.00     0.035 C 
HETATM   15  C   UNL     1      26.726  46.407  50.167  1.00  0.00     0.034 C 
BRANCH  13  16
HETATM   16  N   UNL     1      23.324  48.159  49.819  1.00  0.00    -0.067 N 
HETATM   17  H   UNL     1      23.410  48.557  50.763  1.00  0.00     0.277 HD
HETATM   18  H   UNL     1      22.426  47.651  49.813  1.00  0.00     0.277 HD
BRANCH  16  19
HETATM   19  C   UNL     1      23.172  49.274  48.833  1.00  0.00     0.274 C 
BRANCH  19  20
HETATM   20  C   UNL     1      21.778  49.816  48.796  1.00  0.00     0.004 A 
HETATM   21  C   UNL     1      20.682  48.968  48.802  1.00  0.00     0.113 A 
HETATM   22  C   UNL     1      19.390  49.432  48.717  1.00  0.00     0.105 A 
HETATM   23  O   UNL     1      20.736  47.608  48.905  1.00  0.00    -0.322 OA
HETATM   24  C   UNL     1      19.111  50.777  48.630  1.00  0.00     0.040 A 
HETATM   25  O   UNL     1      18.476  48.429  48.734  1.00  0.00    -0.323 OA
HETATM   26  C   UNL     1      20.189  51.665  48.625  1.00  0.00     0.003 A 
HETATM   27  C   UNL     1      21.513  51.192  48.704  1.00  0.00     0.012 A 
HETATM   28  C   UNL     1      19.328  47.271  48.775  1.00  0.00     0.352 A 
ENDBRANCH  19  20
ENDBRANCH  16  19
ENDBRANCH  13  16
ENDBRANCH   9  10
ENDBRANCH   1   9
TORSDOF 5
ENDMDL
MODEL 6
REMARK VINA RESULT:      -8.1      2.736      8.484
REMARK  5 active torsions:
REMARK  status: ('A' for Active; 'I' for Inactive)
REMARK    1  A    between atoms: C_8  and  C_9 
REMARK    2  A    between atoms: C_9  and  N_10 
REMARK    3  A    between atoms: N_10  and  C_13 
REMARK    4  A    between atoms: C_16  and  O_17 
REMARK    5  A    between atoms: O_17  and  C_18 
ROOT
HETATM    1  C   UNL     1      24.027  46.197  49.671  1.00  0.00     0.164 A 
HETATM    2  N   UNL     1      22.988  45.932  48.853  1.00  0.00    -0.236 NA
HETATM    3  C   UNL     1      22.307  46.999  48.364  1.00  0.00     0.142 A 
HETATM    4  C   UNL     1      22.615  48.317  48.665  1.00  0.00     0.062 A 
HETATM    5  C   UNL     1      21.848  49.386  48.110  1.00  0.00     0.101 C 
HETATM    6  N   UNL     1      21.220  50.251  47.660  1.00  0.00    -0.191 NA
HETATM    7  C   UNL     1      23.687  48.557  49.524  1.00  0.00     0.028 A 
HETATM    8  C   UNL     1      24.402  47.478  50.044  1.00  0.00     0.059 A 
ENDROOT
BRANCH   1   9
HETATM    9  O   UNL     1      24.739  45.150  50.226  1.00  0.00    -0.329 OA
BRANCH   9  10
HETATM   10  C   UNL     1      25.679  44.551  49.320  1.00  0.00     0.130 C 
HETATM   11  C   UNL     1      27.084  44.938  49.810  1.00  0.00     0.034 C 
HETATM   12  C   UNL     1      27.442  44.293  51.152  1.00  0.00     0.035 C 
HETATM   13  C   UNL     1      27.277  42.773  51.094  1.00  0.00     0.186 C 
HETATM   14  C   UNL     1      25.862  42.391  50.667  1.00  0.00     0.035 C 
HETATM   15  C   UNL     1      25.518  43.023  49.315  1.00  0.00     0.034 C 
BRANCH  13  16
HETATM   16  N   UNL     1      27.600  42.210  52.442  1.00  0.00    -0.067 N 
HETATM   17  H   UNL     1      28.599  41.980  52.523  1.00  0.00     0.277 HD
HETATM   18  H   UNL     1      27.099  41.314  52.544  1.00  0.00     0.277 HD
BRANCH  16  19
HETATM   19  C   UNL     1      27.196  43.043  53.618  1.00  0.00     0.274 C 
BRANCH  19  20
HETATM   20  C   UNL     1      28.372  43.513  54.414  1.00  0.00     0.004 A 
HETATM   21  C   UNL     1      28.376  44.765  55.011  1.00  0.00     0.113 A 
HETATM   22  C   UNL     1      29.461  45.246  55.705  1.00  0.00     0.105 A 
HETATM   23  O   UNL     1      27.335  45.646  55.004  1.00  0.00    -0.322 OA
HETATM   24  C   UNL     1      30.610  44.504  55.854  1.00  0.00     0.040 A 
HETATM   25  O   UNL     1      29.250  46.492  56.200  1.00  0.00    -0.323 OA
HETATM   26  C   UNL     1      30.644  43.235  55.270  1.00  0.00     0.003 A 
HETATM   27  C   UNL     1      29.538  42.743  54.553  1.00  0.00     0.012 A 
HETATM   28  C   UNL     1      27.935  46.778  55.691  1.00  0.00     0.352 A 
ENDBRANCH  19  20
ENDBRANCH  16  19
ENDBRANCH  13  16
ENDBRANCH   9  10
ENDBRANCH   1   9
TORSDOF 5
ENDMDL
MODEL 7
REMARK VINA RESULT:      -7.9      6.071     11.895
REMARK  5 active torsions:
REMARK  status: ('A' for Active; 'I' for Inactive)
REMARK    1  A    between atoms: C_8  and  C_9 
REMARK    2  A    between atoms: C_9  and  N_10 
REMARK    3  A    between atoms: N_10  and  C_13 
REMARK    4  A    between atoms: C_16  and  O_17 
REMARK    5  A    between atoms: O_17  and  C_18 
ROOT
HETATM    1  C   UNL     1      16.623  51.787  48.935  1.00  0.00     0.164 A 
HETATM    2  N   UNL     1      16.461  52.241  50.195  1.00  0.00    -0.236 NA
HETATM    3  C   UNL     1      15.489  53.167  50.392  1.00  0.00     0.142 A 
HETATM    4  C   UNL     1      14.680  53.665  49.382  1.00  0.00     0.062 A 
HETATM    5  C   UNL     1      13.678  54.640  49.670  1.00  0.00     0.101 C 
HETATM    6  N   UNL     1      12.868  55.437  49.907  1.00  0.00    -0.191 NA
HETATM    7  C   UNL     1      14.881  53.185  48.088  1.00  0.00     0.028 A 
HETATM    8  C   UNL     1      15.877  52.236  47.858  1.00  0.00     0.059 A 
ENDROOT
BRANCH   1   9
HETATM    9  O   UNL     1      17.619  50.866  48.668  1.00  0.00    -0.329 OA
BRANCH   9  10
HETATM   10  C   UNL     1      18.589  51.329  47.715  1.00  0.00     0.130 C 
HETATM   11  C   UNL     1      19.644  52.124  48.501  1.00  0.00     0.034 C 
HETATM   12  C   UNL     1      20.476  51.242  49.436  1.00  0.00     0.035 C 
HETATM   13  C   UNL     1      21.115  50.081  48.672  1.00  0.00     0.186 C 
HETATM   14  C   UNL     1      20.058  49.256  47.944  1.00  0.00     0.035 C 
HETATM   15  C   UNL     1      19.243  50.140  46.996  1.00  0.00     0.034 C 
BRANCH  13  16
HETATM   16  N   UNL     1      21.876  49.236  49.646  1.00  0.00    -0.067 N 
HETATM   17  H   UNL     1      21.293  48.979  50.453  1.00  0.00     0.277 HD
HETATM   18  H   UNL     1      22.647  49.804  50.030  1.00  0.00     0.277 HD
BRANCH  16  19
HETATM   19  C   UNL     1      22.512  48.001  49.091  1.00  0.00     0.274 C 
BRANCH  19  20
HETATM   20  C   UNL     1      23.947  47.870  49.494  1.00  0.00     0.004 A 
HETATM   21  C   UNL     1      24.915  48.715  48.971  1.00  0.00     0.113 A 
HETATM   22  C   UNL     1      26.249  48.588  49.281  1.00  0.00     0.105 A 
HETATM   23  O   UNL     1      24.678  49.757  48.124  1.00  0.00    -0.322 OA
HETATM   24  C   UNL     1      26.701  47.612  50.140  1.00  0.00     0.040 A 
HETATM   25  O   UNL     1      27.018  49.514  48.654  1.00  0.00    -0.323 OA
HETATM   26  C   UNL     1      25.756  46.743  50.691  1.00  0.00     0.003 A 
HETATM   27  C   UNL     1      24.391  46.866  50.369  1.00  0.00     0.012 A 
HETATM   28  C   UNL     1      26.036  50.206  47.862  1.00  0.00     0.352 A 
ENDBRANCH  19  20
ENDBRANCH  16  19
ENDBRANCH  13  16
ENDBRANCH   9  10
ENDBRANCH   1   9
TORSDOF 5
ENDMDL
MODEL 8
REMARK VINA RESULT:      -7.9      4.651      8.859
REMARK  5 active torsions:
REMARK  status: ('A' for Active; 'I' for Inactive)
REMARK    1  A    between atoms: C_8  and  C_9 
REMARK    2  A    between atoms: C_9  and  N_10 
REMARK    3  A    between atoms: N_10  and  C_13 
REMARK    4  A    between atoms: C_16  and  O_17 
REMARK    5  A    between atoms: O_17  and  C_18 
ROOT
HETATM    1  C   UNL     1      28.029  40.709  47.479  1.00  0.00     0.164 A 
HETATM    2  N   UNL     1      28.065  41.352  46.294  1.00  0.00    -0.236 NA
HETATM    3  C   UNL     1      28.154  40.580  45.181  1.00  0.00     0.142 A 
HETATM    4  C   UNL     1      28.217  39.195  45.204  1.00  0.00     0.062 A 
HETATM    5  C   UNL     1      28.311  38.453  43.988  1.00  0.00     0.101 C 
HETATM    6  N   UNL     1      28.391  37.854  42.998  1.00  0.00    -0.191 NA
HETATM    7  C   UNL     1      28.192  38.562  46.446  1.00  0.00     0.028 A 
HETATM    8  C   UNL     1      28.105  39.332  47.606  1.00  0.00     0.059 A 
ENDROOT
BRANCH   1   9
HETATM    9  O   UNL     1      27.971  41.444  48.649  1.00  0.00    -0.329 OA
BRANCH   9  10
HETATM   10  C   UNL     1      26.650  41.903  48.974  1.00  0.00     0.130 C 
HETATM   11  C   UNL     1      26.065  40.906  49.987  1.00  0.00     0.034 C 
HETATM   12  C   UNL     1      26.785  40.944  51.339  1.00  0.00     0.035 C 
HETATM   13  C   UNL     1      26.806  42.364  51.910  1.00  0.00     0.186 C 
HETATM   14  C   UNL     1      27.444  43.341  50.926  1.00  0.00     0.035 C 
HETATM   15  C   UNL     1      26.708  43.312  49.584  1.00  0.00     0.034 C 
BRANCH  13  16
HETATM   16  N   UNL     1      27.556  42.341  53.205  1.00  0.00    -0.067 N 
HETATM   17  H   UNL     1      27.451  41.436  53.682  1.00  0.00     0.277 HD
HETATM   18  H   UNL     1      27.130  43.038  53.835  1.00  0.00     0.277 HD
BRANCH  16  19
HETATM   19  C   UNL     1      29.010  42.687  53.130  1.00  0.00     0.274 C 
BRANCH  19  20
HETATM   20  C   UNL     1      29.453  43.534  54.281  1.00  0.00     0.004 A 
HETATM   21  C   UNL     1      28.793  44.712  54.596  1.00  0.00     0.113 A 
HETATM   22  C   UNL     1      29.206  45.539  55.614  1.00  0.00     0.105 A 
HETATM   23  O   UNL     1      27.676  45.183  53.969  1.00  0.00    -0.322 OA
HETATM   24  C   UNL     1      30.302  45.236  56.390  1.00  0.00     0.040 A 
HETATM   25  O   UNL     1      28.420  46.638  55.742  1.00  0.00    -0.323 OA
HETATM   26  C   UNL     1      30.991  44.055  56.107  1.00  0.00     0.003 A 
HETATM   27  C   UNL     1      30.575  43.211  55.060  1.00  0.00     0.012 A 
HETATM   28  C   UNL     1      27.498  46.454  54.653  1.00  0.00     0.352 A 
ENDBRANCH  19  20
ENDBRANCH  16  19
ENDBRANCH  13  16
ENDBRANCH   9  10
ENDBRANCH   1   9
TORSDOF 5
ENDMDL
MODEL 9
REMARK VINA RESULT:      -7.8     11.254     12.565
REMARK  5 active torsions:
REMARK  status: ('A' for Active; 'I' for Inactive)
REMARK    1  A    between atoms: C_8  and  C_9 
REMARK    2  A    between atoms: C_9  and  N_10 
REMARK    3  A    between atoms: N_10  and  C_13 
REMARK    4  A    between atoms: C_16  and  O_17 
REMARK    5  A    between atoms: O_17  and  C_18 
ROOT
HETATM    1  C   UNL     1      33.373  50.705  42.183  1.00  0.00     0.164 A 
HETATM    2  N   UNL     1      34.622  50.687  41.673  1.00  0.00    -0.236 NA
HETATM    3  C   UNL     1      35.582  51.329  42.385  1.00  0.00     0.142 A 
HETATM    4  C   UNL     1      35.345  51.996  43.578  1.00  0.00     0.062 A 
HETATM    5  C   UNL     1      36.411  52.649  44.267  1.00  0.00     0.101 C 
HETATM    6  N   UNL     1      37.279  53.183  44.822  1.00  0.00    -0.191 NA
HETATM    7  C   UNL     1      34.041  52.007  44.070  1.00  0.00     0.028 A 
HETATM    8  C   UNL     1      33.034  51.358  43.357  1.00  0.00     0.059 A 
ENDROOT
BRANCH   1   9
HETATM    9  O   UNL     1      32.346  50.095  41.486  1.00  0.00    -0.329 OA
BRANCH   9  10
HETATM   10  C   UNL     1      32.295  48.672  41.668  1.00  0.00     0.130 C 
HETATM   11  C   UNL     1      31.313  48.401  42.819  1.00  0.00     0.034 C 
HETATM   12  C   UNL     1      29.867  48.754  42.459  1.00  0.00     0.035 C 
HETATM   13  C   UNL     1      29.428  48.037  41.180  1.00  0.00     0.186 C 
HETATM   14  C   UNL     1      30.370  48.358  40.023  1.00  0.00     0.035 C 
HETATM   15  C   UNL     1      31.811  47.985  40.381  1.00  0.00     0.034 C 
BRANCH  13  16
HETATM   16  N   UNL     1      28.027  48.455  40.862  1.00  0.00    -0.067 N 
HETATM   17  H   UNL     1      27.343  47.782  41.230  1.00  0.00     0.277 HD
HETATM   18  H   UNL     1      27.912  48.436  39.837  1.00  0.00     0.277 HD
BRANCH  16  19
HETATM   19  C   UNL     1      27.635  49.833  41.294  1.00  0.00     0.274 C 
BRANCH  19  20
HETATM   20  C   UNL     1      28.075  50.881  40.321  1.00  0.00     0.004 A 
HETATM   21  C   UNL     1      28.972  51.870  40.694  1.00  0.00     0.113 A 
HETATM   22  C   UNL     1      29.356  52.877  39.840  1.00  0.00     0.105 A 
HETATM   23  O   UNL     1      29.583  51.964  41.910  1.00  0.00    -0.322 OA
HETATM   24  C   UNL     1      28.874  52.955  38.553  1.00  0.00     0.040 A 
HETATM   25  O   UNL     1      30.234  53.738  40.414  1.00  0.00    -0.323 OA
HETATM   26  C   UNL     1      27.971  51.974  38.137  1.00  0.00     0.003 A 
HETATM   27  C   UNL     1      27.570  50.946  39.013  1.00  0.00     0.012 A 
HETATM   28  C   UNL     1      30.320  53.206  41.748  1.00  0.00     0.352 A 
ENDBRANCH  19  20
ENDBRANCH  16  19
ENDBRANCH  13  16
ENDBRANCH   9  10
ENDBRANCH   1   9
TORSDOF 5
ENDMDL
MODEL 10
REMARK VINA RESULT:      -7.8      6.149     11.880
REMARK  5 active torsions:
REMARK  status: ('A' for Active; 'I' for Inactive)
REMARK    1  A    between atoms: C_8  and  C_9 
REMARK    2  A    between atoms: C_9  and  N_10 
REMARK    3  A    between atoms: N_10  and  C_13 
REMARK    4  A    between atoms: C_16  and  O_17 
REMARK    5  A    between atoms: O_17  and  C_18 
ROOT
HETATM    1  C   UNL     1      17.006  52.500  48.912  1.00  0.00     0.164 A 
HETATM    2  N   UNL     1      16.049  52.528  47.962  1.00  0.00    -0.236 NA
HETATM    3  C   UNL     1      14.827  52.984  48.338  1.00  0.00     0.142 A 
HETATM    4  C   UNL     1      14.521  53.404  49.624  1.00  0.00     0.062 A 
HETATM    5  C   UNL     1      13.210  53.871  49.941  1.00  0.00     0.101 C 
HETATM    6  N   UNL     1      12.142  54.245  50.196  1.00  0.00    -0.191 NA
HETATM    7  C   UNL     1      15.529  53.350  50.586  1.00  0.00     0.028 A 
HETATM    8  C   UNL     1      16.793  52.881  50.227  1.00  0.00     0.059 A 
ENDROOT
BRANCH   1   9
HETATM    9  O   UNL     1      18.262  52.015  48.596  1.00  0.00    -0.329 OA
BRANCH   9  10
HETATM   10  C   UNL     1      18.429  50.619  48.889  1.00  0.00     0.130 C 
HETATM   11  C   UNL     1      19.209  50.004  47.716  1.00  0.00     0.034 C 
HETATM   12  C   UNL     1      20.651  50.513  47.631  1.00  0.00     0.035 C 
HETATM   13  C   UNL     1      21.388  50.299  48.956  1.00  0.00     0.186 C 
HETATM   14  C   UNL     1      20.643  50.963  50.110  1.00  0.00     0.035 C 
HETATM   15  C   UNL     1      19.209  50.436  50.201  1.00  0.00     0.034 C 
BRANCH  13  16
HETATM   16  N   UNL     1      22.771  50.852  48.821  1.00  0.00    -0.067 N 
HETATM   17  H   UNL     1      23.277  50.817  49.715  1.00  0.00     0.277 HD
HETATM   18  H   UNL     1      22.695  51.853  48.584  1.00  0.00     0.277 HD
BRANCH  16  19
HETATM   19  C   UNL     1      23.625  50.241  47.755  1.00  0.00     0.274 C 
BRANCH  19  20
HETATM   20  C   UNL     1      24.904  49.687  48.298  1.00  0.00     0.004 A 
HETATM   21  C   UNL     1      24.906  48.570  49.119  1.00  0.00     0.113 A 
HETATM   22  C   UNL     1      26.058  48.066  49.676  1.00  0.00     0.105 A 
HETATM   23  O   UNL     1      23.806  47.838  49.459  1.00  0.00    -0.322 OA
HETATM   24  C   UNL     1      27.286  48.643  49.440  1.00  0.00     0.040 A 
HETATM   25  O   UNL     1      25.828  46.975  50.449  1.00  0.00    -0.323 OA
HETATM   26  C   UNL     1      27.326  49.769  48.614  1.00  0.00     0.003 A 
HETATM   27  C   UNL     1      26.147  50.291  48.049  1.00  0.00     0.012 A 
HETATM   28  C   UNL     1      24.395  46.875  50.375  1.00  0.00     0.352 A 
ENDBRANCH  19  20
ENDBRANCH  16  19
ENDBRANCH  13  16
ENDBRANCH   9  10
ENDBRANCH   1   9
TORSDOF 5
ENDMDL
