MODEL 1
REMARK VINA RESULT:      -9.5      0.000      0.000
REMARK  8 active torsions:
REMARK  status: ('A' for Active; 'I' for Inactive)
REMARK    1  A    between atoms: C_4  and  O_5 
REMARK    2  A    between atoms: O_5  and  C_6 
REMARK    3  A    between atoms: C_8  and  C_9 
REMARK    4  A    between atoms: C_9  and  N_10 
REMARK    5  A    between atoms: C_9  and  C_14 
REMARK       I    between atoms: N_10  and  C_11 
REMARK       I    between atoms: C_11  and  N_12 
REMARK    6  A    between atoms: C_14  and  C_15 
REMARK       I    between atoms: C_15  and  N_16 
REMARK    7  A    between atoms: N_16  and  N_17 
REMARK       I    between atoms: N_17  and  C_18 
REMARK    8  A    between atoms: C_18  and  C_19 
ROOT
HETATM    1  C   UNL     1      25.501  46.669  50.925  1.00  0.00     0.128 C 
ENDROOT
BRANCH   1   2
HETATM    2  C   UNL     1      25.850  47.808  49.956  1.00  0.00    -0.032 A 
HETATM    3  C   UNL     1      24.892  48.398  49.111  1.00  0.00     0.046 A 
HETATM    4  C   UNL     1      25.220  49.458  48.257  1.00  0.00     0.076 A 
HETATM    5  C   UNL     1      26.521  49.958  48.243  1.00  0.00     0.037 A 
HETATM    6  C   UNL     1      27.499  49.356  49.032  1.00  0.00     0.003 A 
HETATM    7  C   UNL     1      27.170  48.284  49.867  1.00  0.00     0.009 A 
BRANCH   4   8
HETATM    8  O   UNL     1      24.168  49.978  47.534  1.00  0.00    -0.311 OA
BRANCH   8   9
HETATM    9  C   UNL     1      22.923  50.034  48.110  1.00  0.00     0.076 A 
HETATM   10  C   UNL     1      21.887  49.169  47.747  1.00  0.00     0.037 A 
HETATM   11  C   UNL     1      20.658  49.250  48.404  1.00  0.00     0.003 A 
HETATM   12  C   UNL     1      20.476  50.171  49.436  1.00  0.00     0.000 A 
HETATM   13  C   UNL     1      21.523  51.010  49.819  1.00  0.00     0.003 A 
HETATM   14  C   UNL     1      22.750  50.936  49.160  1.00  0.00     0.037 A 
ENDBRANCH   8   9
ENDBRANCH   4   8
ENDBRANCH   1   2
BRANCH   1  15
HETATM   15  N   UNL     1      24.278  45.986  50.514  1.00  0.00    -0.334 N 
HETATM   16  C   UNL     1      24.071  44.670  50.770  1.00  0.00     0.314 C 
HETATM   17  N   UNL     1      22.865  44.234  50.340  1.00  0.00    -0.352 N 
HETATM   18  O   UNL     1      24.866  43.942  51.345  1.00  0.00    -0.248 OA
HETATM   19  H   UNL     1      22.515  44.617  49.475  1.00  0.00     0.160 HD
HETATM   20  H   UNL     1      22.741  43.232  50.436  1.00  0.00     0.160 HD
HETATM   21  H   UNL     1      23.453  46.549  50.354  1.00  0.00     0.165 HD
ENDBRANCH   1  15
BRANCH   1  22
HETATM   22  C   UNL     1      25.375  47.193  52.363  1.00  0.00     0.134 C 
BRANCH  22  23
HETATM   23  C   UNL     1      26.389  46.722  53.383  1.00  0.00     0.238 C 
HETATM   24  N   UNL     1      26.592  45.363  53.492  1.00  0.00    -0.267 N 
HETATM   25  H   UNL     1      25.816  44.702  53.376  1.00  0.00     0.190 HD
HETATM   26  O   UNL     1      27.089  47.534  53.994  1.00  0.00    -0.272 OA
BRANCH  24  27
HETATM   27  N   UNL     1      27.561  44.962  54.430  1.00  0.00    -0.262 N 
HETATM   28  C   UNL     1      28.707  44.310  54.018  1.00  0.00     0.293 C 
HETATM   29  O   UNL     1      28.879  43.934  52.860  1.00  0.00    -0.264 OA
HETATM   30  H   UNL     1      27.485  45.346  55.371  1.00  0.00     0.190 HD
BRANCH  28  31
HETATM   31  C   UNL     1      29.678  44.126  55.076  1.00  0.00     0.144 A 
HETATM   32  O   UNL     1      29.786  45.070  56.067  1.00  0.00    -0.317 OA
HETATM   33  C   UNL     1      30.773  44.662  56.905  1.00  0.00     0.143 A 
HETATM   34  C   UNL     1      31.303  43.467  56.480  1.00  0.00     0.027 A 
HETATM   35  C   UNL     1      30.600  43.121  55.302  1.00  0.00     0.045 A 
ENDBRANCH  28  31
ENDBRANCH  24  27
ENDBRANCH  22  23
ENDBRANCH   1  22
TORSDOF 8
ENDMDL
MODEL 2
REMARK VINA RESULT:      -9.4      2.496      9.035
REMARK  8 active torsions:
REMARK  status: ('A' for Active; 'I' for Inactive)
REMARK    1  A    between atoms: C_4  and  O_5 
REMARK    2  A    between atoms: O_5  and  C_6 
REMARK    3  A    between atoms: C_8  and  C_9 
REMARK    4  A    between atoms: C_9  and  N_10 
REMARK    5  A    between atoms: C_9  and  C_14 
REMARK       I    between atoms: N_10  and  C_11 
REMARK       I    between atoms: C_11  and  N_12 
REMARK    6  A    between atoms: C_14  and  C_15 
REMARK       I    between atoms: C_15  and  N_16 
REMARK    7  A    between atoms: N_16  and  N_17 
REMARK       I    between atoms: N_17  and  C_18 
REMARK    8  A    between atoms: C_18  and  C_19 
ROOT
HETATM    1  C   UNL     1      26.904  43.162  51.246  1.00  0.00     0.128 C 
ENDROOT
BRANCH   1   2
HETATM    2  C   UNL     1      26.807  43.922  52.577  1.00  0.00    -0.032 A 
HETATM    3  C   UNL     1      27.927  44.513  53.190  1.00  0.00     0.046 A 
HETATM    4  C   UNL     1      27.815  45.231  54.387  1.00  0.00     0.076 A 
HETATM    5  C   UNL     1      26.568  45.380  54.989  1.00  0.00     0.037 A 
HETATM    6  C   UNL     1      25.453  44.760  54.429  1.00  0.00     0.003 A 
HETATM    7  C   UNL     1      25.574  44.027  53.246  1.00  0.00     0.009 A 
BRANCH   4   8
HETATM    8  O   UNL     1      28.984  45.807  54.838  1.00  0.00    -0.311 OA
BRANCH   8   9
HETATM    9  C   UNL     1      29.747  45.135  55.760  1.00  0.00     0.076 A 
HETATM   10  C   UNL     1      30.435  43.959  55.453  1.00  0.00     0.037 A 
HETATM   11  C   UNL     1      31.230  43.349  56.425  1.00  0.00     0.003 A 
HETATM   12  C   UNL     1      31.358  43.928  57.688  1.00  0.00     0.000 A 
HETATM   13  C   UNL     1      30.697  45.121  57.982  1.00  0.00     0.003 A 
HETATM   14  C   UNL     1      29.896  45.729  57.014  1.00  0.00     0.037 A 
ENDBRANCH   8   9
ENDBRANCH   4   8
ENDBRANCH   1   2
BRANCH   1  15
HETATM   15  N   UNL     1      27.942  42.137  51.300  1.00  0.00    -0.334 N 
HETATM   16  C   UNL     1      27.655  40.818  51.162  1.00  0.00     0.314 C 
HETATM   17  N   UNL     1      28.756  40.033  51.207  1.00  0.00    -0.352 N 
HETATM   18  O   UNL     1      26.533  40.366  50.990  1.00  0.00    -0.248 OA
HETATM   19  H   UNL     1      29.491  40.302  51.844  1.00  0.00     0.160 HD
HETATM   20  H   UNL     1      28.544  39.042  51.206  1.00  0.00     0.160 HD
HETATM   21  H   UNL     1      28.892  42.416  51.096  1.00  0.00     0.165 HD
ENDBRANCH   1  15
BRANCH   1  22
HETATM   22  C   UNL     1      27.155  44.130  50.080  1.00  0.00     0.134 C 
BRANCH  22  23
HETATM   23  C   UNL     1      26.137  45.221  49.829  1.00  0.00     0.238 C 
HETATM   24  N   UNL     1      26.462  46.496  50.238  1.00  0.00    -0.267 N 
HETATM   25  H   UNL     1      27.003  46.653  51.096  1.00  0.00     0.190 HD
HETATM   26  O   UNL     1      25.118  44.989  49.171  1.00  0.00    -0.272 OA
BRANCH  24  27
HETATM   27  N   UNL     1      25.504  47.489  49.965  1.00  0.00    -0.262 N 
HETATM   28  C   UNL     1      25.841  48.599  49.213  1.00  0.00     0.293 C 
HETATM   29  O   UNL     1      26.995  48.841  48.864  1.00  0.00    -0.264 OA
HETATM   30  H   UNL     1      24.529  47.263  50.158  1.00  0.00     0.190 HD
BRANCH  28  31
HETATM   31  C   UNL     1      24.706  49.432  48.873  1.00  0.00     0.144 A 
HETATM   32  O   UNL     1      23.593  49.419  49.676  1.00  0.00    -0.317 OA
HETATM   33  C   UNL     1      22.687  50.264  49.122  1.00  0.00     0.143 A 
HETATM   34  C   UNL     1      23.194  50.830  47.976  1.00  0.00     0.027 A 
HETATM   35  C   UNL     1      24.494  50.294  47.815  1.00  0.00     0.045 A 
ENDBRANCH  28  31
ENDBRANCH  24  27
ENDBRANCH  22  23
ENDBRANCH   1  22
TORSDOF 8
ENDMDL
MODEL 3
REMARK VINA RESULT:      -9.3      2.528      9.858
REMARK  8 active torsions:
REMARK  status: ('A' for Active; 'I' for Inactive)
REMARK    1  A    between atoms: C_4  and  O_5 
REMARK    2  A    between atoms: O_5  and  C_6 
REMARK    3  A    between atoms: C_8  and  C_9 
REMARK    4  A    between atoms: C_9  and  N_10 
REMARK    5  A    between atoms: C_9  and  C_14 
REMARK       I    between atoms: N_10  and  C_11 
REMARK       I    between atoms: C_11  and  N_12 
REMARK    6  A    between atoms: C_14  and  C_15 
REMARK       I    between atoms: C_15  and  N_16 
REMARK    7  A    between atoms: N_16  and  N_17 
REMARK       I    between atoms: N_17  and  C_18 
REMARK    8  A    between atoms: C_18  and  C_19 
ROOT
HETATM    1  C   UNL     1      26.028  46.864  50.249  1.00  0.00     0.128 C 
ENDROOT
BRANCH   1   2
HETATM    2  C   UNL     1      26.138  46.575  51.753  1.00  0.00    -0.032 A 
HETATM    3  C   UNL     1      26.762  45.417  52.253  1.00  0.00     0.046 A 
HETATM    4  C   UNL     1      26.883  45.185  53.629  1.00  0.00     0.076 A 
HETATM    5  C   UNL     1      26.388  46.120  54.534  1.00  0.00     0.037 A 
HETATM    6  C   UNL     1      25.720  47.249  54.063  1.00  0.00     0.003 A 
HETATM    7  C   UNL     1      25.583  47.465  52.690  1.00  0.00     0.009 A 
BRANCH   4   8
HETATM    8  O   UNL     1      27.572  44.041  53.973  1.00  0.00    -0.311 OA
BRANCH   8   9
HETATM    9  C   UNL     1      28.753  44.154  54.664  1.00  0.00     0.076 A 
HETATM   10  C   UNL     1      29.078  45.285  55.417  1.00  0.00     0.037 A 
HETATM   11  C   UNL     1      30.276  45.318  56.131  1.00  0.00     0.003 A 
HETATM   12  C   UNL     1      31.130  44.215  56.116  1.00  0.00     0.000 A 
HETATM   13  C   UNL     1      30.787  43.073  55.391  1.00  0.00     0.003 A 
HETATM   14  C   UNL     1      29.593  43.041  54.670  1.00  0.00     0.037 A 
ENDBRANCH   8   9
ENDBRANCH   4   8
ENDBRANCH   1   2
BRANCH   1  15
HETATM   15  N   UNL     1      26.532  48.196  49.931  1.00  0.00    -0.334 N 
HETATM   16  C   UNL     1      27.621  48.382  49.143  1.00  0.00     0.314 C 
HETATM   17  N   UNL     1      27.907  49.688  48.940  1.00  0.00    -0.352 N 
HETATM   18  O   UNL     1      28.276  47.480  48.640  1.00  0.00    -0.248 OA
HETATM   19  H   UNL     1      27.758  50.320  49.713  1.00  0.00     0.160 HD
HETATM   20  H   UNL     1      28.775  49.837  48.438  1.00  0.00     0.160 HD
HETATM   21  H   UNL     1      25.890  48.974  50.003  1.00  0.00     0.165 HD
ENDBRANCH   1  15
BRANCH   1  22
HETATM   22  C   UNL     1      24.580  46.700  49.764  1.00  0.00     0.134 C 
BRANCH  22  23
HETATM   23  C   UNL     1      23.771  47.951  49.500  1.00  0.00     0.238 C 
HETATM   24  N   UNL     1      22.399  47.826  49.481  1.00  0.00    -0.267 N 
HETATM   25  H   UNL     1      21.951  46.983  49.106  1.00  0.00     0.190 HD
HETATM   26  O   UNL     1      24.324  49.053  49.432  1.00  0.00    -0.272 OA
BRANCH  24  27
HETATM   27  N   UNL     1      21.679  49.014  49.260  1.00  0.00    -0.262 N 
HETATM   28  C   UNL     1      20.539  49.008  48.480  1.00  0.00     0.293 C 
HETATM   29  O   UNL     1      20.174  48.021  47.843  1.00  0.00    -0.264 OA
HETATM   30  H   UNL     1      21.906  49.813  49.851  1.00  0.00     0.190 HD
BRANCH  28  31
HETATM   31  C   UNL     1      19.821  50.265  48.497  1.00  0.00     0.144 A 
HETATM   32  O   UNL     1      18.456  50.267  48.351  1.00  0.00    -0.317 OA
HETATM   33  C   UNL     1      18.049  51.561  48.385  1.00  0.00     0.143 A 
HETATM   34  C   UNL     1      19.124  52.400  48.556  1.00  0.00     0.027 A 
HETATM   35  C   UNL     1      20.267  51.567  48.628  1.00  0.00     0.045 A 
ENDBRANCH  28  31
ENDBRANCH  24  27
ENDBRANCH  22  23
ENDBRANCH   1  22
TORSDOF 8
ENDMDL
MODEL 4
REMARK VINA RESULT:      -9.3      2.257      9.472
REMARK  8 active torsions:
REMARK  status: ('A' for Active; 'I' for Inactive)
REMARK    1  A    between atoms: C_4  and  O_5 
REMARK    2  A    between atoms: O_5  and  C_6 
REMARK    3  A    between atoms: C_8  and  C_9 
REMARK    4  A    between atoms: C_9  and  N_10 
REMARK    5  A    between atoms: C_9  and  C_14 
REMARK       I    between atoms: N_10  and  C_11 
REMARK       I    between atoms: C_11  and  N_12 
REMARK    6  A    between atoms: C_14  and  C_15 
REMARK       I    between atoms: C_15  and  N_16 
REMARK    7  A    between atoms: N_16  and  N_17 
REMARK       I    between atoms: N_17  and  C_18 
REMARK    8  A    between atoms: C_18  and  C_19 
ROOT
HETATM    1  C   UNL     1      25.972  44.651  50.618  1.00  0.00     0.128 C 
ENDROOT
BRANCH   1   2
HETATM    2  C   UNL     1      26.406  44.372  52.064  1.00  0.00    -0.032 A 
HETATM    3  C   UNL     1      27.754  44.185  52.422  1.00  0.00     0.046 A 
HETATM    4  C   UNL     1      28.136  43.965  53.751  1.00  0.00     0.076 A 
HETATM    5  C   UNL     1      27.169  43.939  54.754  1.00  0.00     0.037 A 
HETATM    6  C   UNL     1      25.823  44.070  54.417  1.00  0.00     0.003 A 
HETATM    7  C   UNL     1      25.446  44.269  53.086  1.00  0.00     0.009 A 
BRANCH   4   8
HETATM    8  O   UNL     1      29.494  43.860  53.963  1.00  0.00    -0.311 OA
BRANCH   8   9
HETATM    9  C   UNL     1      30.004  44.168  55.200  1.00  0.00     0.076 A 
HETATM   10  C   UNL     1      29.688  45.353  55.869  1.00  0.00     0.037 A 
HETATM   11  C   UNL     1      30.205  45.585  57.145  1.00  0.00     0.003 A 
HETATM   12  C   UNL     1      31.011  44.624  57.758  1.00  0.00     0.000 A 
HETATM   13  C   UNL     1      31.297  43.427  57.101  1.00  0.00     0.003 A 
HETATM   14  C   UNL     1      30.787  43.196  55.823  1.00  0.00     0.037 A 
ENDBRANCH   8   9
ENDBRANCH   4   8
ENDBRANCH   1   2
BRANCH   1  15
HETATM   15  N   UNL     1      26.650  43.758  49.683  1.00  0.00    -0.334 N 
HETATM   16  C   UNL     1      26.090  42.594  49.269  1.00  0.00     0.314 C 
HETATM   17  N   UNL     1      26.861  41.927  48.379  1.00  0.00    -0.352 N 
HETATM   18  O   UNL     1      24.998  42.182  49.630  1.00  0.00    -0.248 OA
HETATM   19  H   UNL     1      27.860  41.960  48.516  1.00  0.00     0.160 HD
HETATM   20  H   UNL     1      26.499  41.011  48.140  1.00  0.00     0.160 HD
HETATM   21  H   UNL     1      27.363  44.154  49.085  1.00  0.00     0.165 HD
ENDBRANCH   1  15
BRANCH   1  22
HETATM   22  C   UNL     1      26.221  46.121  50.245  1.00  0.00     0.134 C 
BRANCH  22  23
HETATM   23  C   UNL     1      25.096  47.110  50.461  1.00  0.00     0.238 C 
HETATM   24  N   UNL     1      24.177  47.255  49.446  1.00  0.00    -0.267 N 
HETATM   25  H   UNL     1      24.463  47.195  48.461  1.00  0.00     0.190 HD
HETATM   26  O   UNL     1      24.948  47.662  51.556  1.00  0.00    -0.272 OA
BRANCH  24  27
HETATM   27  N   UNL     1      23.131  48.162  49.692  1.00  0.00    -0.262 N 
HETATM   28  C   UNL     1      22.777  49.100  48.741  1.00  0.00     0.293 C 
HETATM   29  O   UNL     1      23.424  49.279  47.710  1.00  0.00    -0.264 OA
HETATM   30  H   UNL     1      22.525  47.969  50.489  1.00  0.00     0.190 HD
BRANCH  28  31
HETATM   31  C   UNL     1      21.574  49.834  49.073  1.00  0.00     0.144 A 
HETATM   32  O   UNL     1      20.565  49.205  49.758  1.00  0.00    -0.317 OA
HETATM   33  C   UNL     1      19.563  50.107  49.917  1.00  0.00     0.143 A 
HETATM   34  C   UNL     1      19.907  51.314  49.355  1.00  0.00     0.027 A 
HETATM   35  C   UNL     1      21.202  51.139  48.810  1.00  0.00     0.045 A 
ENDBRANCH  28  31
ENDBRANCH  24  27
ENDBRANCH  22  23
ENDBRANCH   1  22
TORSDOF 8
ENDMDL
MODEL 5
REMARK VINA RESULT:      -9.2      1.521      2.045
REMARK  8 active torsions:
REMARK  status: ('A' for Active; 'I' for Inactive)
REMARK    1  A    between atoms: C_4  and  O_5 
REMARK    2  A    between atoms: O_5  and  C_6 
REMARK    3  A    between atoms: C_8  and  C_9 
REMARK    4  A    between atoms: C_9  and  N_10 
REMARK    5  A    between atoms: C_9  and  C_14 
REMARK       I    between atoms: N_10  and  C_11 
REMARK       I    between atoms: C_11  and  N_12 
REMARK    6  A    between atoms: C_14  and  C_15 
REMARK       I    between atoms: C_15  and  N_16 
REMARK    7  A    between atoms: N_16  and  N_17 
REMARK       I    between atoms: N_17  and  C_18 
REMARK    8  A    between atoms: C_18  and  C_19 
ROOT
HETATM    1  C   UNL     1      25.566  46.893  50.237  1.00  0.00     0.128 C 
ENDROOT
BRANCH   1   2
HETATM    2  C   UNL     1      24.848  47.980  49.425  1.00  0.00    -0.032 A 
HETATM    3  C   UNL     1      23.468  47.931  49.156  1.00  0.00     0.046 A 
HETATM    4  C   UNL     1      22.822  48.948  48.443  1.00  0.00     0.076 A 
HETATM    5  C   UNL     1      23.551  50.047  47.993  1.00  0.00     0.037 A 
HETATM    6  C   UNL     1      24.928  50.093  48.202  1.00  0.00     0.003 A 
HETATM    7  C   UNL     1      25.570  49.065  48.896  1.00  0.00     0.009 A 
BRANCH   4   8
HETATM    8  O   UNL     1      21.458  48.797  48.308  1.00  0.00    -0.311 OA
BRANCH   8   9
HETATM    9  C   UNL     1      20.641  49.877  48.532  1.00  0.00     0.076 A 
HETATM   10  C   UNL     1      20.482  50.450  49.796  1.00  0.00     0.037 A 
HETATM   11  C   UNL     1      19.669  51.575  49.947  1.00  0.00     0.003 A 
HETATM   12  C   UNL     1      19.043  52.140  48.835  1.00  0.00     0.000 A 
HETATM   13  C   UNL     1      19.231  51.586  47.569  1.00  0.00     0.003 A 
HETATM   14  C   UNL     1      20.037  50.458  47.416  1.00  0.00     0.037 A 
ENDBRANCH   8   9
ENDBRANCH   4   8
ENDBRANCH   1   2
BRANCH   1  15
HETATM   15  N   UNL     1      25.382  45.577  49.632  1.00  0.00    -0.334 N 
HETATM   16  C   UNL     1      26.404  44.691  49.516  1.00  0.00     0.314 C 
HETATM   17  N   UNL     1      26.023  43.519  48.960  1.00  0.00    -0.352 N 
HETATM   18  O   UNL     1      27.549  44.901  49.888  1.00  0.00    -0.248 OA
HETATM   19  H   UNL     1      25.333  43.558  48.225  1.00  0.00     0.160 HD
HETATM   20  H   UNL     1      26.796  42.890  48.777  1.00  0.00     0.160 HD
HETATM   21  H   UNL     1      24.448  45.192  49.614  1.00  0.00     0.165 HD
ENDBRANCH   1  15
BRANCH   1  22
HETATM   22  C   UNL     1      25.088  46.893  51.696  1.00  0.00     0.134 C 
BRANCH  22  23
HETATM   23  C   UNL     1      26.093  46.553  52.775  1.00  0.00     0.238 C 
HETATM   24  N   UNL     1      26.410  45.223  52.949  1.00  0.00    -0.267 N 
HETATM   25  H   UNL     1      25.700  44.491  52.829  1.00  0.00     0.190 HD
HETATM   26  O   UNL     1      26.692  47.448  53.379  1.00  0.00    -0.272 OA
BRANCH  24  27
HETATM   27  N   UNL     1      27.368  44.947  53.941  1.00  0.00    -0.262 N 
HETATM   28  C   UNL     1      28.478  44.179  53.648  1.00  0.00     0.293 C 
HETATM   29  O   UNL     1      28.622  43.598  52.573  1.00  0.00    -0.264 OA
HETATM   30  H   UNL     1      27.319  45.493  54.800  1.00  0.00     0.190 HD
BRANCH  28  31
HETATM   31  C   UNL     1      29.450  44.137  54.720  1.00  0.00     0.144 A 
HETATM   32  O   UNL     1      29.517  45.176  55.614  1.00  0.00    -0.317 OA
HETATM   33  C   UNL     1      30.514  44.890  56.490  1.00  0.00     0.143 A 
HETATM   34  C   UNL     1      31.092  43.681  56.185  1.00  0.00     0.027 A 
HETATM   35  C   UNL     1      30.408  43.194  55.044  1.00  0.00     0.045 A 
ENDBRANCH  28  31
ENDBRANCH  24  27
ENDBRANCH  22  23
ENDBRANCH   1  22
TORSDOF 8
ENDMDL
MODEL 6
REMARK VINA RESULT:      -9.1      2.233      9.372
REMARK  8 active torsions:
REMARK  status: ('A' for Active; 'I' for Inactive)
REMARK    1  A    between atoms: C_4  and  O_5 
REMARK    2  A    between atoms: O_5  and  C_6 
REMARK    3  A    between atoms: C_8  and  C_9 
REMARK    4  A    between atoms: C_9  and  N_10 
REMARK    5  A    between atoms: C_9  and  C_14 
REMARK       I    between atoms: N_10  and  C_11 
REMARK       I    between atoms: C_11  and  N_12 
REMARK    6  A    between atoms: C_14  and  C_15 
REMARK       I    between atoms: C_15  and  N_16 
REMARK    7  A    between atoms: N_16  and  N_17 
REMARK       I    between atoms: N_17  and  C_18 
REMARK    8  A    between atoms: C_18  and  C_19 
ROOT
HETATM    1  C   UNL     1      25.469  44.513  51.231  1.00  0.00     0.128 C 
ENDROOT
BRANCH   1   2
HETATM    2  C   UNL     1      26.556  44.056  52.214  1.00  0.00    -0.032 A 
HETATM    3  C   UNL     1      27.267  44.961  53.025  1.00  0.00     0.046 A 
HETATM    4  C   UNL     1      28.232  44.524  53.940  1.00  0.00     0.076 A 
HETATM    5  C   UNL     1      28.496  43.162  54.070  1.00  0.00     0.037 A 
HETATM    6  C   UNL     1      27.842  42.251  53.242  1.00  0.00     0.003 A 
HETATM    7  C   UNL     1      26.895  42.695  52.315  1.00  0.00     0.009 A 
BRANCH   4   8
HETATM    8  O   UNL     1      28.804  45.515  54.709  1.00  0.00    -0.311 OA
BRANCH   8   9
HETATM    9  C   UNL     1      29.562  45.162  55.798  1.00  0.00     0.076 A 
HETATM   10  C   UNL     1      30.572  44.200  55.731  1.00  0.00     0.037 A 
HETATM   11  C   UNL     1      31.336  43.920  56.865  1.00  0.00     0.003 A 
HETATM   12  C   UNL     1      31.109  44.619  58.051  1.00  0.00     0.000 A 
HETATM   13  C   UNL     1      30.122  45.603  58.106  1.00  0.00     0.003 A 
HETATM   14  C   UNL     1      29.352  45.880  56.976  1.00  0.00     0.037 A 
ENDBRANCH   8   9
ENDBRANCH   4   8
ENDBRANCH   1   2
BRANCH   1  15
HETATM   15  N   UNL     1      24.981  43.396  50.429  1.00  0.00    -0.334 N 
HETATM   16  C   UNL     1      23.657  43.197  50.204  1.00  0.00     0.314 C 
HETATM   17  N   UNL     1      23.413  42.130  49.410  1.00  0.00    -0.352 N 
HETATM   18  O   UNL     1      22.766  43.907  50.644  1.00  0.00    -0.248 OA
HETATM   19  H   UNL     1      24.009  41.323  49.522  1.00  0.00     0.160 HD
HETATM   20  H   UNL     1      22.427  41.913  49.319  1.00  0.00     0.160 HD
HETATM   21  H   UNL     1      25.619  42.978  49.765  1.00  0.00     0.165 HD
ENDBRANCH   1  15
BRANCH   1  22
HETATM   22  C   UNL     1      25.985  45.645  50.331  1.00  0.00     0.134 C 
BRANCH  22  23
HETATM   23  C   UNL     1      25.165  46.914  50.242  1.00  0.00     0.238 C 
HETATM   24  N   UNL     1      23.848  46.790  49.855  1.00  0.00    -0.267 N 
HETATM   25  H   UNL     1      23.565  46.089  49.161  1.00  0.00     0.190 HD
HETATM   26  O   UNL     1      25.631  47.991  50.624  1.00  0.00    -0.272 OA
BRANCH  24  27
HETATM   27  N   UNL     1      23.109  47.985  49.810  1.00  0.00    -0.262 N 
HETATM   28  C   UNL     1      22.481  48.377  48.643  1.00  0.00     0.293 C 
HETATM   29  O   UNL     1      22.639  47.791  47.573  1.00  0.00    -0.264 OA
HETATM   30  H   UNL     1      22.886  48.430  50.700  1.00  0.00     0.190 HD
BRANCH  28  31
HETATM   31  C   UNL     1      21.620  49.529  48.809  1.00  0.00     0.144 A 
HETATM   32  O   UNL     1      20.641  49.509  49.771  1.00  0.00    -0.317 OA
HETATM   33  C   UNL     1      19.979  50.691  49.696  1.00  0.00     0.143 A 
HETATM   34  C   UNL     1      20.514  51.483  48.708  1.00  0.00     0.027 A 
HETATM   35  C   UNL     1      21.571  50.735  48.135  1.00  0.00     0.045 A 
ENDBRANCH  28  31
ENDBRANCH  24  27
ENDBRANCH  22  23
ENDBRANCH   1  22
TORSDOF 8
ENDMDL
MODEL 7
REMARK VINA RESULT:      -8.9      2.741      9.202
REMARK  8 active torsions:
REMARK  status: ('A' for Active; 'I' for Inactive)
REMARK    1  A    between atoms: C_4  and  O_5 
REMARK    2  A    between atoms: O_5  and  C_6 
REMARK    3  A    between atoms: C_8  and  C_9 
REMARK    4  A    between atoms: C_9  and  N_10 
REMARK    5  A    between atoms: C_9  and  C_14 
REMARK       I    between atoms: N_10  and  C_11 
REMARK       I    between atoms: C_11  and  N_12 
REMARK    6  A    between atoms: C_14  and  C_15 
REMARK       I    between atoms: C_15  and  N_16 
REMARK    7  A    between atoms: N_16  and  N_17 
REMARK       I    between atoms: N_17  and  C_18 
REMARK    8  A    between atoms: C_18  and  C_19 
ROOT
HETATM    1  C   UNL     1      25.170  44.418  49.739  1.00  0.00     0.128 C 
ENDROOT
BRANCH   1   2
HETATM    2  C   UNL     1      26.133  43.452  50.444  1.00  0.00    -0.032 A 
HETATM    3  C   UNL     1      26.347  43.483  51.835  1.00  0.00     0.046 A 
HETATM    4  C   UNL     1      27.203  42.573  52.466  1.00  0.00     0.076 A 
HETATM    5  C   UNL     1      27.857  41.601  51.712  1.00  0.00     0.037 A 
HETATM    6  C   UNL     1      27.702  41.584  50.328  1.00  0.00     0.003 A 
HETATM    7  C   UNL     1      26.863  42.508  49.700  1.00  0.00     0.009 A 
BRANCH   4   8
HETATM    8  O   UNL     1      27.267  42.682  53.839  1.00  0.00    -0.311 OA
BRANCH   8   9
HETATM    9  C   UNL     1      28.281  43.414  54.405  1.00  0.00     0.076 A 
HETATM   10  C   UNL     1      28.104  44.728  54.845  1.00  0.00     0.037 A 
HETATM   11  C   UNL     1      29.165  45.403  55.452  1.00  0.00     0.003 A 
HETATM   12  C   UNL     1      30.386  44.756  55.644  1.00  0.00     0.000 A 
HETATM   13  C   UNL     1      30.550  43.432  55.235  1.00  0.00     0.003 A 
HETATM   14  C   UNL     1      29.493  42.759  54.621  1.00  0.00     0.037 A 
ENDBRANCH   8   9
ENDBRANCH   4   8
ENDBRANCH   1   2
BRANCH   1  15
HETATM   15  N   UNL     1      24.900  43.987  48.372  1.00  0.00    -0.334 N 
HETATM   16  C   UNL     1      23.638  43.914  47.878  1.00  0.00     0.314 C 
HETATM   17  N   UNL     1      23.602  43.527  46.582  1.00  0.00    -0.352 N 
HETATM   18  O   UNL     1      22.629  44.186  48.511  1.00  0.00    -0.248 OA
HETATM   19  H   UNL     1      24.276  42.837  46.286  1.00  0.00     0.160 HD
HETATM   20  H   UNL     1      22.663  43.373  46.234  1.00  0.00     0.160 HD
HETATM   21  H   UNL     1      25.645  44.074  47.693  1.00  0.00     0.165 HD
ENDBRANCH   1  15
BRANCH   1  22
HETATM   22  C   UNL     1      25.720  45.852  49.760  1.00  0.00     0.134 C 
BRANCH  22  23
HETATM   23  C   UNL     1      24.755  46.980  50.051  1.00  0.00     0.238 C 
HETATM   24  N   UNL     1      23.543  46.962  49.396  1.00  0.00    -0.267 N 
HETATM   25  H   UNL     1      23.470  46.622  48.430  1.00  0.00     0.190 HD
HETATM   26  O   UNL     1      25.003  47.806  50.935  1.00  0.00    -0.272 OA
BRANCH  24  27
HETATM   27  N   UNL     1      22.660  48.010  49.711  1.00  0.00    -0.262 N 
HETATM   28  C   UNL     1      21.963  48.663  48.713  1.00  0.00     0.293 C 
HETATM   29  O   UNL     1      22.168  48.463  47.517  1.00  0.00    -0.264 OA
HETATM   30  H   UNL     1      22.404  48.124  50.692  1.00  0.00     0.190 HD
BRANCH  28  31
HETATM   31  C   UNL     1      20.969  49.590  49.215  1.00  0.00     0.144 A 
HETATM   32  O   UNL     1      19.783  49.107  49.709  1.00  0.00    -0.317 OA
HETATM   33  C   UNL     1      19.040  50.178  50.088  1.00  0.00     0.143 A 
HETATM   34  C   UNL     1      19.724  51.347  49.853  1.00  0.00     0.027 A 
HETATM   35  C   UNL     1      20.967  50.970  49.290  1.00  0.00     0.045 A 
ENDBRANCH  28  31
ENDBRANCH  24  27
ENDBRANCH  22  23
ENDBRANCH   1  22
TORSDOF 8
ENDMDL
MODEL 8
REMARK VINA RESULT:      -8.5      2.007      9.519
REMARK  8 active torsions:
REMARK  status: ('A' for Active; 'I' for Inactive)
REMARK    1  A    between atoms: C_4  and  O_5 
REMARK    2  A    between atoms: O_5  and  C_6 
REMARK    3  A    between atoms: C_8  and  C_9 
REMARK    4  A    between atoms: C_9  and  N_10 
REMARK    5  A    between atoms: C_9  and  C_14 
REMARK       I    between atoms: N_10  and  C_11 
REMARK       I    between atoms: C_11  and  N_12 
REMARK    6  A    between atoms: C_14  and  C_15 
REMARK       I    between atoms: C_15  and  N_16 
REMARK    7  A    between atoms: N_16  and  N_17 
REMARK       I    between atoms: N_17  and  C_18 
REMARK    8  A    between atoms: C_18  and  C_19 
ROOT
HETATM    1  C   UNL     1      26.599  44.647  52.106  1.00  0.00     0.128 C 
ENDROOT
BRANCH   1   2
HETATM    2  C   UNL     1      27.600  43.643  52.696  1.00  0.00    -0.032 A 
HETATM    3  C   UNL     1      28.794  44.050  53.320  1.00  0.00     0.046 A 
HETATM    4  C   UNL     1      29.680  43.123  53.883  1.00  0.00     0.076 A 
HETATM    5  C   UNL     1      29.378  41.764  53.841  1.00  0.00     0.037 A 
HETATM    6  C   UNL     1      28.228  41.333  53.184  1.00  0.00     0.003 A 
HETATM    7  C   UNL     1      27.358  42.261  52.605  1.00  0.00     0.009 A 
BRANCH   4   8
HETATM    8  O   UNL     1      30.778  43.668  54.515  1.00  0.00    -0.311 OA
BRANCH   8   9
HETATM    9  C   UNL     1      30.608  44.307  55.719  1.00  0.00     0.076 A 
HETATM   10  C   UNL     1      29.657  45.313  55.908  1.00  0.00     0.037 A 
HETATM   11  C   UNL     1      29.506  45.891  57.170  1.00  0.00     0.003 A 
HETATM   12  C   UNL     1      30.280  45.445  58.241  1.00  0.00     0.000 A 
HETATM   13  C   UNL     1      31.205  44.417  58.057  1.00  0.00     0.003 A 
HETATM   14  C   UNL     1      31.363  43.842  56.795  1.00  0.00     0.037 A 
ENDBRANCH   8   9
ENDBRANCH   4   8
ENDBRANCH   1   2
BRANCH   1  15
HETATM   15  N   UNL     1      26.116  45.571  53.126  1.00  0.00    -0.334 N 
HETATM   16  C   UNL     1      26.109  46.914  52.933  1.00  0.00     0.314 C 
HETATM   17  N   UNL     1      25.592  47.594  53.983  1.00  0.00    -0.352 N 
HETATM   18  O   UNL     1      26.501  47.471  51.919  1.00  0.00    -0.248 OA
HETATM   19  H   UNL     1      25.792  47.241  54.907  1.00  0.00     0.160 HD
HETATM   20  H   UNL     1      25.674  48.600  53.891  1.00  0.00     0.160 HD
HETATM   21  H   UNL     1      25.478  45.212  53.824  1.00  0.00     0.165 HD
ENDBRANCH   1  15
BRANCH   1  22
HETATM   22  C   UNL     1      25.427  43.919  51.431  1.00  0.00     0.134 C 
BRANCH  22  23
HETATM   23  C   UNL     1      24.274  44.752  50.915  1.00  0.00     0.238 C 
HETATM   24  N   UNL     1      24.580  45.823  50.104  1.00  0.00    -0.267 N 
HETATM   25  H   UNL     1      25.428  46.380  50.263  1.00  0.00     0.190 HD
HETATM   26  O   UNL     1      23.107  44.401  51.115  1.00  0.00    -0.272 OA
BRANCH  24  27
HETATM   27  N   UNL     1      23.483  46.558  49.621  1.00  0.00    -0.262 N 
HETATM   28  C   UNL     1      23.559  47.933  49.501  1.00  0.00     0.293 C 
HETATM   29  O   UNL     1      24.511  48.586  49.923  1.00  0.00    -0.264 OA
HETATM   30  H   UNL     1      22.729  46.034  49.178  1.00  0.00     0.190 HD
BRANCH  28  31
HETATM   31  C   UNL     1      22.419  48.517  48.825  1.00  0.00     0.144 A 
HETATM   32  O   UNL     1      21.210  47.869  48.856  1.00  0.00    -0.317 OA
HETATM   33  C   UNL     1      20.334  48.617  48.137  1.00  0.00     0.143 A 
HETATM   34  C   UNL     1      20.952  49.742  47.645  1.00  0.00     0.027 A 
HETATM   35  C   UNL     1      22.295  49.679  48.087  1.00  0.00     0.045 A 
ENDBRANCH  28  31
ENDBRANCH  24  27
ENDBRANCH  22  23
ENDBRANCH   1  22
TORSDOF 8
ENDMDL
MODEL 9
REMARK VINA RESULT:      -8.5      1.891      3.256
REMARK  8 active torsions:
REMARK  status: ('A' for Active; 'I' for Inactive)
REMARK    1  A    between atoms: C_4  and  O_5 
REMARK    2  A    between atoms: O_5  and  C_6 
REMARK    3  A    between atoms: C_8  and  C_9 
REMARK    4  A    between atoms: C_9  and  N_10 
REMARK    5  A    between atoms: C_9  and  C_14 
REMARK       I    between atoms: N_10  and  C_11 
REMARK       I    between atoms: C_11  and  N_12 
REMARK    6  A    between atoms: C_14  and  C_15 
REMARK       I    between atoms: C_15  and  N_16 
REMARK    7  A    between atoms: N_16  and  N_17 
REMARK       I    between atoms: N_17  and  C_18 
REMARK    8  A    between atoms: C_18  and  C_19 
ROOT
HETATM    1  C   UNL     1      24.966  47.129  50.537  1.00  0.00     0.128 C 
ENDROOT
BRANCH   1   2
HETATM    2  C   UNL     1      23.801  47.096  49.537  1.00  0.00    -0.032 A 
HETATM    3  C   UNL     1      23.168  48.267  49.080  1.00  0.00     0.046 A 
HETATM    4  C   UNL     1      22.129  48.221  48.142  1.00  0.00     0.076 A 
HETATM    5  C   UNL     1      21.711  46.994  47.633  1.00  0.00     0.037 A 
HETATM    6  C   UNL     1      22.286  45.818  48.109  1.00  0.00     0.003 A 
HETATM    7  C   UNL     1      23.308  45.868  49.061  1.00  0.00     0.009 A 
BRANCH   4   8
HETATM    8  O   UNL     1      21.646  49.448  47.740  1.00  0.00    -0.311 OA
BRANCH   8   9
HETATM    9  C   UNL     1      20.660  50.053  48.478  1.00  0.00     0.076 A 
HETATM   10  C   UNL     1      20.403  51.425  48.408  1.00  0.00     0.037 A 
HETATM   11  C   UNL     1      19.356  51.970  49.153  1.00  0.00     0.003 A 
HETATM   12  C   UNL     1      18.553  51.144  49.941  1.00  0.00     0.000 A 
HETATM   13  C   UNL     1      18.791  49.770  49.983  1.00  0.00     0.003 A 
HETATM   14  C   UNL     1      19.841  49.223  49.245  1.00  0.00     0.037 A 
ENDBRANCH   8   9
ENDBRANCH   4   8
ENDBRANCH   1   2
BRANCH   1  15
HETATM   15  N   UNL     1      26.252  47.124  49.847  1.00  0.00    -0.334 N 
HETATM   16  C   UNL     1      26.823  48.264  49.385  1.00  0.00     0.314 C 
HETATM   17  N   UNL     1      28.028  48.053  48.807  1.00  0.00    -0.352 N 
HETATM   18  O   UNL     1      26.331  49.378  49.489  1.00  0.00    -0.248 OA
HETATM   19  H   UNL     1      28.141  47.205  48.271  1.00  0.00     0.160 HD
HETATM   20  H   UNL     1      28.416  48.881  48.370  1.00  0.00     0.160 HD
HETATM   21  H   UNL     1      26.873  46.343  50.013  1.00  0.00     0.165 HD
ENDBRANCH   1  15
BRANCH   1  22
HETATM   22  C   UNL     1      24.873  45.956  51.525  1.00  0.00     0.134 C 
BRANCH  22  23
HETATM   23  C   UNL     1      26.162  45.382  52.071  1.00  0.00     0.238 C 
HETATM   24  N   UNL     1      26.475  45.666  53.383  1.00  0.00    -0.267 N 
HETATM   25  H   UNL     1      26.244  46.577  53.796  1.00  0.00     0.190 HD
HETATM   26  O   UNL     1      26.831  44.591  51.400  1.00  0.00    -0.272 OA
BRANCH  24  27
HETATM   27  N   UNL     1      27.665  45.094  53.866  1.00  0.00    -0.262 N 
HETATM   28  C   UNL     1      28.301  45.626  54.971  1.00  0.00     0.293 C 
HETATM   29  O   UNL     1      27.948  46.679  55.499  1.00  0.00    -0.264 OA
HETATM   30  H   UNL     1      27.919  44.174  53.507  1.00  0.00     0.190 HD
BRANCH  28  31
HETATM   31  C   UNL     1      29.408  44.821  55.444  1.00  0.00     0.144 A 
HETATM   32  O   UNL     1      30.113  45.224  56.550  1.00  0.00    -0.317 OA
HETATM   33  C   UNL     1      31.093  44.308  56.758  1.00  0.00     0.143 A 
HETATM   34  C   UNL     1      31.033  43.314  55.810  1.00  0.00     0.027 A 
HETATM   35  C   UNL     1      29.948  43.643  54.963  1.00  0.00     0.045 A 
ENDBRANCH  28  31
ENDBRANCH  24  27
ENDBRANCH  22  23
ENDBRANCH   1  22
TORSDOF 8
ENDMDL
MODEL 10
REMARK VINA RESULT:      -8.3      2.577      9.473
REMARK  8 active torsions:
REMARK  status: ('A' for Active; 'I' for Inactive)
REMARK    1  A    between atoms: C_4  and  O_5 
REMARK    2  A    between atoms: O_5  and  C_6 
REMARK    3  A    between atoms: C_8  and  C_9 
REMARK    4  A    between atoms: C_9  and  N_10 
REMARK    5  A    between atoms: C_9  and  C_14 
REMARK       I    between atoms: N_10  and  C_11 
REMARK       I    between atoms: C_11  and  N_12 
REMARK    6  A    between atoms: C_14  and  C_15 
REMARK       I    between atoms: C_15  and  N_16 
REMARK    7  A    between atoms: N_16  and  N_17 
REMARK       I    between atoms: N_17  and  C_18 
REMARK    8  A    between atoms: C_18  and  C_19 
ROOT
HETATM    1  C   UNL     1      24.866  45.182  50.059  1.00  0.00     0.128 C 
ENDROOT
BRANCH   1   2
HETATM    2  C   UNL     1      25.407  45.589  51.437  1.00  0.00    -0.032 A 
HETATM    3  C   UNL     1      25.924  44.650  52.350  1.00  0.00     0.046 A 
HETATM    4  C   UNL     1      26.445  45.042  53.589  1.00  0.00     0.076 A 
HETATM    5  C   UNL     1      26.467  46.392  53.934  1.00  0.00     0.037 A 
HETATM    6  C   UNL     1      25.913  47.334  53.070  1.00  0.00     0.003 A 
HETATM    7  C   UNL     1      25.376  46.935  51.843  1.00  0.00     0.009 A 
BRANCH   4   8
HETATM    8  O   UNL     1      26.973  44.024  54.353  1.00  0.00    -0.311 OA
BRANCH   8   9
HETATM    9  C   UNL     1      28.285  44.097  54.751  1.00  0.00     0.076 A 
HETATM   10  C   UNL     1      28.737  45.042  55.676  1.00  0.00     0.037 A 
HETATM   11  C   UNL     1      30.076  45.035  56.071  1.00  0.00     0.003 A 
HETATM   12  C   UNL     1      30.949  44.070  55.567  1.00  0.00     0.000 A 
HETATM   13  C   UNL     1      30.486  43.107  54.670  1.00  0.00     0.003 A 
HETATM   14  C   UNL     1      29.151  43.117  54.268  1.00  0.00     0.037 A 
ENDBRANCH   8   9
ENDBRANCH   4   8
ENDBRANCH   1   2
BRANCH   1  15
HETATM   15  N   UNL     1      25.778  44.262  49.386  1.00  0.00    -0.334 N 
HETATM   16  C   UNL     1      25.436  42.976  49.124  1.00  0.00     0.314 C 
HETATM   17  N   UNL     1      26.403  42.298  48.465  1.00  0.00    -0.352 N 
HETATM   18  O   UNL     1      24.365  42.468  49.422  1.00  0.00    -0.248 OA
HETATM   19  H   UNL     1      27.361  42.502  48.710  1.00  0.00     0.160 HD
HETATM   20  H   UNL     1      26.199  41.312  48.353  1.00  0.00     0.160 HD
HETATM   21  H   UNL     1      26.512  44.659  48.815  1.00  0.00     0.165 HD
ENDBRANCH   1  15
BRANCH   1  22
HETATM   22  C   UNL     1      24.599  46.419  49.188  1.00  0.00     0.134 C 
BRANCH  22  23
HETATM   23  C   UNL     1      23.198  46.991  49.176  1.00  0.00     0.238 C 
HETATM   24  N   UNL     1      23.038  48.281  49.635  1.00  0.00    -0.267 N 
HETATM   25  H   UNL     1      23.602  48.638  50.414  1.00  0.00     0.190 HD
HETATM   26  O   UNL     1      22.269  46.366  48.657  1.00  0.00    -0.272 OA
BRANCH  24  27
HETATM   27  N   UNL     1      21.728  48.790  49.583  1.00  0.00    -0.262 N 
HETATM   28  C   UNL     1      21.488  50.131  49.817  1.00  0.00     0.293 C 
HETATM   29  O   UNL     1      22.360  50.906  50.203  1.00  0.00    -0.264 OA
HETATM   30  H   UNL     1      21.011  48.192  49.173  1.00  0.00     0.190 HD
BRANCH  28  31
HETATM   31  C   UNL     1      20.120  50.527  49.553  1.00  0.00     0.144 A 
HETATM   32  O   UNL     1      19.139  49.569  49.488  1.00  0.00    -0.317 OA
HETATM   33  C   UNL     1      17.972  50.206  49.212  1.00  0.00     0.143 A 
HETATM   34  C   UNL     1      18.177  51.561  49.103  1.00  0.00     0.027 A 
HETATM   35  C   UNL     1      19.560  51.769  49.322  1.00  0.00     0.045 A 
ENDBRANCH  28  31
ENDBRANCH  24  27
ENDBRANCH  22  23
ENDBRANCH   1  22
TORSDOF 8
ENDMDL
