MODEL 1
REMARK VINA RESULT:      -8.7      0.000      0.000
REMARK  6 active torsions:
REMARK  status: ('A' for Active; 'I' for Inactive)
REMARK    1  A    between atoms: O_2  and  C_3 
REMARK    2  A    between atoms: C_3  and  C_4 
REMARK    3  A    between atoms: C_4  and  N_5 
REMARK       I    between atoms: N_5  and  C_6 
REMARK    4  A    between atoms: C_6  and  C_7 
REMARK    5  A    between atoms: C_12  and  C_13 
REMARK    6  A    between atoms: C_20  and  C_21 
ROOT
HETATM    1  C   UNL     1      25.495  44.491  51.909  1.00  0.00     0.165 A 
HETATM    2  N   UNL     1      25.948  43.220  52.060  1.00  0.00    -0.163 NA
HETATM    3  N   UNL     1      27.033  43.356  52.841  1.00  0.00    -0.238 N 
HETATM    4  C   UNL     1      27.276  44.639  53.249  1.00  0.00     0.141 A 
HETATM    5  N   UNL     1      28.299  44.924  54.090  1.00  0.00    -0.365 N 
HETATM    6  C   UNL     1      29.310  43.918  54.407  1.00  0.00     0.118 C 
HETATM    7  C   UNL     1      28.643  42.534  54.497  1.00  0.00     0.066 C 
HETATM    8  C   UNL     1      27.845  42.214  53.219  1.00  0.00     0.221 C 
HETATM    9  C   UNL     1      26.301  45.394  52.649  1.00  0.00     0.092 A 
HETATM   10 BR   UNL     1      26.088  47.250  52.798  1.00  0.00    -0.044 Br
HETATM   11  H   UNL     1      28.589  45.893  54.230  1.00  0.00     0.162 HD
ENDROOT
BRANCH   1  12
HETATM   12  C   UNL     1      24.316  44.771  51.070  1.00  0.00     0.273 C 
HETATM   13  N   UNL     1      24.470  45.890  50.278  1.00  0.00    -0.353 N 
HETATM   14  H   UNL     1      25.410  46.281  50.247  1.00  0.00     0.162 HD
HETATM   15  O   UNL     1      23.298  44.088  51.066  1.00  0.00    -0.266 OA
BRANCH  13  16
HETATM   16  C   UNL     1      23.531  46.252  49.238  1.00  0.00     0.149 C 
BRANCH  16  17
HETATM   17  C   UNL     1      23.273  47.756  49.219  1.00  0.00     0.186 C 
BRANCH  17  18
HETATM   18  O   UNL     1      24.415  48.436  49.751  1.00  0.00    -0.394 OA
HETATM   19  C   UNL     1      24.979  49.330  48.799  1.00  0.00     0.201 C 
ENDBRANCH  17  18
ENDBRANCH  16  17
ENDBRANCH  13  16
ENDBRANCH   1  12
BRANCH   8  20
HETATM   20  C   UNL     1      28.747  41.823  52.068  1.00  0.00     0.409 C 
HETATM   21  F   UNL     1      28.194  40.899  51.253  1.00  0.00    -0.169 F 
HETATM   22  F   UNL     1      29.010  42.911  51.298  1.00  0.00    -0.169 F 
HETATM   23  F   UNL     1      29.943  41.346  52.478  1.00  0.00    -0.169 F 
ENDBRANCH   8  20
BRANCH   6  24
HETATM   24  C   UNL     1      30.018  44.262  55.704  1.00  0.00    -0.035 A 
HETATM   25  C   UNL     1      29.694  45.416  56.438  1.00  0.00     0.009 A 
HETATM   26  C   UNL     1      30.342  45.699  57.642  1.00  0.00     0.001 A 
HETATM   27  C   UNL     1      31.316  44.831  58.132  1.00  0.00     0.000 A 
HETATM   28  C   UNL     1      31.641  43.678  57.420  1.00  0.00     0.001 A 
HETATM   29  C   UNL     1      30.996  43.394  56.215  1.00  0.00     0.009 A 
ENDBRANCH   6  24
TORSDOF 6
ENDMDL
MODEL 2
REMARK VINA RESULT:      -8.3      3.133      4.854
REMARK  6 active torsions:
REMARK  status: ('A' for Active; 'I' for Inactive)
REMARK    1  A    between atoms: O_2  and  C_3 
REMARK    2  A    between atoms: C_3  and  C_4 
REMARK    3  A    between atoms: C_4  and  N_5 
REMARK       I    between atoms: N_5  and  C_6 
REMARK    4  A    between atoms: C_6  and  C_7 
REMARK    5  A    between atoms: C_12  and  C_13 
REMARK    6  A    between atoms: C_20  and  C_21 
ROOT
HETATM    1  C   UNL     1      24.715  48.152  49.383  1.00  0.00     0.165 A 
HETATM    2  N   UNL     1      23.901  47.210  49.926  1.00  0.00    -0.163 NA
HETATM    3  N   UNL     1      24.751  46.328  50.476  1.00  0.00    -0.238 N 
HETATM    4  C   UNL     1      26.070  46.674  50.368  1.00  0.00     0.141 A 
HETATM    5  N   UNL     1      27.042  45.913  50.927  1.00  0.00    -0.365 N 
HETATM    6  C   UNL     1      26.739  44.589  51.464  1.00  0.00     0.118 C 
HETATM    7  C   UNL     1      25.347  44.609  52.120  1.00  0.00     0.066 C 
HETATM    8  C   UNL     1      24.276  45.128  51.142  1.00  0.00     0.221 C 
HETATM    9  C   UNL     1      26.073  47.845  49.654  1.00  0.00     0.092 A 
HETATM   10 BR   UNL     1      27.585  48.833  49.152  1.00  0.00    -0.044 Br
HETATM   11  H   UNL     1      28.019  46.070  50.676  1.00  0.00     0.162 HD
ENDROOT
BRANCH   1  12
HETATM   12  C   UNL     1      24.150  49.293  48.641  1.00  0.00     0.273 C 
HETATM   13  N   UNL     1      23.028  49.824  49.239  1.00  0.00    -0.353 N 
HETATM   14  H   UNL     1      22.825  49.482  50.176  1.00  0.00     0.162 HD
HETATM   15  O   UNL     1      24.621  49.734  47.598  1.00  0.00    -0.266 OA
BRANCH  13  16
HETATM   16  C   UNL     1      22.414  51.060  48.801  1.00  0.00     0.149 C 
BRANCH  16  17
HETATM   17  C   UNL     1      20.893  50.943  48.757  1.00  0.00     0.186 C 
BRANCH  17  18
HETATM   18  O   UNL     1      20.368  51.147  50.074  1.00  0.00    -0.394 OA
HETATM   19  C   UNL     1      19.411  50.151  50.413  1.00  0.00     0.201 C 
ENDBRANCH  17  18
ENDBRANCH  16  17
ENDBRANCH  13  16
ENDBRANCH   1  12
BRANCH   8  20
HETATM   20  C   UNL     1      23.894  44.088  50.112  1.00  0.00     0.409 C 
HETATM   21  F   UNL     1      24.629  44.166  48.981  1.00  0.00    -0.169 F 
HETATM   22  F   UNL     1      24.093  42.842  50.617  1.00  0.00    -0.169 F 
HETATM   23  F   UNL     1      22.591  44.153  49.759  1.00  0.00    -0.169 F 
ENDBRANCH   8  20
BRANCH   6  24
HETATM   24  C   UNL     1      27.800  44.162  52.462  1.00  0.00    -0.035 A 
HETATM   25  C   UNL     1      27.819  44.659  53.776  1.00  0.00     0.009 A 
HETATM   26  C   UNL     1      28.791  44.234  54.683  1.00  0.00     0.001 A 
HETATM   27  C   UNL     1      29.751  43.302  54.294  1.00  0.00     0.000 A 
HETATM   28  C   UNL     1      29.738  42.793  52.997  1.00  0.00     0.001 A 
HETATM   29  C   UNL     1      28.769  43.219  52.087  1.00  0.00     0.009 A 
ENDBRANCH   6  24
TORSDOF 6
ENDMDL
MODEL 3
REMARK VINA RESULT:      -8.3      2.633      3.829
REMARK  6 active torsions:
REMARK  status: ('A' for Active; 'I' for Inactive)
REMARK    1  A    between atoms: O_2  and  C_3 
REMARK    2  A    between atoms: C_3  and  C_4 
REMARK    3  A    between atoms: C_4  and  N_5 
REMARK       I    between atoms: N_5  and  C_6 
REMARK    4  A    between atoms: C_6  and  C_7 
REMARK    5  A    between atoms: C_12  and  C_13 
REMARK    6  A    between atoms: C_20  and  C_21 
ROOT
HETATM    1  C   UNL     1      23.907  46.387  49.506  1.00  0.00     0.165 A 
HETATM    2  N   UNL     1      23.517  45.149  49.907  1.00  0.00    -0.163 NA
HETATM    3  N   UNL     1      24.618  44.633  50.476  1.00  0.00    -0.238 N 
HETATM    4  C   UNL     1      25.685  45.488  50.515  1.00  0.00     0.141 A 
HETATM    5  N   UNL     1      26.848  45.131  51.113  1.00  0.00    -0.365 N 
HETATM    6  C   UNL     1      27.080  43.750  51.531  1.00  0.00     0.118 C 
HETATM    7  C   UNL     1      25.764  43.146  52.053  1.00  0.00     0.066 C 
HETATM    8  C   UNL     1      24.636  43.285  51.014  1.00  0.00     0.221 C 
HETATM    9  C   UNL     1      25.254  46.626  49.883  1.00  0.00     0.092 A 
HETATM   10 BR   UNL     1      26.258  48.182  49.592  1.00  0.00    -0.044 Br
HETATM   11  H   UNL     1      27.690  45.690  50.967  1.00  0.00     0.162 HD
ENDROOT
BRANCH   1  12
HETATM   12  C   UNL     1      22.971  47.272  48.790  1.00  0.00     0.273 C 
HETATM   13  N   UNL     1      22.386  48.214  49.608  1.00  0.00    -0.353 N 
HETATM   14  H   UNL     1      22.779  48.290  50.544  1.00  0.00     0.162 HD
HETATM   15  O   UNL     1      22.731  47.189  47.590  1.00  0.00    -0.266 OA
BRANCH  13  16
HETATM   16  C   UNL     1      21.584  49.307  49.100  1.00  0.00     0.149 C 
BRANCH  16  17
HETATM   17  C   UNL     1      21.998  50.639  49.721  1.00  0.00     0.186 C 
BRANCH  17  18
HETATM   18  O   UNL     1      23.373  50.893  49.414  1.00  0.00    -0.394 OA
HETATM   19  C   UNL     1      23.604  50.884  48.011  1.00  0.00     0.201 C 
ENDBRANCH  17  18
ENDBRANCH  16  17
ENDBRANCH  13  16
ENDBRANCH   1  12
BRANCH   8  20
HETATM   20  C   UNL     1      24.773  42.285  49.886  1.00  0.00     0.409 C 
HETATM   21  F   UNL     1      25.397  41.147  50.260  1.00  0.00    -0.169 F 
HETATM   22  F   UNL     1      23.543  41.922  49.438  1.00  0.00    -0.169 F 
HETATM   23  F   UNL     1      25.436  42.785  48.820  1.00  0.00    -0.169 F 
ENDBRANCH   8  20
BRANCH   6  24
HETATM   24  C   UNL     1      28.161  43.690  52.595  1.00  0.00    -0.035 A 
HETATM   25  C   UNL     1      28.061  44.419  53.792  1.00  0.00     0.009 A 
HETATM   26  C   UNL     1      29.056  44.329  54.766  1.00  0.00     0.001 A 
HETATM   27  C   UNL     1      30.160  43.504  54.562  1.00  0.00     0.000 A 
HETATM   28  C   UNL     1      30.269  42.767  53.385  1.00  0.00     0.001 A 
HETATM   29  C   UNL     1      29.276  42.858  52.408  1.00  0.00     0.009 A 
ENDBRANCH   6  24
TORSDOF 6
ENDMDL
MODEL 4
REMARK VINA RESULT:      -8.3      1.821      2.779
REMARK  6 active torsions:
REMARK  status: ('A' for Active; 'I' for Inactive)
REMARK    1  A    between atoms: O_2  and  C_3 
REMARK    2  A    between atoms: C_3  and  C_4 
REMARK    3  A    between atoms: C_4  and  N_5 
REMARK       I    between atoms: N_5  and  C_6 
REMARK    4  A    between atoms: C_6  and  C_7 
REMARK    5  A    between atoms: C_12  and  C_13 
REMARK    6  A    between atoms: C_20  and  C_21 
ROOT
HETATM    1  C   UNL     1      25.089  43.856  51.129  1.00  0.00     0.165 A 
HETATM    2  N   UNL     1      25.504  42.599  51.433  1.00  0.00    -0.163 NA
HETATM    3  N   UNL     1      26.592  42.794  52.195  1.00  0.00    -0.238 N 
HETATM    4  C   UNL     1      26.874  44.109  52.447  1.00  0.00     0.141 A 
HETATM    5  N   UNL     1      27.907  44.462  53.251  1.00  0.00    -0.365 N 
HETATM    6  C   UNL     1      28.887  43.471  53.688  1.00  0.00     0.118 C 
HETATM    7  C   UNL     1      28.178  42.128  53.942  1.00  0.00     0.066 C 
HETATM    8  C   UNL     1      27.370  41.682  52.709  1.00  0.00     0.221 C 
HETATM    9  C   UNL     1      25.922  44.816  51.758  1.00  0.00     0.092 A 
HETATM   10 BR   UNL     1      25.765  46.682  51.683  1.00  0.00    -0.044 Br
HETATM   11  H   UNL     1      28.226  45.432  53.274  1.00  0.00     0.162 HD
ENDROOT
BRANCH   1  12
HETATM   12  C   UNL     1      23.919  44.069  50.259  1.00  0.00     0.273 C 
HETATM   13  N   UNL     1      24.259  44.479  48.987  1.00  0.00    -0.353 N 
HETATM   14  H   UNL     1      25.250  44.429  48.759  1.00  0.00     0.162 HD
HETATM   15  O   UNL     1      22.758  43.901  50.617  1.00  0.00    -0.266 OA
BRANCH  13  16
HETATM   16  C   UNL     1      23.300  44.567  47.907  1.00  0.00     0.149 C 
BRANCH  16  17
HETATM   17  C   UNL     1      23.246  43.270  47.102  1.00  0.00     0.186 C 
BRANCH  17  18
HETATM   18  O   UNL     1      22.230  42.421  47.646  1.00  0.00    -0.394 OA
HETATM   19  C   UNL     1      22.780  41.212  48.154  1.00  0.00     0.201 C 
ENDBRANCH  17  18
ENDBRANCH  16  17
ENDBRANCH  13  16
ENDBRANCH   1  12
BRANCH   8  20
HETATM   20  C   UNL     1      28.259  41.129  51.616  1.00  0.00     0.409 C 
HETATM   21  F   UNL     1      29.370  40.525  52.091  1.00  0.00    -0.169 F 
HETATM   22  F   UNL     1      27.583  40.190  50.903  1.00  0.00    -0.169 F 
HETATM   23  F   UNL     1      28.650  42.072  50.731  1.00  0.00    -0.169 F 
ENDBRANCH   8  20
BRANCH   6  24
HETATM   24  C   UNL     1      29.605  43.947  54.937  1.00  0.00    -0.035 A 
HETATM   25  C   UNL     1      30.642  43.200  55.522  1.00  0.00     0.009 A 
HETATM   26  C   UNL     1      31.305  43.669  56.657  1.00  0.00     0.001 A 
HETATM   27  C   UNL     1      30.946  44.893  57.220  1.00  0.00     0.000 A 
HETATM   28  C   UNL     1      29.926  45.649  56.646  1.00  0.00     0.001 A 
HETATM   29  C   UNL     1      29.261  45.180  55.512  1.00  0.00     0.009 A 
ENDBRANCH   6  24
TORSDOF 6
ENDMDL
MODEL 5
REMARK VINA RESULT:      -8.0      3.315      3.988
REMARK  6 active torsions:
REMARK  status: ('A' for Active; 'I' for Inactive)
REMARK    1  A    between atoms: O_2  and  C_3 
REMARK    2  A    between atoms: C_3  and  C_4 
REMARK    3  A    between atoms: C_4  and  N_5 
REMARK       I    between atoms: N_5  and  C_6 
REMARK    4  A    between atoms: C_6  and  C_7 
REMARK    5  A    between atoms: C_12  and  C_13 
REMARK    6  A    between atoms: C_20  and  C_21 
ROOT
HETATM    1  C   UNL     1      26.990  43.484  51.132  1.00  0.00     0.165 A 
HETATM    2  N   UNL     1      26.804  44.795  51.434  1.00  0.00    -0.163 NA
HETATM    3  N   UNL     1      27.321  44.918  52.668  1.00  0.00    -0.238 N 
HETATM    4  C   UNL     1      27.881  43.771  53.160  1.00  0.00     0.141 A 
HETATM    5  N   UNL     1      28.497  43.755  54.367  1.00  0.00    -0.365 N 
HETATM    6  C   UNL     1      28.385  44.890  55.279  1.00  0.00     0.118 C 
HETATM    7  C   UNL     1      28.382  46.199  54.468  1.00  0.00     0.066 C 
HETATM    8  C   UNL     1      27.290  46.181  53.383  1.00  0.00     0.221 C 
HETATM    9  C   UNL     1      27.669  42.826  52.189  1.00  0.00     0.092 A 
HETATM   10 BR   UNL     1      28.190  41.027  52.261  1.00  0.00    -0.044 Br
HETATM   11  H   UNL     1      28.734  42.864  54.806  1.00  0.00     0.162 HD
ENDROOT
BRANCH   1  12
HETATM   12  C   UNL     1      26.513  42.935  49.850  1.00  0.00     0.273 C 
HETATM   13  N   UNL     1      25.139  42.843  49.780  1.00  0.00    -0.353 N 
HETATM   14  H   UNL     1      24.628  43.302  50.532  1.00  0.00     0.162 HD
HETATM   15  O   UNL     1      27.251  42.593  48.933  1.00  0.00    -0.266 OA
BRANCH  13  16
HETATM   16  C   UNL     1      24.434  42.516  48.559  1.00  0.00     0.149 C 
BRANCH  16  17
HETATM   17  C   UNL     1      22.995  42.091  48.842  1.00  0.00     0.186 C 
BRANCH  17  18
HETATM   18  O   UNL     1      22.101  43.018  48.218  1.00  0.00    -0.394 OA
HETATM   19  C   UNL     1      21.994  44.223  48.967  1.00  0.00     0.201 C 
ENDBRANCH  17  18
ENDBRANCH  16  17
ENDBRANCH  13  16
ENDBRANCH   1  12
BRANCH   8  20
HETATM   20  C   UNL     1      25.910  46.410  53.959  1.00  0.00     0.409 C 
HETATM   21  F   UNL     1      25.293  45.266  54.327  1.00  0.00    -0.169 F 
HETATM   22  F   UNL     1      25.998  47.178  55.077  1.00  0.00    -0.169 F 
HETATM   23  F   UNL     1      25.089  47.065  53.110  1.00  0.00    -0.169 F 
ENDBRANCH   8  20
BRANCH   6  24
HETATM   24  C   UNL     1      29.521  44.881  56.285  1.00  0.00    -0.035 A 
HETATM   25  C   UNL     1      29.593  45.822  57.326  1.00  0.00     0.009 A 
HETATM   26  C   UNL     1      30.635  45.779  58.254  1.00  0.00     0.001 A 
HETATM   27  C   UNL     1      31.615  44.792  58.159  1.00  0.00     0.000 A 
HETATM   28  C   UNL     1      31.551  43.846  57.138  1.00  0.00     0.001 A 
HETATM   29  C   UNL     1      30.511  43.889  56.208  1.00  0.00     0.009 A 
ENDBRANCH   6  24
TORSDOF 6
ENDMDL
MODEL 6
REMARK VINA RESULT:      -7.7     13.481     15.832
REMARK  6 active torsions:
REMARK  status: ('A' for Active; 'I' for Inactive)
REMARK    1  A    between atoms: O_2  and  C_3 
REMARK    2  A    between atoms: C_3  and  C_4 
REMARK    3  A    between atoms: C_4  and  N_5 
REMARK       I    between atoms: N_5  and  C_6 
REMARK    4  A    between atoms: C_6  and  C_7 
REMARK    5  A    between atoms: C_12  and  C_13 
REMARK    6  A    between atoms: C_20  and  C_21 
ROOT
HETATM    1  C   UNL     1      31.507  51.463  42.968  1.00  0.00     0.165 A 
HETATM    2  N   UNL     1      30.761  52.525  42.564  1.00  0.00    -0.163 NA
HETATM    3  N   UNL     1      29.871  51.988  41.713  1.00  0.00    -0.238 N 
HETATM    4  C   UNL     1      29.964  50.630  41.584  1.00  0.00     0.141 A 
HETATM    5  N   UNL     1      29.094  49.939  40.806  1.00  0.00    -0.365 N 
HETATM    6  C   UNL     1      28.179  50.637  39.906  1.00  0.00     0.118 C 
HETATM    7  C   UNL     1      27.702  51.941  40.572  1.00  0.00     0.066 C 
HETATM    8  C   UNL     1      28.893  52.808  41.020  1.00  0.00     0.221 C 
HETATM    9  C   UNL     1      31.022  50.268  42.377  1.00  0.00     0.092 A 
HETATM   10 BR   UNL     1      31.679  48.530  42.624  1.00  0.00    -0.044 Br
HETATM   11  H   UNL     1      29.289  48.967  40.563  1.00  0.00     0.162 HD
ENDROOT
BRANCH   1  12
HETATM   12  C   UNL     1      32.636  51.650  43.896  1.00  0.00     0.273 C 
HETATM   13  N   UNL     1      33.849  51.770  43.253  1.00  0.00    -0.353 N 
HETATM   14  H   UNL     1      33.803  51.876  42.242  1.00  0.00     0.162 HD
HETATM   15  O   UNL     1      32.520  51.696  45.116  1.00  0.00    -0.266 OA
BRANCH  13  16
HETATM   16  C   UNL     1      35.067  52.148  43.938  1.00  0.00     0.149 C 
BRANCH  16  17
HETATM   17  C   UNL     1      36.208  52.392  42.953  1.00  0.00     0.186 C 
BRANCH  17  18
HETATM   18  O   UNL     1      35.667  52.550  41.637  1.00  0.00    -0.394 OA
HETATM   19  C   UNL     1      36.692  52.777  40.677  1.00  0.00     0.201 C 
ENDBRANCH  17  18
ENDBRANCH  16  17
ENDBRANCH  13  16
ENDBRANCH   1  12
BRANCH   8  20
HETATM   20  C   UNL     1      29.551  53.517  39.856  1.00  0.00     0.409 C 
HETATM   21  F   UNL     1      30.016  54.743  40.177  1.00  0.00    -0.169 F 
HETATM   22  F   UNL     1      30.620  52.799  39.422  1.00  0.00    -0.169 F 
HETATM   23  F   UNL     1      28.728  53.655  38.794  1.00  0.00    -0.169 F 
ENDBRANCH   8  20
BRANCH   6  24
HETATM   24  C   UNL     1      27.000  49.750  39.551  1.00  0.00    -0.035 A 
HETATM   25  C   UNL     1      26.601  48.686  40.377  1.00  0.00     0.009 A 
HETATM   26  C   UNL     1      25.499  47.898  40.041  1.00  0.00     0.001 A 
HETATM   27  C   UNL     1      24.777  48.167  38.880  1.00  0.00     0.000 A 
HETATM   28  C   UNL     1      25.154  49.224  38.055  1.00  0.00     0.001 A 
HETATM   29  C   UNL     1      26.258  50.012  38.389  1.00  0.00     0.009 A 
ENDBRANCH   6  24
TORSDOF 6
ENDMDL
MODEL 7
REMARK VINA RESULT:      -7.6      3.486      4.907
REMARK  6 active torsions:
REMARK  status: ('A' for Active; 'I' for Inactive)
REMARK    1  A    between atoms: O_2  and  C_3 
REMARK    2  A    between atoms: C_3  and  C_4 
REMARK    3  A    between atoms: C_4  and  N_5 
REMARK       I    between atoms: N_5  and  C_6 
REMARK    4  A    between atoms: C_6  and  C_7 
REMARK    5  A    between atoms: C_12  and  C_13 
REMARK    6  A    between atoms: C_20  and  C_21 
ROOT
HETATM    1  C   UNL     1      26.881  43.665  51.177  1.00  0.00     0.165 A 
HETATM    2  N   UNL     1      26.727  44.977  51.493  1.00  0.00    -0.163 NA
HETATM    3  N   UNL     1      27.258  45.078  52.722  1.00  0.00    -0.238 N 
HETATM    4  C   UNL     1      27.798  43.915  53.199  1.00  0.00     0.141 A 
HETATM    5  N   UNL     1      28.424  43.875  54.401  1.00  0.00    -0.365 N 
HETATM    6  C   UNL     1      28.345  45.004  55.323  1.00  0.00     0.118 C 
HETATM    7  C   UNL     1      28.363  46.320  54.524  1.00  0.00     0.066 C 
HETATM    8  C   UNL     1      27.261  46.335  53.448  1.00  0.00     0.221 C 
HETATM    9  C   UNL     1      27.556  42.983  52.222  1.00  0.00     0.092 A 
HETATM   10 BR   UNL     1      28.038  41.172  52.274  1.00  0.00    -0.044 Br
HETATM   11  H   UNL     1      28.646  42.975  54.830  1.00  0.00     0.162 HD
ENDROOT
BRANCH   1  12
HETATM   12  C   UNL     1      26.380  43.138  49.896  1.00  0.00     0.273 C 
HETATM   13  N   UNL     1      27.232  42.221  49.319  1.00  0.00    -0.353 N 
HETATM   14  H   UNL     1      28.001  41.904  49.906  1.00  0.00     0.162 HD
HETATM   15  O   UNL     1      25.317  43.473  49.385  1.00  0.00    -0.266 OA
BRANCH  13  16
HETATM   16  C   UNL     1      26.869  41.430  48.162  1.00  0.00     0.149 C 
BRANCH  16  17
HETATM   17  C   UNL     1      28.095  40.790  47.516  1.00  0.00     0.186 C 
BRANCH  17  18
HETATM   18  O   UNL     1      27.905  39.372  47.449  1.00  0.00    -0.394 OA
HETATM   19  C   UNL     1      28.648  38.699  48.459  1.00  0.00     0.201 C 
ENDBRANCH  17  18
ENDBRANCH  16  17
ENDBRANCH  13  16
ENDBRANCH   1  12
BRANCH   8  20
HETATM   20  C   UNL     1      25.892  46.589  54.040  1.00  0.00     0.409 C 
HETATM   21  F   UNL     1      25.235  45.453  54.362  1.00  0.00    -0.169 F 
HETATM   22  F   UNL     1      26.011  47.305  55.189  1.00  0.00    -0.169 F 
HETATM   23  F   UNL     1      25.092  47.308  53.222  1.00  0.00    -0.169 F 
ENDBRANCH   8  20
BRANCH   6  24
HETATM   24  C   UNL     1      29.490  44.962  56.318  1.00  0.00    -0.035 A 
HETATM   25  C   UNL     1      29.575  45.871  57.385  1.00  0.00     0.009 A 
HETATM   26  C   UNL     1      30.625  45.798  58.302  1.00  0.00     0.001 A 
HETATM   27  C   UNL     1      31.600  44.811  58.169  1.00  0.00     0.000 A 
HETATM   28  C   UNL     1      31.524  43.895  57.122  1.00  0.00     0.001 A 
HETATM   29  C   UNL     1      30.476  43.969  56.203  1.00  0.00     0.009 A 
ENDBRANCH   6  24
TORSDOF 6
ENDMDL
MODEL 8
REMARK VINA RESULT:      -7.6      5.468     10.761
REMARK  6 active torsions:
REMARK  status: ('A' for Active; 'I' for Inactive)
REMARK    1  A    between atoms: O_2  and  C_3 
REMARK    2  A    between atoms: C_3  and  C_4 
REMARK    3  A    between atoms: C_4  and  N_5 
REMARK       I    between atoms: N_5  and  C_6 
REMARK    4  A    between atoms: C_6  and  C_7 
REMARK    5  A    between atoms: C_12  and  C_13 
REMARK    6  A    between atoms: C_20  and  C_21 
ROOT
HETATM    1  C   UNL     1      22.860  46.446  48.841  1.00  0.00     0.165 A 
HETATM    2  N   UNL     1      23.387  47.603  49.319  1.00  0.00    -0.163 NA
HETATM    3  N   UNL     1      22.406  48.503  49.137  1.00  0.00    -0.238 N 
HETATM    4  C   UNL     1      21.253  47.982  48.617  1.00  0.00     0.141 A 
HETATM    5  N   UNL     1      20.155  48.755  48.433  1.00  0.00    -0.365 N 
HETATM    6  C   UNL     1      20.233  50.207  48.566  1.00  0.00     0.118 C 
HETATM    7  C   UNL     1      21.208  50.566  49.702  1.00  0.00     0.066 C 
HETATM    8  C   UNL     1      22.581  49.900  49.491  1.00  0.00     0.221 C 
HETATM    9  C   UNL     1      21.526  46.654  48.406  1.00  0.00     0.092 A 
HETATM   10 BR   UNL     1      20.351  45.381  47.691  1.00  0.00    -0.044 Br
HETATM   11  H   UNL     1      19.377  48.409  47.871  1.00  0.00     0.162 HD
ENDROOT
BRANCH   1  12
HETATM   12  C   UNL     1      23.659  45.208  48.830  1.00  0.00     0.273 C 
HETATM   13  N   UNL     1      24.628  45.181  49.810  1.00  0.00    -0.353 N 
HETATM   14  H   UNL     1      24.571  45.923  50.505  1.00  0.00     0.162 HD
HETATM   15  O   UNL     1      23.488  44.288  48.036  1.00  0.00    -0.266 OA
BRANCH  13  16
HETATM   16  C   UNL     1      25.404  43.998  50.116  1.00  0.00     0.149 C 
BRANCH  16  17
HETATM   17  C   UNL     1      24.972  43.376  51.442  1.00  0.00     0.186 C 
BRANCH  17  18
HETATM   18  O   UNL     1      24.445  44.400  52.292  1.00  0.00    -0.394 OA
HETATM   19  C   UNL     1      25.279  44.619  53.423  1.00  0.00     0.201 C 
ENDBRANCH  17  18
ENDBRANCH  16  17
ENDBRANCH  13  16
ENDBRANCH   1  12
BRANCH   8  20
HETATM   20  C   UNL     1      23.396  50.601  48.426  1.00  0.00     0.409 C 
HETATM   21  F   UNL     1      23.129  51.922  48.339  1.00  0.00    -0.169 F 
HETATM   22  F   UNL     1      24.720  50.492  48.712  1.00  0.00    -0.169 F 
HETATM   23  F   UNL     1      23.225  50.066  47.198  1.00  0.00    -0.169 F 
ENDBRANCH   8  20
BRANCH   6  24
HETATM   24  C   UNL     1      18.858  50.794  48.830  1.00  0.00    -0.035 A 
HETATM   25  C   UNL     1      17.687  50.152  48.395  1.00  0.00     0.009 A 
HETATM   26  C   UNL     1      16.432  50.699  48.670  1.00  0.00     0.001 A 
HETATM   27  C   UNL     1      16.330  51.888  49.389  1.00  0.00     0.000 A 
HETATM   28  C   UNL     1      17.483  52.531  49.835  1.00  0.00     0.001 A 
HETATM   29  C   UNL     1      18.739  51.987  49.559  1.00  0.00     0.009 A 
ENDBRANCH   6  24
TORSDOF 6
ENDMDL
MODEL 9
REMARK VINA RESULT:      -7.6      7.812     10.285
REMARK  6 active torsions:
REMARK  status: ('A' for Active; 'I' for Inactive)
REMARK    1  A    between atoms: O_2  and  C_3 
REMARK    2  A    between atoms: C_3  and  C_4 
REMARK    3  A    between atoms: C_4  and  N_5 
REMARK       I    between atoms: N_5  and  C_6 
REMARK    4  A    between atoms: C_6  and  C_7 
REMARK    5  A    between atoms: C_12  and  C_13 
REMARK    6  A    between atoms: C_20  and  C_21 
ROOT
HETATM    1  C   UNL     1      19.273  48.904  46.606  1.00  0.00     0.165 A 
HETATM    2  N   UNL     1      19.497  50.089  47.229  1.00  0.00    -0.163 NA
HETATM    3  N   UNL     1      20.679  49.914  47.841  1.00  0.00    -0.238 N 
HETATM    4  C   UNL     1      21.261  48.699  47.605  1.00  0.00     0.141 A 
HETATM    5  N   UNL     1      22.484  48.398  48.105  1.00  0.00    -0.365 N 
HETATM    6  C   UNL     1      23.120  49.263  49.095  1.00  0.00     0.118 C 
HETATM    7  C   UNL     1      22.793  50.733  48.775  1.00  0.00     0.066 C 
HETATM    8  C   UNL     1      21.273  50.954  48.661  1.00  0.00     0.221 C 
HETATM    9  C   UNL     1      20.365  48.022  46.817  1.00  0.00     0.092 A 
HETATM   10 BR   UNL     1      20.564  46.280  46.155  1.00  0.00    -0.044 Br
HETATM   11  H   UNL     1      22.818  47.433  48.089  1.00  0.00     0.162 HD
ENDROOT
BRANCH   1  12
HETATM   12  C   UNL     1      18.033  48.681  45.842  1.00  0.00     0.273 C 
HETATM   13  N   UNL     1      17.174  47.792  46.453  1.00  0.00    -0.353 N 
HETATM   14  H   UNL     1      17.417  47.531  47.407  1.00  0.00     0.162 HD
HETATM   15  O   UNL     1      17.779  49.224  44.772  1.00  0.00    -0.266 OA
BRANCH  13  16
HETATM   16  C   UNL     1      15.822  47.563  45.992  1.00  0.00     0.149 C 
BRANCH  16  17
HETATM   17  C   UNL     1      14.846  48.565  46.604  1.00  0.00     0.186 C 
BRANCH  17  18
HETATM   18  O   UNL     1      15.194  48.783  47.975  1.00  0.00    -0.394 OA
HETATM   19  C   UNL     1      15.578  50.133  48.206  1.00  0.00     0.201 C 
ENDBRANCH  17  18
ENDBRANCH  16  17
ENDBRANCH  13  16
ENDBRANCH   1  12
BRANCH   8  20
HETATM   20  C   UNL     1      20.599  50.987  50.015  1.00  0.00     0.409 C 
HETATM   21  F   UNL     1      19.568  51.857  50.074  1.00  0.00    -0.169 F 
HETATM   22  F   UNL     1      20.087  49.762  50.306  1.00  0.00    -0.169 F 
HETATM   23  F   UNL     1      21.451  51.293  51.018  1.00  0.00    -0.169 F 
ENDBRANCH   8  20
BRANCH   6  24
HETATM   24  C   UNL     1      24.621  49.036  49.116  1.00  0.00    -0.035 A 
HETATM   25  C   UNL     1      25.191  47.931  49.769  1.00  0.00     0.009 A 
HETATM   26  C   UNL     1      26.573  47.731  49.755  1.00  0.00     0.001 A 
HETATM   27  C   UNL     1      27.401  48.627  49.083  1.00  0.00     0.000 A 
HETATM   28  C   UNL     1      26.850  49.723  48.423  1.00  0.00     0.001 A 
HETATM   29  C   UNL     1      25.468  49.926  48.438  1.00  0.00     0.009 A 
ENDBRANCH   6  24
TORSDOF 6
ENDMDL
MODEL 10
REMARK VINA RESULT:      -7.5      2.864      7.768
REMARK  6 active torsions:
REMARK  status: ('A' for Active; 'I' for Inactive)
REMARK    1  A    between atoms: O_2  and  C_3 
REMARK    2  A    between atoms: C_3  and  C_4 
REMARK    3  A    between atoms: C_4  and  N_5 
REMARK       I    between atoms: N_5  and  C_6 
REMARK    4  A    between atoms: C_6  and  C_7 
REMARK    5  A    between atoms: C_12  and  C_13 
REMARK    6  A    between atoms: C_20  and  C_21 
ROOT
HETATM    1  C   UNL     1      26.934  44.539  53.016  1.00  0.00     0.165 A 
HETATM    2  N   UNL     1      26.652  43.910  51.846  1.00  0.00    -0.163 NA
HETATM    3  N   UNL     1      25.897  44.796  51.176  1.00  0.00    -0.238 N 
HETATM    4  C   UNL     1      25.720  45.987  51.824  1.00  0.00     0.141 A 
HETATM    5  N   UNL     1      25.032  47.003  51.248  1.00  0.00    -0.365 N 
HETATM    6  C   UNL     1      24.267  46.788  50.023  1.00  0.00     0.118 C 
HETATM    7  C   UNL     1      25.021  45.797  49.117  1.00  0.00     0.066 C 
HETATM    8  C   UNL     1      25.348  44.492  49.867  1.00  0.00     0.221 C 
HETATM    9  C   UNL     1      26.371  45.842  53.023  1.00  0.00     0.092 A 
HETATM   10 BR   UNL     1      26.490  47.125  54.384  1.00  0.00    -0.044 Br
HETATM   11  H   UNL     1      24.740  47.805  51.809  1.00  0.00     0.162 HD
ENDROOT
BRANCH   1  12
HETATM   12  C   UNL     1      27.727  43.864  54.058  1.00  0.00     0.273 C 
HETATM   13  N   UNL     1      29.015  44.345  54.154  1.00  0.00    -0.353 N 
HETATM   14  H   UNL     1      29.208  45.193  53.624  1.00  0.00     0.162 HD
HETATM   15  O   UNL     1      27.296  42.965  54.773  1.00  0.00    -0.266 OA
BRANCH  13  16
HETATM   16  C   UNL     1      29.915  43.973  55.224  1.00  0.00     0.149 C 
BRANCH  16  17
HETATM   17  C   UNL     1      30.262  45.172  56.104  1.00  0.00     0.186 C 
BRANCH  17  18
HETATM   18  O   UNL     1      29.062  45.888  56.416  1.00  0.00    -0.394 OA
HETATM   19  C   UNL     1      28.954  46.138  57.812  1.00  0.00     0.201 C 
ENDBRANCH  17  18
ENDBRANCH  16  17
ENDBRANCH  13  16
ENDBRANCH   1  12
BRANCH   8  20
HETATM   20  C   UNL     1      24.135  43.600  50.014  1.00  0.00     0.409 C 
HETATM   21  F   UNL     1      23.433  43.842  51.142  1.00  0.00    -0.169 F 
HETATM   22  F   UNL     1      23.282  43.806  48.977  1.00  0.00    -0.169 F 
HETATM   23  F   UNL     1      24.446  42.286  49.998  1.00  0.00    -0.169 F 
ENDBRANCH   8  20
BRANCH   6  24
HETATM   24  C   UNL     1      24.029  48.103  49.304  1.00  0.00    -0.035 A 
HETATM   25  C   UNL     1      25.093  48.926  48.900  1.00  0.00     0.009 A 
HETATM   26  C   UNL     1      24.850  50.120  48.219  1.00  0.00     0.001 A 
HETATM   27  C   UNL     1      23.543  50.504  47.925  1.00  0.00     0.000 A 
HETATM   28  C   UNL     1      22.477  49.693  48.311  1.00  0.00     0.001 A 
HETATM   29  C   UNL     1      22.718  48.499  48.994  1.00  0.00     0.009 A 
ENDBRANCH   6  24
TORSDOF 6
ENDMDL
