MODEL 1
REMARK VINA RESULT:      -9.5      0.000      0.000
REMARK  4 active torsions:
REMARK  status: ('A' for Active; 'I' for Inactive)
REMARK    1  A    between atoms: C_7  and  N_8 
REMARK       I    between atoms: N_8  and  C_9 
REMARK    2  A    between atoms: C_9  and  C_10 
REMARK    3  A    between atoms: C_10  and  C_11 
REMARK    4  A    between atoms: C_14  and  O_15 
ROOT
HETATM    1  N   UNL     1      26.733  45.701  53.047  1.00  0.00    -0.326 N 
HETATM    2  C   UNL     1      25.818  46.704  52.773  1.00  0.00     0.226 C 
HETATM    3  O   UNL     1      25.637  47.716  53.444  1.00  0.00    -0.273 OA
HETATM    4  H   UNL     1      26.786  44.935  52.388  1.00  0.00     0.169 HD
ENDROOT
BRANCH   1   5
HETATM    5  C   UNL     1      27.617  45.650  54.147  1.00  0.00     0.053 A 
HETATM    6  C   UNL     1      27.637  46.552  55.203  1.00  0.00     0.146 A 
HETATM    7  N   UNL     1      28.497  46.484  56.253  1.00  0.00    -0.258 NA
HETATM    8  C   UNL     1      29.387  45.479  56.280  1.00  0.00     0.066 A 
HETATM    9  C   UNL     1      29.451  44.507  55.262  1.00  0.00    -0.005 A 
HETATM   10  C   UNL     1      30.275  45.383  57.342  1.00  0.00     0.032 A 
HETATM   11  C   UNL     1      30.396  43.467  55.340  1.00  0.00     0.014 A 
HETATM   12  C   UNL     1      28.551  44.613  54.188  1.00  0.00     0.044 A 
HETATM   13  C   UNL     1      31.274  43.392  56.419  1.00  0.00     0.001 A 
HETATM   14  C   UNL     1      31.215  44.353  57.422  1.00  0.00     0.002 A 
ENDBRANCH   1   5
BRANCH   2  15
HETATM   15  C   UNL     1      25.006  46.448  51.511  1.00  0.00     0.141 C 
BRANCH  15  16
HETATM   16  C   UNL     1      25.235  47.448  50.401  1.00  0.00    -0.049 A 
HETATM   17  C   UNL     1      24.131  48.044  49.768  1.00  0.00     0.010 A 
HETATM   18  C   UNL     1      24.312  49.017  48.782  1.00  0.00     0.037 A 
HETATM   19  C   UNL     1      25.600  49.405  48.432  1.00  0.00     0.065 A 
HETATM   20  C   UNL     1      26.705  48.839  49.053  1.00  0.00     0.037 A 
HETATM   21  C   UNL     1      26.524  47.871  50.044  1.00  0.00     0.010 A 
BRANCH  19  22
HETATM   22  O   UNL     1      25.823  50.356  47.482  1.00  0.00    -0.361 OA
HETATM   23  H   UNL     1      24.967  50.697  47.174  1.00  0.00     0.217 HD
ENDBRANCH  19  22
ENDBRANCH  15  16
ENDBRANCH   2  15
TORSDOF 4
ENDMDL
MODEL 2
REMARK VINA RESULT:      -8.7      1.118      2.024
REMARK  4 active torsions:
REMARK  status: ('A' for Active; 'I' for Inactive)
REMARK    1  A    between atoms: C_7  and  N_8 
REMARK       I    between atoms: N_8  and  C_9 
REMARK    2  A    between atoms: C_9  and  C_10 
REMARK    3  A    between atoms: C_10  and  C_11 
REMARK    4  A    between atoms: C_14  and  O_15 
ROOT
HETATM    1  N   UNL     1      26.736  45.010  52.477  1.00  0.00    -0.326 N 
HETATM    2  C   UNL     1      26.174  46.275  52.467  1.00  0.00     0.226 C 
HETATM    3  O   UNL     1      26.517  47.220  53.171  1.00  0.00    -0.273 OA
HETATM    4  H   UNL     1      26.363  44.336  51.820  1.00  0.00     0.169 HD
ENDROOT
BRANCH   1   5
HETATM    5  C   UNL     1      27.796  44.569  53.300  1.00  0.00     0.053 A 
HETATM    6  C   UNL     1      28.587  43.453  53.060  1.00  0.00     0.146 A 
HETATM    7  N   UNL     1      29.603  43.047  53.867  1.00  0.00    -0.258 NA
HETATM    8  C   UNL     1      29.867  43.768  54.967  1.00  0.00     0.066 A 
HETATM    9  C   UNL     1      29.128  44.920  55.303  1.00  0.00    -0.005 A 
HETATM   10  C   UNL     1      30.902  43.378  55.806  1.00  0.00     0.032 A 
HETATM   11  C   UNL     1      29.449  45.649  56.464  1.00  0.00     0.014 A 
HETATM   12  C   UNL     1      28.080  45.306  54.451  1.00  0.00     0.044 A 
HETATM   13  C   UNL     1      30.495  45.237  57.288  1.00  0.00     0.001 A 
HETATM   14  C   UNL     1      31.222  44.098  56.960  1.00  0.00     0.002 A 
ENDBRANCH   1   5
BRANCH   2  15
HETATM   15  C   UNL     1      25.037  46.420  51.466  1.00  0.00     0.141 C 
BRANCH  15  16
HETATM   16  C   UNL     1      25.243  47.501  50.430  1.00  0.00    -0.049 A 
HETATM   17  C   UNL     1      26.548  47.852  50.046  1.00  0.00     0.010 A 
HETATM   18  C   UNL     1      26.769  48.804  49.048  1.00  0.00     0.037 A 
HETATM   19  C   UNL     1      25.682  49.403  48.422  1.00  0.00     0.065 A 
HETATM   20  C   UNL     1      24.383  49.064  48.777  1.00  0.00     0.037 A 
HETATM   21  C   UNL     1      24.163  48.106  49.770  1.00  0.00     0.010 A 
BRANCH  19  22
HETATM   22  O   UNL     1      25.849  50.330  47.437  1.00  0.00    -0.361 OA
HETATM   23  H   UNL     1      26.088  51.179  47.845  1.00  0.00     0.217 HD
ENDBRANCH  19  22
ENDBRANCH  15  16
ENDBRANCH   2  15
TORSDOF 4
ENDMDL
MODEL 3
REMARK VINA RESULT:      -8.7      4.428      8.505
REMARK  4 active torsions:
REMARK  status: ('A' for Active; 'I' for Inactive)
REMARK    1  A    between atoms: C_7  and  N_8 
REMARK       I    between atoms: N_8  and  C_9 
REMARK    2  A    between atoms: C_9  and  C_10 
REMARK    3  A    between atoms: C_10  and  C_11 
REMARK    4  A    between atoms: C_14  and  O_15 
ROOT
HETATM    1  N   UNL     1      28.263  43.465  52.503  1.00  0.00    -0.326 N 
HETATM    2  C   UNL     1      28.799  42.671  53.503  1.00  0.00     0.226 C 
HETATM    3  O   UNL     1      28.230  41.740  54.064  1.00  0.00    -0.273 OA
HETATM    4  H   UNL     1      28.862  44.184  52.116  1.00  0.00     0.169 HD
ENDROOT
BRANCH   1   5
HETATM    5  C   UNL     1      26.968  43.358  51.951  1.00  0.00     0.053 A 
HETATM    6  C   UNL     1      25.845  44.040  52.401  1.00  0.00     0.146 A 
HETATM    7  N   UNL     1      24.606  43.922  51.854  1.00  0.00    -0.258 NA
HETATM    8  C   UNL     1      24.451  43.097  50.807  1.00  0.00     0.066 A 
HETATM    9  C   UNL     1      25.524  42.359  50.269  1.00  0.00    -0.005 A 
HETATM   10  C   UNL     1      23.198  42.960  50.226  1.00  0.00     0.032 A 
HETATM   11  C   UNL     1      25.312  41.512  49.164  1.00  0.00     0.014 A 
HETATM   12  C   UNL     1      26.788  42.499  50.864  1.00  0.00     0.044 A 
HETATM   13  C   UNL     1      24.044  41.396  48.598  1.00  0.00     0.001 A 
HETATM   14  C   UNL     1      22.984  42.120  49.131  1.00  0.00     0.002 A 
ENDBRANCH   1   5
BRANCH   2  15
HETATM   15  C   UNL     1      30.222  43.059  53.880  1.00  0.00     0.141 C 
BRANCH  15  16
HETATM   16  C   UNL     1      30.359  43.715  55.234  1.00  0.00    -0.049 A 
HETATM   17  C   UNL     1      31.218  43.152  56.193  1.00  0.00     0.010 A 
HETATM   18  C   UNL     1      31.412  43.771  57.431  1.00  0.00     0.037 A 
HETATM   19  C   UNL     1      30.752  44.962  57.710  1.00  0.00     0.065 A 
HETATM   20  C   UNL     1      29.908  45.543  56.774  1.00  0.00     0.037 A 
HETATM   21  C   UNL     1      29.720  44.928  55.534  1.00  0.00     0.010 A 
BRANCH  19  22
HETATM   22  O   UNL     1      30.918  45.605  58.901  1.00  0.00    -0.361 OA
HETATM   23  H   UNL     1      31.314  46.475  58.733  1.00  0.00     0.217 HD
ENDBRANCH  19  22
ENDBRANCH  15  16
ENDBRANCH   2  15
TORSDOF 4
ENDMDL
MODEL 4
REMARK VINA RESULT:      -8.5      3.199      8.389
REMARK  4 active torsions:
REMARK  status: ('A' for Active; 'I' for Inactive)
REMARK    1  A    between atoms: C_7  and  N_8 
REMARK       I    between atoms: N_8  and  C_9 
REMARK    2  A    between atoms: C_9  and  C_10 
REMARK    3  A    between atoms: C_10  and  C_11 
REMARK    4  A    between atoms: C_14  and  O_15 
ROOT
HETATM    1  N   UNL     1      28.626  43.732  52.153  1.00  0.00    -0.326 N 
HETATM    2  C   UNL     1      28.621  43.138  53.404  1.00  0.00     0.226 C 
HETATM    3  O   UNL     1      27.626  42.766  54.019  1.00  0.00    -0.273 OA
HETATM    4  H   UNL     1      29.529  43.964  51.757  1.00  0.00     0.169 HD
ENDROOT
BRANCH   1   5
HETATM    5  C   UNL     1      27.496  44.028  51.360  1.00  0.00     0.053 A 
HETATM    6  C   UNL     1      26.870  43.144  50.491  1.00  0.00     0.146 A 
HETATM    7  N   UNL     1      25.782  43.451  49.737  1.00  0.00    -0.258 NA
HETATM    8  C   UNL     1      25.269  44.687  49.837  1.00  0.00     0.066 A 
HETATM    9  C   UNL     1      25.823  45.661  50.691  1.00  0.00    -0.005 A 
HETATM   10  C   UNL     1      24.155  45.026  49.082  1.00  0.00     0.032 A 
HETATM   11  C   UNL     1      25.243  46.942  50.768  1.00  0.00     0.014 A 
HETATM   12  C   UNL     1      26.953  45.312  51.450  1.00  0.00     0.044 A 
HETATM   13  C   UNL     1      24.123  47.255  50.001  1.00  0.00     0.001 A 
HETATM   14  C   UNL     1      23.579  46.297  49.154  1.00  0.00     0.002 A 
ENDBRANCH   1   5
BRANCH   2  15
HETATM   15  C   UNL     1      30.014  42.969  53.995  1.00  0.00     0.141 C 
BRANCH  15  16
HETATM   16  C   UNL     1      30.239  43.704  55.296  1.00  0.00    -0.049 A 
HETATM   17  C   UNL     1      31.115  43.165  56.253  1.00  0.00     0.010 A 
HETATM   18  C   UNL     1      31.391  43.852  57.438  1.00  0.00     0.037 A 
HETATM   19  C   UNL     1      30.796  45.088  57.666  1.00  0.00     0.065 A 
HETATM   20  C   UNL     1      29.936  45.645  56.729  1.00  0.00     0.037 A 
HETATM   21  C   UNL     1      29.667  44.962  55.541  1.00  0.00     0.010 A 
BRANCH  19  22
HETATM   22  O   UNL     1      31.042  45.797  58.804  1.00  0.00    -0.361 OA
HETATM   23  H   UNL     1      32.003  45.888  58.913  1.00  0.00     0.217 HD
ENDBRANCH  19  22
ENDBRANCH  15  16
ENDBRANCH   2  15
TORSDOF 4
ENDMDL
MODEL 5
REMARK VINA RESULT:      -8.4      2.550      3.485
REMARK  4 active torsions:
REMARK  status: ('A' for Active; 'I' for Inactive)
REMARK    1  A    between atoms: C_7  and  N_8 
REMARK       I    between atoms: N_8  and  C_9 
REMARK    2  A    between atoms: C_9  and  C_10 
REMARK    3  A    between atoms: C_10  and  C_11 
REMARK    4  A    between atoms: C_14  and  O_15 
ROOT
HETATM    1  N   UNL     1      28.451  43.844  52.424  1.00  0.00    -0.326 N 
HETATM    2  C   UNL     1      27.979  42.711  51.781  1.00  0.00     0.226 C 
HETATM    3  O   UNL     1      28.111  41.555  52.172  1.00  0.00    -0.273 OA
HETATM    4  H   UNL     1      28.244  44.737  51.993  1.00  0.00     0.169 HD
ENDROOT
BRANCH   1   5
HETATM    5  C   UNL     1      29.175  43.880  53.635  1.00  0.00     0.053 A 
HETATM    6  C   UNL     1      30.217  43.027  53.973  1.00  0.00     0.146 A 
HETATM    7  N   UNL     1      30.902  43.080  55.146  1.00  0.00    -0.258 NA
HETATM    8  C   UNL     1      30.556  44.019  56.040  1.00  0.00     0.066 A 
HETATM    9  C   UNL     1      29.516  44.938  55.798  1.00  0.00    -0.005 A 
HETATM   10  C   UNL     1      31.241  44.099  57.245  1.00  0.00     0.032 A 
HETATM   11  C   UNL     1      29.196  45.911  56.764  1.00  0.00     0.014 A 
HETATM   12  C   UNL     1      28.824  44.849  54.578  1.00  0.00     0.044 A 
HETATM   13  C   UNL     1      29.902  45.971  57.964  1.00  0.00     0.001 A 
HETATM   14  C   UNL     1      30.925  45.062  58.206  1.00  0.00     0.002 A 
ENDBRANCH   1   5
BRANCH   2  15
HETATM   15  C   UNL     1      27.245  43.018  50.483  1.00  0.00     0.141 C 
BRANCH  15  16
HETATM   16  C   UNL     1      26.458  44.309  50.495  1.00  0.00    -0.049 A 
HETATM   17  C   UNL     1      25.316  44.416  51.307  1.00  0.00     0.010 A 
HETATM   18  C   UNL     1      24.604  45.616  51.386  1.00  0.00     0.037 A 
HETATM   19  C   UNL     1      25.039  46.717  50.659  1.00  0.00     0.065 A 
HETATM   20  C   UNL     1      26.171  46.639  49.859  1.00  0.00     0.037 A 
HETATM   21  C   UNL     1      26.887  45.441  49.786  1.00  0.00     0.010 A 
BRANCH  19  22
HETATM   22  O   UNL     1      24.381  47.910  50.712  1.00  0.00    -0.361 OA
HETATM   23  H   UNL     1      24.308  48.267  49.812  1.00  0.00     0.217 HD
ENDBRANCH  19  22
ENDBRANCH  15  16
ENDBRANCH   2  15
TORSDOF 4
ENDMDL
MODEL 6
REMARK VINA RESULT:      -8.4      2.707      8.508
REMARK  4 active torsions:
REMARK  status: ('A' for Active; 'I' for Inactive)
REMARK    1  A    between atoms: C_7  and  N_8 
REMARK       I    between atoms: N_8  and  C_9 
REMARK    2  A    between atoms: C_9  and  C_10 
REMARK    3  A    between atoms: C_10  and  C_11 
REMARK    4  A    between atoms: C_14  and  O_15 
ROOT
HETATM    1  N   UNL     1      25.819  45.702  51.065  1.00  0.00    -0.326 N 
HETATM    2  C   UNL     1      26.806  44.769  50.794  1.00  0.00     0.226 C 
HETATM    3  O   UNL     1      27.597  44.812  49.856  1.00  0.00    -0.273 OA
HETATM    4  H   UNL     1      25.254  45.546  51.891  1.00  0.00     0.169 HD
ENDROOT
BRANCH   1   5
HETATM    5  C   UNL     1      25.532  46.863  50.314  1.00  0.00     0.053 A 
HETATM    6  C   UNL     1      26.470  47.794  49.887  1.00  0.00     0.146 A 
HETATM    7  N   UNL     1      26.172  48.906  49.165  1.00  0.00    -0.258 NA
HETATM    8  C   UNL     1      24.890  49.123  48.834  1.00  0.00     0.066 A 
HETATM    9  C   UNL     1      23.858  48.239  49.212  1.00  0.00    -0.005 A 
HETATM   10  C   UNL     1      24.557  50.248  48.093  1.00  0.00     0.032 A 
HETATM   11  C   UNL     1      22.529  48.506  48.833  1.00  0.00     0.014 A 
HETATM   12  C   UNL     1      24.202  47.105  49.965  1.00  0.00     0.044 A 
HETATM   13  C   UNL     1      22.223  49.641  48.085  1.00  0.00     0.001 A 
HETATM   14  C   UNL     1      23.239  50.516  47.716  1.00  0.00     0.002 A 
ENDBRANCH   1   5
BRANCH   2  15
HETATM   15  C   UNL     1      26.843  43.624  51.796  1.00  0.00     0.141 C 
BRANCH  15  16
HETATM   16  C   UNL     1      28.002  43.672  52.765  1.00  0.00    -0.049 A 
HETATM   17  C   UNL     1      27.905  44.464  53.922  1.00  0.00     0.010 A 
HETATM   18  C   UNL     1      28.934  44.480  54.866  1.00  0.00     0.037 A 
HETATM   19  C   UNL     1      30.063  43.695  54.660  1.00  0.00     0.065 A 
HETATM   20  C   UNL     1      30.176  42.896  53.530  1.00  0.00     0.037 A 
HETATM   21  C   UNL     1      29.143  42.875  52.590  1.00  0.00     0.010 A 
BRANCH  19  22
HETATM   22  O   UNL     1      31.088  43.673  55.558  1.00  0.00    -0.361 OA
HETATM   23  H   UNL     1      31.605  44.489  55.462  1.00  0.00     0.217 HD
ENDBRANCH  19  22
ENDBRANCH  15  16
ENDBRANCH   2  15
TORSDOF 4
ENDMDL
MODEL 7
REMARK VINA RESULT:      -8.3      5.018      8.319
REMARK  4 active torsions:
REMARK  status: ('A' for Active; 'I' for Inactive)
REMARK    1  A    between atoms: C_7  and  N_8 
REMARK       I    between atoms: N_8  and  C_9 
REMARK    2  A    between atoms: C_9  and  C_10 
REMARK    3  A    between atoms: C_10  and  C_11 
REMARK    4  A    between atoms: C_14  and  O_15 
ROOT
HETATM    1  N   UNL     1      28.073  43.223  52.320  1.00  0.00    -0.326 N 
HETATM    2  C   UNL     1      27.675  43.506  53.616  1.00  0.00     0.226 C 
HETATM    3  O   UNL     1      26.935  42.814  54.308  1.00  0.00    -0.273 OA
HETATM    4  H   UNL     1      28.709  43.878  51.881  1.00  0.00     0.169 HD
ENDROOT
BRANCH   1   5
HETATM    5  C   UNL     1      27.698  42.098  51.554  1.00  0.00     0.053 A 
HETATM    6  C   UNL     1      26.492  41.951  50.880  1.00  0.00     0.146 A 
HETATM    7  N   UNL     1      26.151  40.858  50.148  1.00  0.00    -0.258 NA
HETATM    8  C   UNL     1      27.034  39.852  50.062  1.00  0.00     0.066 A 
HETATM    9  C   UNL     1      28.288  39.898  50.704  1.00  0.00    -0.005 A 
HETATM   10  C   UNL     1      26.714  38.725  49.318  1.00  0.00     0.032 A 
HETATM   11  C   UNL     1      29.184  38.819  50.577  1.00  0.00     0.014 A 
HETATM   12  C   UNL     1      28.604  41.039  51.459  1.00  0.00     0.044 A 
HETATM   13  C   UNL     1      28.839  37.701  49.820  1.00  0.00     0.001 A 
HETATM   14  C   UNL     1      27.600  37.653  49.191  1.00  0.00     0.002 A 
ENDBRANCH   1   5
BRANCH   2  15
HETATM   15  C   UNL     1      28.252  44.810  54.151  1.00  0.00     0.141 C 
BRANCH  15  16
HETATM   16  C   UNL     1      29.328  44.640  55.198  1.00  0.00    -0.049 A 
HETATM   17  C   UNL     1      29.437  45.580  56.237  1.00  0.00     0.010 A 
HETATM   18  C   UNL     1      30.381  45.415  57.254  1.00  0.00     0.037 A 
HETATM   19  C   UNL     1      31.215  44.303  57.239  1.00  0.00     0.065 A 
HETATM   20  C   UNL     1      31.118  43.356  56.229  1.00  0.00     0.037 A 
HETATM   21  C   UNL     1      30.168  43.517  55.217  1.00  0.00     0.010 A 
BRANCH  19  22
HETATM   22  O   UNL     1      32.145  44.098  58.214  1.00  0.00    -0.361 OA
HETATM   23  H   UNL     1      32.432  43.171  58.182  1.00  0.00     0.217 HD
ENDBRANCH  19  22
ENDBRANCH  15  16
ENDBRANCH   2  15
TORSDOF 4
ENDMDL
MODEL 8
REMARK VINA RESULT:      -8.2      5.070      6.233
REMARK  4 active torsions:
REMARK  status: ('A' for Active; 'I' for Inactive)
REMARK    1  A    between atoms: C_7  and  N_8 
REMARK       I    between atoms: N_8  and  C_9 
REMARK    2  A    between atoms: C_9  and  C_10 
REMARK    3  A    between atoms: C_10  and  C_11 
REMARK    4  A    between atoms: C_14  and  O_15 
ROOT
HETATM    1  N   UNL     1      26.868  42.913  51.626  1.00  0.00    -0.326 N 
HETATM    2  C   UNL     1      26.841  43.268  50.287  1.00  0.00     0.226 C 
HETATM    3  O   UNL     1      27.335  44.281  49.802  1.00  0.00    -0.273 OA
HETATM    4  H   UNL     1      26.437  42.031  51.877  1.00  0.00     0.169 HD
ENDROOT
BRANCH   1   5
HETATM    5  C   UNL     1      27.456  43.649  52.677  1.00  0.00     0.053 A 
HETATM    6  C   UNL     1      26.974  44.849  53.185  1.00  0.00     0.146 A 
HETATM    7  N   UNL     1      27.556  45.541  54.199  1.00  0.00    -0.258 NA
HETATM    8  C   UNL     1      28.669  45.037  54.754  1.00  0.00     0.066 A 
HETATM    9  C   UNL     1      29.241  43.825  54.319  1.00  0.00    -0.005 A 
HETATM   10  C   UNL     1      29.283  45.721  55.794  1.00  0.00     0.032 A 
HETATM   11  C   UNL     1      30.405  43.332  54.939  1.00  0.00     0.014 A 
HETATM   12  C   UNL     1      28.617  43.140  53.263  1.00  0.00     0.044 A 
HETATM   13  C   UNL     1      30.999  44.038  55.984  1.00  0.00     0.001 A 
HETATM   14  C   UNL     1      30.438  45.236  56.411  1.00  0.00     0.002 A 
ENDBRANCH   1   5
BRANCH   2  15
HETATM   15  C   UNL     1      26.114  42.257  49.412  1.00  0.00     0.141 C 
BRANCH  15  16
HETATM   16  C   UNL     1      26.822  40.930  49.261  1.00  0.00    -0.049 A 
HETATM   17  C   UNL     1      28.114  40.894  48.707  1.00  0.00     0.010 A 
HETATM   18  C   UNL     1      28.818  39.691  48.612  1.00  0.00     0.037 A 
HETATM   19  C   UNL     1      28.235  38.519  49.080  1.00  0.00     0.065 A 
HETATM   20  C   UNL     1      26.965  38.532  49.641  1.00  0.00     0.037 A 
HETATM   21  C   UNL     1      26.265  39.736  49.743  1.00  0.00     0.010 A 
BRANCH  19  22
HETATM   22  O   UNL     1      28.888  37.324  49.014  1.00  0.00    -0.361 OA
HETATM   23  H   UNL     1      28.495  36.718  49.663  1.00  0.00     0.217 HD
ENDBRANCH  19  22
ENDBRANCH  15  16
ENDBRANCH   2  15
TORSDOF 4
ENDMDL
MODEL 9
REMARK VINA RESULT:      -8.2      3.977      5.195
REMARK  4 active torsions:
REMARK  status: ('A' for Active; 'I' for Inactive)
REMARK    1  A    between atoms: C_7  and  N_8 
REMARK       I    between atoms: N_8  and  C_9 
REMARK    2  A    between atoms: C_9  and  C_10 
REMARK    3  A    between atoms: C_10  and  C_11 
REMARK    4  A    between atoms: C_14  and  O_15 
ROOT
HETATM    1  N   UNL     1      27.865  44.357  52.846  1.00  0.00    -0.326 N 
HETATM    2  C   UNL     1      26.556  43.932  52.692  1.00  0.00     0.226 C 
HETATM    3  O   UNL     1      25.730  43.807  53.591  1.00  0.00    -0.273 OA
HETATM    4  H   UNL     1      28.425  44.435  52.006  1.00  0.00     0.169 HD
ENDROOT
BRANCH   1   5
HETATM    5  C   UNL     1      28.494  44.713  54.059  1.00  0.00     0.053 A 
HETATM    6  C   UNL     1      28.204  45.844  54.812  1.00  0.00     0.146 A 
HETATM    7  N   UNL     1      28.822  46.168  55.978  1.00  0.00    -0.258 NA
HETATM    8  C   UNL     1      29.773  45.343  56.442  1.00  0.00     0.066 A 
HETATM    9  C   UNL     1      30.143  44.166  55.760  1.00  0.00    -0.005 A 
HETATM   10  C   UNL     1      30.418  45.646  57.633  1.00  0.00     0.032 A 
HETATM   11  C   UNL     1      31.141  43.328  56.292  1.00  0.00     0.014 A 
HETATM   12  C   UNL     1      29.489  43.867  54.553  1.00  0.00     0.044 A 
HETATM   13  C   UNL     1      31.771  43.655  57.491  1.00  0.00     0.001 A 
HETATM   14  C   UNL     1      31.410  44.818  58.163  1.00  0.00     0.002 A 
ENDBRANCH   1   5
BRANCH   2  15
HETATM   15  C   UNL     1      26.193  43.614  51.248  1.00  0.00     0.141 C 
BRANCH  15  16
HETATM   16  C   UNL     1      26.547  42.214  50.804  1.00  0.00    -0.049 A 
HETATM   17  C   UNL     1      25.635  41.483  50.024  1.00  0.00     0.010 A 
HETATM   18  C   UNL     1      25.959  40.211  49.547  1.00  0.00     0.037 A 
HETATM   19  C   UNL     1      27.204  39.667  49.842  1.00  0.00     0.065 A 
HETATM   20  C   UNL     1      28.126  40.375  50.600  1.00  0.00     0.037 A 
HETATM   21  C   UNL     1      27.804  41.651  51.071  1.00  0.00     0.010 A 
BRANCH  19  22
HETATM   22  O   UNL     1      27.567  38.433  49.391  1.00  0.00    -0.361 OA
HETATM   23  H   UNL     1      26.779  37.983  49.045  1.00  0.00     0.217 HD
ENDBRANCH  19  22
ENDBRANCH  15  16
ENDBRANCH   2  15
TORSDOF 4
ENDMDL
MODEL 10
REMARK VINA RESULT:      -8.0      4.339      8.514
REMARK  4 active torsions:
REMARK  status: ('A' for Active; 'I' for Inactive)
REMARK    1  A    between atoms: C_7  and  N_8 
REMARK       I    between atoms: N_8  and  C_9 
REMARK    2  A    between atoms: C_9  and  C_10 
REMARK    3  A    between atoms: C_10  and  C_11 
REMARK    4  A    between atoms: C_14  and  O_15 
ROOT
HETATM    1  N   UNL     1      28.583  42.735  51.885  1.00  0.00    -0.326 N 
HETATM    2  C   UNL     1      28.943  42.164  53.094  1.00  0.00     0.226 C 
HETATM    3  O   UNL     1      28.285  41.341  53.725  1.00  0.00    -0.273 OA
HETATM    4  H   UNL     1      29.241  43.384  51.469  1.00  0.00     0.169 HD
ENDROOT
BRANCH   1   5
HETATM    5  C   UNL     1      27.398  42.486  51.159  1.00  0.00     0.053 A 
HETATM    6  C   UNL     1      27.186  41.404  50.315  1.00  0.00     0.146 A 
HETATM    7  N   UNL     1      26.035  41.184  49.625  1.00  0.00    -0.258 NA
HETATM    8  C   UNL     1      25.032  42.064  49.768  1.00  0.00     0.066 A 
HETATM    9  C   UNL     1      25.139  43.194  50.602  1.00  0.00    -0.005 A 
HETATM   10  C   UNL     1      23.844  41.862  49.079  1.00  0.00     0.032 A 
HETATM   11  C   UNL     1      24.055  44.084  50.726  1.00  0.00     0.014 A 
HETATM   12  C   UNL     1      26.346  43.395  51.293  1.00  0.00     0.044 A 
HETATM   13  C   UNL     1      22.873  43.855  50.025  1.00  0.00     0.001 A 
HETATM   14  C   UNL     1      22.767  42.743  49.198  1.00  0.00     0.002 A 
ENDBRANCH   1   5
BRANCH   2  15
HETATM   15  C   UNL     1      30.284  42.658  53.617  1.00  0.00     0.141 C 
BRANCH  15  16
HETATM   16  C   UNL     1      30.195  43.565  54.822  1.00  0.00    -0.049 A 
HETATM   17  C   UNL     1      31.088  43.384  55.893  1.00  0.00     0.010 A 
HETATM   18  C   UNL     1      31.071  44.245  56.992  1.00  0.00     0.037 A 
HETATM   19  C   UNL     1      30.164  45.299  57.021  1.00  0.00     0.065 A 
HETATM   20  C   UNL     1      29.281  45.505  55.970  1.00  0.00     0.037 A 
HETATM   21  C   UNL     1      29.304  44.647  54.867  1.00  0.00     0.010 A 
BRANCH  19  22
HETATM   22  O   UNL     1      30.117  46.169  58.069  1.00  0.00    -0.361 OA
HETATM   23  H   UNL     1      30.017  47.070  57.723  1.00  0.00     0.217 HD
ENDBRANCH  19  22
ENDBRANCH  15  16
ENDBRANCH   2  15
TORSDOF 4
ENDMDL
