MODEL 1
REMARK VINA RESULT:     -10.0      0.000      0.000
REMARK  6 active torsions:
REMARK  status: ('A' for Active; 'I' for Inactive)
REMARK    1  A    between atoms: C_2  and  C_3 
REMARK    2  A    between atoms: C_3  and  C_4 
REMARK    3  A    between atoms: C_3  and  C_11 
REMARK    4  A    between atoms: C_11  and  C_12 
REMARK       I    between atoms: C_12  and  N_13 
REMARK    5  A    between atoms: N_13  and  C_14 
REMARK    6  A    between atoms: C_21  and  C_22 
REMARK       I    between atoms: C_22  and  N_23 
ROOT
HETATM    1  C   UNL     1      25.970  47.312  50.361  1.00  0.00     0.035 A 
HETATM    2  C   UNL     1      24.670  47.545  49.889  1.00  0.00     0.046 A 
HETATM    3  C   UNL     1      24.435  48.590  48.970  1.00  0.00     0.030 A 
HETATM    4  C   UNL     1      25.506  49.373  48.557  1.00  0.00     0.063 A 
HETATM    5  N   UNL     1      24.975  50.286  47.690  1.00  0.00    -0.277 N 
HETATM    6  H   UNL     1      25.466  51.021  47.195  1.00  0.00     0.189 HD
HETATM    7  N   UNL     1      23.652  50.162  47.493  1.00  0.00    -0.168 NA
HETATM    8  C   UNL     1      23.304  49.115  48.275  1.00  0.00     0.156 A 
HETATM    9  C   UNL     1      26.814  49.172  49.005  1.00  0.00     0.034 A 
HETATM   10  C   UNL     1      27.021  48.123  49.911  1.00  0.00     0.032 A 
ENDROOT
BRANCH   1  11
HETATM   11  N   UNL     1      26.301  46.279  51.263  1.00  0.00    -0.327 N 
HETATM   12  C   UNL     1      26.941  45.084  50.970  1.00  0.00     0.222 C 
HETATM   13  O   UNL     1      27.228  44.674  49.853  1.00  0.00    -0.273 OA
HETATM   14  H   UNL     1      26.013  46.415  52.224  1.00  0.00     0.169 HD
BRANCH  12  15
HETATM   15  C   UNL     1      27.221  44.269  52.226  1.00  0.00     0.112 C 
BRANCH  15  16
HETATM   16  C   UNL     1      27.435  45.151  53.472  1.00  0.00     0.027 C 
BRANCH  16  17
HETATM   17  C   UNL     1      26.160  45.353  54.328  1.00  0.00     0.005 C 
HETATM   18  C   UNL     1      25.232  44.150  54.443  1.00  0.00     0.006 C 
ENDBRANCH  16  17
BRANCH  16  19
HETATM   19  C   UNL     1      28.607  44.689  54.333  1.00  0.00    -0.053 A 
HETATM   20  C   UNL     1      29.254  43.461  54.139  1.00  0.00     0.008 A 
HETATM   21  C   UNL     1      30.309  43.070  54.969  1.00  0.00     0.007 A 
HETATM   22  C   UNL     1      30.745  43.901  56.006  1.00  0.00    -0.062 A 
HETATM   23  C   UNL     1      31.855  43.476  56.921  1.00  0.00     0.048 C 
HETATM   24  C   UNL     1      30.097  45.121  56.211  1.00  0.00     0.007 A 
HETATM   25  C   UNL     1      29.041  45.510  55.386  1.00  0.00     0.008 A 
ENDBRANCH  16  19
ENDBRANCH  15  16
ENDBRANCH  12  15
ENDBRANCH   1  11
BRANCH   8  26
HETATM   26  C   UNL     1      21.914  48.640  48.339  1.00  0.00     0.270 C 
HETATM   27  N   UNL     1      21.343  48.746  49.578  1.00  0.00    -0.365 N 
HETATM   28  H   UNL     1      21.894  49.135  50.335  1.00  0.00     0.159 HD
HETATM   29  H   UNL     1      20.389  48.452  49.713  1.00  0.00     0.159 HD
HETATM   30  O   UNL     1      21.284  48.187  47.389  1.00  0.00    -0.266 OA
ENDBRANCH   8  26
TORSDOF 6
ENDMDL
MODEL 2
REMARK VINA RESULT:      -9.3      1.868      2.650
REMARK  6 active torsions:
REMARK  status: ('A' for Active; 'I' for Inactive)
REMARK    1  A    between atoms: C_2  and  C_3 
REMARK    2  A    between atoms: C_3  and  C_4 
REMARK    3  A    between atoms: C_3  and  C_11 
REMARK    4  A    between atoms: C_11  and  C_12 
REMARK       I    between atoms: C_12  and  N_13 
REMARK    5  A    between atoms: N_13  and  C_14 
REMARK    6  A    between atoms: C_21  and  C_22 
REMARK       I    between atoms: C_22  and  N_23 
ROOT
HETATM    1  C   UNL     1      24.870  45.602  50.455  1.00  0.00     0.035 A 
HETATM    2  C   UNL     1      24.787  46.943  50.055  1.00  0.00     0.046 A 
HETATM    3  C   UNL     1      23.780  47.342  49.150  1.00  0.00     0.030 A 
HETATM    4  C   UNL     1      22.893  46.387  48.670  1.00  0.00     0.063 A 
HETATM    5  N   UNL     1      22.055  47.062  47.827  1.00  0.00    -0.277 N 
HETATM    6  H   UNL     1      21.282  46.681  47.294  1.00  0.00     0.189 HD
HETATM    7  N   UNL     1      22.311  48.376  47.721  1.00  0.00    -0.168 NA
HETATM    8  C   UNL     1      23.374  48.566  48.537  1.00  0.00     0.156 A 
HETATM    9  C   UNL     1      22.944  45.043  49.045  1.00  0.00     0.034 A 
HETATM   10  C   UNL     1      23.948  44.674  49.951  1.00  0.00     0.032 A 
ENDROOT
BRANCH   1  11
HETATM   11  N   UNL     1      25.829  45.116  51.370  1.00  0.00    -0.327 N 
HETATM   12  C   UNL     1      25.587  44.461  52.569  1.00  0.00     0.222 C 
HETATM   13  O   UNL     1      24.493  44.293  53.090  1.00  0.00    -0.273 OA
HETATM   14  H   UNL     1      26.798  45.292  51.137  1.00  0.00     0.169 HD
BRANCH  12  15
HETATM   15  C   UNL     1      26.878  43.995  53.229  1.00  0.00     0.112 C 
BRANCH  15  16
HETATM   16  C   UNL     1      27.671  45.152  53.868  1.00  0.00     0.027 C 
BRANCH  16  17
HETATM   17  C   UNL     1      26.797  46.150  54.668  1.00  0.00     0.005 C 
HETATM   18  C   UNL     1      26.664  47.548  54.078  1.00  0.00     0.006 C 
ENDBRANCH  16  17
BRANCH  16  19
HETATM   19  C   UNL     1      28.857  44.672  54.699  1.00  0.00    -0.053 A 
HETATM   20  C   UNL     1      29.503  43.451  54.465  1.00  0.00     0.008 A 
HETATM   21  C   UNL     1      30.572  43.042  55.269  1.00  0.00     0.007 A 
HETATM   22  C   UNL     1      31.023  43.847  56.318  1.00  0.00    -0.062 A 
HETATM   23  C   UNL     1      32.148  43.403  57.204  1.00  0.00     0.048 C 
HETATM   24  C   UNL     1      30.376  45.061  56.564  1.00  0.00     0.007 A 
HETATM   25  C   UNL     1      29.307  45.468  55.764  1.00  0.00     0.008 A 
ENDBRANCH  16  19
ENDBRANCH  15  16
ENDBRANCH  12  15
ENDBRANCH   1  11
BRANCH   8  26
HETATM   26  C   UNL     1      23.970  49.898  48.715  1.00  0.00     0.270 C 
HETATM   27  N   UNL     1      25.103  50.107  47.976  1.00  0.00    -0.365 N 
HETATM   28  H   UNL     1      25.436  49.361  47.377  1.00  0.00     0.159 HD
HETATM   29  H   UNL     1      25.574  50.995  48.029  1.00  0.00     0.159 HD
HETATM   30  O   UNL     1      23.521  50.775  49.445  1.00  0.00    -0.266 OA
ENDBRANCH   8  26
TORSDOF 6
ENDMDL
MODEL 3
REMARK VINA RESULT:      -8.9      1.763      2.914
REMARK  6 active torsions:
REMARK  status: ('A' for Active; 'I' for Inactive)
REMARK    1  A    between atoms: C_2  and  C_3 
REMARK    2  A    between atoms: C_3  and  C_4 
REMARK    3  A    between atoms: C_3  and  C_11 
REMARK    4  A    between atoms: C_11  and  C_12 
REMARK       I    between atoms: C_12  and  N_13 
REMARK    5  A    between atoms: N_13  and  C_14 
REMARK    6  A    between atoms: C_21  and  C_22 
REMARK       I    between atoms: C_22  and  N_23 
ROOT
HETATM    1  C   UNL     1      25.735  47.482  50.531  1.00  0.00     0.035 A 
HETATM    2  C   UNL     1      24.458  47.782  50.034  1.00  0.00     0.046 A 
HETATM    3  C   UNL     1      24.313  48.749  49.016  1.00  0.00     0.030 A 
HETATM    4  C   UNL     1      25.447  49.389  48.532  1.00  0.00     0.063 A 
HETATM    5  N   UNL     1      24.993  50.256  47.578  1.00  0.00    -0.277 N 
HETATM    6  H   UNL     1      25.546  50.892  47.014  1.00  0.00     0.189 HD
HETATM    7  N   UNL     1      23.664  50.232  47.389  1.00  0.00    -0.168 NA
HETATM    8  C   UNL     1      23.228  49.302  48.270  1.00  0.00     0.156 A 
HETATM    9  C   UNL     1      26.734  49.116  49.001  1.00  0.00     0.034 A 
HETATM   10  C   UNL     1      26.852  48.147  50.006  1.00  0.00     0.032 A 
ENDROOT
BRANCH   1  11
HETATM   11  N   UNL     1      25.978  46.516  51.531  1.00  0.00    -0.327 N 
HETATM   12  C   UNL     1      25.794  46.660  52.898  1.00  0.00     0.222 C 
HETATM   13  O   UNL     1      25.492  47.694  53.480  1.00  0.00    -0.273 OA
HETATM   14  H   UNL     1      26.357  45.632  51.215  1.00  0.00     0.169 HD
BRANCH  12  15
HETATM   15  C   UNL     1      26.064  45.361  53.645  1.00  0.00     0.112 C 
BRANCH  15  16
HETATM   16  C   UNL     1      27.565  45.012  53.707  1.00  0.00     0.027 C 
BRANCH  16  17
HETATM   17  C   UNL     1      28.183  45.135  55.122  1.00  0.00     0.005 C 
HETATM   18  C   UNL     1      28.661  46.524  55.527  1.00  0.00     0.006 C 
ENDBRANCH  16  17
BRANCH  16  19
HETATM   19  C   UNL     1      27.886  43.658  53.082  1.00  0.00    -0.053 A 
HETATM   20  C   UNL     1      28.987  42.884  53.472  1.00  0.00     0.008 A 
HETATM   21  C   UNL     1      29.254  41.658  52.853  1.00  0.00     0.007 A 
HETATM   22  C   UNL     1      28.423  41.177  51.837  1.00  0.00    -0.062 A 
HETATM   23  C   UNL     1      28.719  39.879  51.146  1.00  0.00     0.048 C 
HETATM   24  C   UNL     1      27.330  41.949  51.437  1.00  0.00     0.007 A 
HETATM   25  C   UNL     1      27.065  43.174  52.051  1.00  0.00     0.008 A 
ENDBRANCH  16  19
ENDBRANCH  15  16
ENDBRANCH  12  15
ENDBRANCH   1  11
BRANCH   8  26
HETATM   26  C   UNL     1      21.802  48.961  48.375  1.00  0.00     0.270 C 
HETATM   27  N   UNL     1      21.236  49.294  49.576  1.00  0.00    -0.365 N 
HETATM   28  H   UNL     1      21.814  49.739  50.279  1.00  0.00     0.159 HD
HETATM   29  H   UNL     1      20.259  49.105  49.735  1.00  0.00     0.159 HD
HETATM   30  O   UNL     1      21.140  48.432  47.489  1.00  0.00    -0.266 OA
ENDBRANCH   8  26
TORSDOF 6
ENDMDL
MODEL 4
REMARK VINA RESULT:      -8.8      1.694      2.236
REMARK  6 active torsions:
REMARK  status: ('A' for Active; 'I' for Inactive)
REMARK    1  A    between atoms: C_2  and  C_3 
REMARK    2  A    between atoms: C_3  and  C_4 
REMARK    3  A    between atoms: C_3  and  C_11 
REMARK    4  A    between atoms: C_11  and  C_12 
REMARK       I    between atoms: C_12  and  N_13 
REMARK    5  A    between atoms: N_13  and  C_14 
REMARK    6  A    between atoms: C_21  and  C_22 
REMARK       I    between atoms: C_22  and  N_23 
ROOT
HETATM    1  C   UNL     1      25.277  46.092  50.428  1.00  0.00     0.035 A 
HETATM    2  C   UNL     1      24.039  45.620  49.971  1.00  0.00     0.046 A 
HETATM    3  C   UNL     1      23.204  46.467  49.210  1.00  0.00     0.030 A 
HETATM    4  C   UNL     1      23.633  47.759  48.935  1.00  0.00     0.063 A 
HETATM    5  N   UNL     1      22.629  48.325  48.200  1.00  0.00    -0.277 N 
HETATM    6  H   UNL     1      22.598  49.266  47.826  1.00  0.00     0.189 HD
HETATM    7  N   UNL     1      21.586  47.513  47.963  1.00  0.00    -0.168 NA
HETATM    8  C   UNL     1      21.928  46.358  48.579  1.00  0.00     0.156 A 
HETATM    9  C   UNL     1      24.860  48.264  49.371  1.00  0.00     0.034 A 
HETATM   10  C   UNL     1      25.673  47.401  50.118  1.00  0.00     0.032 A 
ENDROOT
BRANCH   1  11
HETATM   11  N   UNL     1      26.185  45.311  51.176  1.00  0.00    -0.327 N 
HETATM   12  C   UNL     1      27.148  44.443  50.683  1.00  0.00     0.222 C 
HETATM   13  O   UNL     1      27.299  44.123  49.512  1.00  0.00    -0.273 OA
HETATM   14  H   UNL     1      26.101  45.371  52.183  1.00  0.00     0.169 HD
BRANCH  12  15
HETATM   15  C   UNL     1      28.008  43.861  51.797  1.00  0.00     0.112 C 
BRANCH  15  16
HETATM   16  C   UNL     1      27.595  44.367  53.194  1.00  0.00     0.027 C 
BRANCH  16  17
HETATM   17  C   UNL     1      26.256  43.781  53.707  1.00  0.00     0.005 C 
HETATM   18  C   UNL     1      25.334  44.752  54.433  1.00  0.00     0.006 C 
ENDBRANCH  16  17
BRANCH  16  19
HETATM   19  C   UNL     1      28.700  44.208  54.234  1.00  0.00    -0.053 A 
HETATM   20  C   UNL     1      29.008  45.202  55.171  1.00  0.00     0.008 A 
HETATM   21  C   UNL     1      30.047  45.020  56.091  1.00  0.00     0.007 A 
HETATM   22  C   UNL     1      30.793  43.837  56.098  1.00  0.00    -0.062 A 
HETATM   23  C   UNL     1      31.928  43.646  57.059  1.00  0.00     0.048 C 
HETATM   24  C   UNL     1      30.497  42.847  55.158  1.00  0.00     0.007 A 
HETATM   25  C   UNL     1      29.464  43.030  54.238  1.00  0.00     0.008 A 
ENDBRANCH  16  19
ENDBRANCH  15  16
ENDBRANCH  12  15
ENDBRANCH   1  11
BRANCH   8  26
HETATM   26  C   UNL     1      21.041  45.186  48.548  1.00  0.00     0.270 C 
HETATM   27  N   UNL     1      19.898  45.331  49.286  1.00  0.00    -0.365 N 
HETATM   28  H   UNL     1      19.745  46.203  49.779  1.00  0.00     0.159 HD
HETATM   29  H   UNL     1      19.227  44.581  49.317  1.00  0.00     0.159 HD
HETATM   30  O   UNL     1      21.265  44.154  47.925  1.00  0.00    -0.266 OA
ENDBRANCH   8  26
TORSDOF 6
ENDMDL
MODEL 5
REMARK VINA RESULT:      -8.7      1.936      3.207
REMARK  6 active torsions:
REMARK  status: ('A' for Active; 'I' for Inactive)
REMARK    1  A    between atoms: C_2  and  C_3 
REMARK    2  A    between atoms: C_3  and  C_4 
REMARK    3  A    between atoms: C_3  and  C_11 
REMARK    4  A    between atoms: C_11  and  C_12 
REMARK       I    between atoms: C_12  and  N_13 
REMARK    5  A    between atoms: N_13  and  C_14 
REMARK    6  A    between atoms: C_21  and  C_22 
REMARK       I    between atoms: C_22  and  N_23 
ROOT
HETATM    1  C   UNL     1      23.955  48.497  49.132  1.00  0.00     0.035 A 
HETATM    2  C   UNL     1      22.594  48.195  49.282  1.00  0.00     0.046 A 
HETATM    3  C   UNL     1      21.622  49.172  48.978  1.00  0.00     0.030 A 
HETATM    4  C   UNL     1      22.043  50.421  48.538  1.00  0.00     0.063 A 
HETATM    5  N   UNL     1      20.897  51.137  48.334  1.00  0.00    -0.277 N 
HETATM    6  H   UNL     1      20.821  52.095  48.013  1.00  0.00     0.189 HD
HETATM    7  N   UNL     1      19.764  50.463  48.592  1.00  0.00    -0.168 NA
HETATM    8  C   UNL     1      20.196  49.244  48.989  1.00  0.00     0.156 A 
HETATM    9  C   UNL     1      23.388  50.758  48.376  1.00  0.00     0.034 A 
HETATM   10  C   UNL     1      24.332  49.768  48.677  1.00  0.00     0.032 A 
ENDROOT
BRANCH   1  11
HETATM   11  N   UNL     1      24.994  47.577  49.392  1.00  0.00    -0.327 N 
HETATM   12  C   UNL     1      25.474  47.182  50.632  1.00  0.00     0.222 C 
HETATM   13  O   UNL     1      25.148  47.653  51.714  1.00  0.00    -0.273 OA
HETATM   14  H   UNL     1      25.458  47.187  48.581  1.00  0.00     0.169 HD
BRANCH  12  15
HETATM   15  C   UNL     1      26.530  46.092  50.510  1.00  0.00     0.112 C 
BRANCH  15  16
HETATM   16  C   UNL     1      26.173  44.826  51.313  1.00  0.00     0.027 C 
BRANCH  16  17
HETATM   17  C   UNL     1      25.755  43.619  50.437  1.00  0.00     0.005 C 
HETATM   18  C   UNL     1      24.491  42.884  50.867  1.00  0.00     0.006 C 
ENDBRANCH  16  17
BRANCH  16  19
HETATM   19  C   UNL     1      27.257  44.431  52.312  1.00  0.00    -0.053 A 
HETATM   20  C   UNL     1      27.296  44.921  53.623  1.00  0.00     0.008 A 
HETATM   21  C   UNL     1      28.324  44.548  54.496  1.00  0.00     0.007 A 
HETATM   22  C   UNL     1      29.330  43.672  54.078  1.00  0.00    -0.062 A 
HETATM   23  C   UNL     1      30.453  43.292  54.997  1.00  0.00     0.048 C 
HETATM   24  C   UNL     1      29.303  43.189  52.768  1.00  0.00     0.007 A 
HETATM   25  C   UNL     1      28.279  43.563  51.896  1.00  0.00     0.008 A 
ENDBRANCH  16  19
ENDBRANCH  15  16
ENDBRANCH  12  15
ENDBRANCH   1  11
BRANCH   8  26
HETATM   26  C   UNL     1      19.249  48.183  49.361  1.00  0.00     0.270 C 
HETATM   27  N   UNL     1      19.041  48.067  50.708  1.00  0.00    -0.365 N 
HETATM   28  H   UNL     1      19.530  48.699  51.332  1.00  0.00     0.159 HD
HETATM   29  H   UNL     1      18.400  47.372  51.055  1.00  0.00     0.159 HD
HETATM   30  O   UNL     1      18.670  47.450  48.567  1.00  0.00    -0.266 OA
ENDBRANCH   8  26
TORSDOF 6
ENDMDL
MODEL 6
REMARK VINA RESULT:      -8.7      4.394      6.055
REMARK  6 active torsions:
REMARK  status: ('A' for Active; 'I' for Inactive)
REMARK    1  A    between atoms: C_2  and  C_3 
REMARK    2  A    between atoms: C_3  and  C_4 
REMARK    3  A    between atoms: C_3  and  C_11 
REMARK    4  A    between atoms: C_11  and  C_12 
REMARK       I    between atoms: C_12  and  N_13 
REMARK    5  A    between atoms: N_13  and  C_14 
REMARK    6  A    between atoms: C_21  and  C_22 
REMARK       I    between atoms: C_22  and  N_23 
ROOT
HETATM    1  C   UNL     1      24.904  42.930  51.165  1.00  0.00     0.035 A 
HETATM    2  C   UNL     1      25.558  41.825  50.601  1.00  0.00     0.046 A 
HETATM    3  C   UNL     1      25.076  41.265  49.398  1.00  0.00     0.030 A 
HETATM    4  C   UNL     1      23.953  41.825  48.802  1.00  0.00     0.063 A 
HETATM    5  N   UNL     1      23.730  41.078  47.679  1.00  0.00    -0.277 N 
HETATM    6  H   UNL     1      22.989  41.199  46.999  1.00  0.00     0.189 HD
HETATM    7  N   UNL     1      24.614  40.086  47.484  1.00  0.00    -0.168 NA
HETATM    8  C   UNL     1      25.456  40.191  48.538  1.00  0.00     0.156 A 
HETATM    9  C   UNL     1      23.276  42.924  49.333  1.00  0.00     0.034 A 
HETATM   10  C   UNL     1      23.779  43.466  50.523  1.00  0.00     0.032 A 
ENDROOT
BRANCH   1  11
HETATM   11  N   UNL     1      25.327  43.567  52.352  1.00  0.00    -0.327 N 
HETATM   12  C   UNL     1      26.451  44.361  52.523  1.00  0.00     0.222 C 
HETATM   13  O   UNL     1      27.332  44.552  51.694  1.00  0.00    -0.273 OA
HETATM   14  H   UNL     1      24.760  43.401  53.174  1.00  0.00     0.169 HD
BRANCH  12  15
HETATM   15  C   UNL     1      26.514  44.959  53.922  1.00  0.00     0.112 C 
BRANCH  15  16
HETATM   16  C   UNL     1      27.750  45.859  54.128  1.00  0.00     0.027 C 
BRANCH  16  17
HETATM   17  C   UNL     1      27.420  47.265  54.688  1.00  0.00     0.005 C 
HETATM   18  C   UNL     1      26.008  47.776  54.427  1.00  0.00     0.006 C 
ENDBRANCH  16  17
BRANCH  16  19
HETATM   19  C   UNL     1      28.845  45.184  54.948  1.00  0.00    -0.053 A 
HETATM   20  C   UNL     1      29.433  45.784  56.069  1.00  0.00     0.008 A 
HETATM   21  C   UNL     1      30.452  45.135  56.775  1.00  0.00     0.007 A 
HETATM   22  C   UNL     1      30.899  43.871  56.381  1.00  0.00    -0.062 A 
HETATM   23  C   UNL     1      32.011  43.182  57.114  1.00  0.00     0.048 C 
HETATM   24  C   UNL     1      30.324  43.272  55.258  1.00  0.00     0.007 A 
HETATM   25  C   UNL     1      29.310  43.920  54.550  1.00  0.00     0.008 A 
ENDBRANCH  16  19
ENDBRANCH  15  16
ENDBRANCH  12  15
ENDBRANCH   1  11
BRANCH   8  26
HETATM   26  C   UNL     1      26.596  39.276  48.698  1.00  0.00     0.270 C 
HETATM   27  N   UNL     1      26.569  38.547  49.856  1.00  0.00    -0.365 N 
HETATM   28  H   UNL     1      25.794  38.679  50.495  1.00  0.00     0.159 HD
HETATM   29  H   UNL     1      27.306  37.887  50.046  1.00  0.00     0.159 HD
HETATM   30  O   UNL     1      27.506  39.143  47.887  1.00  0.00    -0.266 OA
ENDBRANCH   8  26
TORSDOF 6
ENDMDL
MODEL 7
REMARK VINA RESULT:      -8.5      2.046      3.023
REMARK  6 active torsions:
REMARK  status: ('A' for Active; 'I' for Inactive)
REMARK    1  A    between atoms: C_2  and  C_3 
REMARK    2  A    between atoms: C_3  and  C_4 
REMARK    3  A    between atoms: C_3  and  C_11 
REMARK    4  A    between atoms: C_11  and  C_12 
REMARK       I    between atoms: C_12  and  N_13 
REMARK    5  A    between atoms: N_13  and  C_14 
REMARK    6  A    between atoms: C_21  and  C_22 
REMARK       I    between atoms: C_22  and  N_23 
ROOT
HETATM    1  C   UNL     1      25.440  45.391  50.131  1.00  0.00     0.035 A 
HETATM    2  C   UNL     1      24.873  46.667  49.998  1.00  0.00     0.046 A 
HETATM    3  C   UNL     1      23.622  46.813  49.360  1.00  0.00     0.030 A 
HETATM    4  C   UNL     1      22.981  45.681  48.873  1.00  0.00     0.063 A 
HETATM    5  N   UNL     1      21.818  46.135  48.317  1.00  0.00    -0.277 N 
HETATM    6  H   UNL     1      21.099  45.584  47.861  1.00  0.00     0.189 HD
HETATM    7  N   UNL     1      21.638  47.463  48.406  1.00  0.00    -0.168 NA
HETATM    8  C   UNL     1      22.744  47.897  49.053  1.00  0.00     0.156 A 
HETATM    9  C   UNL     1      23.514  44.396  48.988  1.00  0.00     0.034 A 
HETATM   10  C   UNL     1      24.753  44.276  49.631  1.00  0.00     0.032 A 
ENDROOT
BRANCH   1  11
HETATM   11  N   UNL     1      26.674  45.147  50.771  1.00  0.00    -0.327 N 
HETATM   12  C   UNL     1      26.933  44.217  51.767  1.00  0.00     0.222 C 
HETATM   13  O   UNL     1      26.102  43.523  52.339  1.00  0.00    -0.273 OA
HETATM   14  H   UNL     1      27.447  45.737  50.491  1.00  0.00     0.169 HD
BRANCH  12  15
HETATM   15  C   UNL     1      28.410  44.174  52.132  1.00  0.00     0.112 C 
BRANCH  15  16
HETATM   16  C   UNL     1      28.702  43.235  53.319  1.00  0.00     0.027 C 
BRANCH  16  17
HETATM   17  C   UNL     1      29.599  42.024  52.960  1.00  0.00     0.005 C 
HETATM   18  C   UNL     1      28.872  40.738  52.587  1.00  0.00     0.006 C 
ENDBRANCH  16  17
BRANCH  16  19
HETATM   19  C   UNL     1      29.238  43.973  54.542  1.00  0.00    -0.053 A 
HETATM   20  C   UNL     1      30.388  43.565  55.231  1.00  0.00     0.008 A 
HETATM   21  C   UNL     1      30.828  44.260  56.363  1.00  0.00     0.007 A 
HETATM   22  C   UNL     1      30.133  45.382  56.824  1.00  0.00    -0.062 A 
HETATM   23  C   UNL     1      30.580  46.115  58.054  1.00  0.00     0.048 C 
HETATM   24  C   UNL     1      28.980  45.788  56.147  1.00  0.00     0.007 A 
HETATM   25  C   UNL     1      28.538  45.092  55.021  1.00  0.00     0.008 A 
ENDBRANCH  16  19
ENDBRANCH  15  16
ENDBRANCH  12  15
ENDBRANCH   1  11
BRANCH   8  26
HETATM   26  C   UNL     1      22.936  49.321  49.364  1.00  0.00     0.270 C 
HETATM   27  N   UNL     1      21.779  49.988  49.663  1.00  0.00    -0.365 N 
HETATM   28  H   UNL     1      20.906  49.474  49.656  1.00  0.00     0.159 HD
HETATM   29  H   UNL     1      21.815  50.967  49.898  1.00  0.00     0.159 HD
HETATM   30  O   UNL     1      24.018  49.897  49.371  1.00  0.00    -0.266 OA
ENDBRANCH   8  26
TORSDOF 6
ENDMDL
MODEL 8
REMARK VINA RESULT:      -8.4      2.207      3.186
REMARK  6 active torsions:
REMARK  status: ('A' for Active; 'I' for Inactive)
REMARK    1  A    between atoms: C_2  and  C_3 
REMARK    2  A    between atoms: C_3  and  C_4 
REMARK    3  A    between atoms: C_3  and  C_11 
REMARK    4  A    between atoms: C_11  and  C_12 
REMARK       I    between atoms: C_12  and  N_13 
REMARK    5  A    between atoms: N_13  and  C_14 
REMARK    6  A    between atoms: C_21  and  C_22 
REMARK       I    between atoms: C_22  and  N_23 
ROOT
HETATM    1  C   UNL     1      24.304  45.977  49.219  1.00  0.00     0.035 A 
HETATM    2  C   UNL     1      23.939  47.313  49.434  1.00  0.00     0.046 A 
HETATM    3  C   UNL     1      22.655  47.759  49.054  1.00  0.00     0.030 A 
HETATM    4  C   UNL     1      21.779  46.855  48.466  1.00  0.00     0.063 A 
HETATM    5  N   UNL     1      20.642  47.569  48.209  1.00  0.00    -0.277 N 
HETATM    6  H   UNL     1      19.789  47.230  47.780  1.00  0.00     0.189 HD
HETATM    7  N   UNL     1      20.694  48.856  48.587  1.00  0.00    -0.168 NA
HETATM    8  C   UNL     1      21.933  48.989  49.115  1.00  0.00     0.156 A 
HETATM    9  C   UNL     1      22.106  45.517  48.236  1.00  0.00     0.034 A 
HETATM   10  C   UNL     1      23.384  45.098  48.629  1.00  0.00     0.032 A 
ENDROOT
BRANCH   1  11
HETATM   11  N   UNL     1      25.556  45.438  49.585  1.00  0.00    -0.327 N 
HETATM   12  C   UNL     1      25.992  45.123  50.864  1.00  0.00     0.222 C 
HETATM   13  O   UNL     1      25.399  45.365  51.907  1.00  0.00    -0.273 OA
HETATM   14  H   UNL     1      26.218  45.294  48.833  1.00  0.00     0.169 HD
BRANCH  12  15
HETATM   15  C   UNL     1      27.363  44.462  50.848  1.00  0.00     0.112 C 
BRANCH  15  16
HETATM   16  C   UNL     1      27.441  43.232  51.774  1.00  0.00     0.027 C 
BRANCH  16  17
HETATM   17  C   UNL     1      27.761  41.907  51.037  1.00  0.00     0.005 C 
HETATM   18  C   UNL     1      26.634  40.884  50.979  1.00  0.00     0.006 C 
ENDBRANCH  16  17
BRANCH  16  19
HETATM   19  C   UNL     1      28.376  43.441  52.961  1.00  0.00    -0.053 A 
HETATM   20  C   UNL     1      28.099  44.343  53.996  1.00  0.00     0.008 A 
HETATM   21  C   UNL     1      28.999  44.518  55.053  1.00  0.00     0.007 A 
HETATM   22  C   UNL     1      30.191  43.789  55.102  1.00  0.00    -0.062 A 
HETATM   23  C   UNL     1      31.175  43.992  56.214  1.00  0.00     0.048 C 
HETATM   24  C   UNL     1      30.478  42.896  54.067  1.00  0.00     0.007 A 
HETATM   25  C   UNL     1      29.583  42.724  53.010  1.00  0.00     0.008 A 
ENDBRANCH  16  19
ENDBRANCH  15  16
ENDBRANCH  12  15
ENDBRANCH   1  11
BRANCH   8  26
HETATM   26  C   UNL     1      22.394  50.272  49.664  1.00  0.00     0.270 C 
HETATM   27  N   UNL     1      21.524  50.844  50.552  1.00  0.00    -0.365 N 
HETATM   28  H   UNL     1      20.659  50.361  50.766  1.00  0.00     0.159 HD
HETATM   29  H   UNL     1      21.761  51.722  50.986  1.00  0.00     0.159 HD
HETATM   30  O   UNL     1      23.458  50.814  49.384  1.00  0.00    -0.266 OA
ENDBRANCH   8  26
TORSDOF 6
ENDMDL
MODEL 9
REMARK VINA RESULT:      -8.4      3.497      4.412
REMARK  6 active torsions:
REMARK  status: ('A' for Active; 'I' for Inactive)
REMARK    1  A    between atoms: C_2  and  C_3 
REMARK    2  A    between atoms: C_3  and  C_4 
REMARK    3  A    between atoms: C_3  and  C_11 
REMARK    4  A    between atoms: C_11  and  C_12 
REMARK       I    between atoms: C_12  and  N_13 
REMARK    5  A    between atoms: N_13  and  C_14 
REMARK    6  A    between atoms: C_21  and  C_22 
REMARK       I    between atoms: C_22  and  N_23 
ROOT
HETATM    1  C   UNL     1      24.693  42.620  50.585  1.00  0.00     0.035 A 
HETATM    2  C   UNL     1      23.687  43.375  49.966  1.00  0.00     0.046 A 
HETATM    3  C   UNL     1      23.199  42.988  48.700  1.00  0.00     0.030 A 
HETATM    4  C   UNL     1      23.736  41.860  48.091  1.00  0.00     0.063 A 
HETATM    5  N   UNL     1      23.079  41.746  46.898  1.00  0.00    -0.277 N 
HETATM    6  H   UNL     1      23.215  41.036  46.188  1.00  0.00     0.189 HD
HETATM    7  N   UNL     1      22.154  42.693  46.678  1.00  0.00    -0.168 NA
HETATM    8  C   UNL     1      22.213  43.468  47.786  1.00  0.00     0.156 A 
HETATM    9  C   UNL     1      24.738  41.083  48.677  1.00  0.00     0.034 A 
HETATM   10  C   UNL     1      25.199  41.484  49.937  1.00  0.00     0.032 A 
ENDROOT
BRANCH   1  11
HETATM   11  N   UNL     1      25.226  42.919  51.858  1.00  0.00    -0.327 N 
HETATM   12  C   UNL     1      26.373  43.648  52.136  1.00  0.00     0.222 C 
HETATM   13  O   UNL     1      27.181  44.061  51.315  1.00  0.00    -0.273 OA
HETATM   14  H   UNL     1      24.730  42.534  52.651  1.00  0.00     0.169 HD
BRANCH  12  15
HETATM   15  C   UNL     1      26.566  43.850  53.633  1.00  0.00     0.112 C 
BRANCH  15  16
HETATM   16  C   UNL     1      27.513  45.022  53.957  1.00  0.00     0.027 C 
BRANCH  16  17
HETATM   17  C   UNL     1      26.812  46.235  54.619  1.00  0.00     0.005 C 
HETATM   18  C   UNL     1      26.616  47.459  53.734  1.00  0.00     0.006 C 
ENDBRANCH  16  17
BRANCH  16  19
HETATM   19  C   UNL     1      28.739  44.591  54.757  1.00  0.00    -0.053 A 
HETATM   20  C   UNL     1      29.386  43.366  54.553  1.00  0.00     0.008 A 
HETATM   21  C   UNL     1      30.493  43.005  55.329  1.00  0.00     0.007 A 
HETATM   22  C   UNL     1      30.981  43.863  56.319  1.00  0.00    -0.062 A 
HETATM   23  C   UNL     1      32.147  43.470  57.175  1.00  0.00     0.048 C 
HETATM   24  C   UNL     1      30.333  45.081  56.534  1.00  0.00     0.007 A 
HETATM   25  C   UNL     1      29.225  45.441  55.764  1.00  0.00     0.008 A 
ENDBRANCH  16  19
ENDBRANCH  15  16
ENDBRANCH  12  15
ENDBRANCH   1  11
BRANCH   8  26
HETATM   26  C   UNL     1      21.334  44.635  47.948  1.00  0.00     0.270 C 
HETATM   27  N   UNL     1      21.598  45.659  47.079  1.00  0.00    -0.365 N 
HETATM   28  H   UNL     1      22.348  45.545  46.407  1.00  0.00     0.159 HD
HETATM   29  H   UNL     1      21.039  46.496  47.112  1.00  0.00     0.159 HD
HETATM   30  O   UNL     1      20.429  44.722  48.771  1.00  0.00    -0.266 OA
ENDBRANCH   8  26
TORSDOF 6
ENDMDL
MODEL 10
REMARK VINA RESULT:      -8.2      4.114     10.366
REMARK  6 active torsions:
REMARK  status: ('A' for Active; 'I' for Inactive)
REMARK    1  A    between atoms: C_2  and  C_3 
REMARK    2  A    between atoms: C_3  and  C_4 
REMARK    3  A    between atoms: C_3  and  C_11 
REMARK    4  A    between atoms: C_11  and  C_12 
REMARK       I    between atoms: C_12  and  N_13 
REMARK    5  A    between atoms: N_13  and  C_14 
REMARK    6  A    between atoms: C_21  and  C_22 
REMARK       I    between atoms: C_22  and  N_23 
ROOT
HETATM    1  C   UNL     1      22.612  49.306  49.064  1.00  0.00     0.035 A 
HETATM    2  C   UNL     1      23.585  48.404  49.518  1.00  0.00     0.046 A 
HETATM    3  C   UNL     1      24.938  48.597  49.167  1.00  0.00     0.030 A 
HETATM    4  C   UNL     1      25.275  49.684  48.370  1.00  0.00     0.063 A 
HETATM    5  N   UNL     1      26.629  49.603  48.200  1.00  0.00    -0.277 N 
HETATM    6  H   UNL     1      27.220  50.232  47.670  1.00  0.00     0.189 HD
HETATM    7  N   UNL     1      27.207  48.564  48.825  1.00  0.00    -0.168 NA
HETATM    8  C   UNL     1      26.175  47.934  49.431  1.00  0.00     0.156 A 
HETATM    9  C   UNL     1      24.335  50.604  47.899  1.00  0.00     0.034 A 
HETATM   10  C   UNL     1      23.000  50.393  48.268  1.00  0.00     0.032 A 
ENDROOT
BRANCH   1  11
HETATM   11  N   UNL     1      21.241  49.204  49.381  1.00  0.00    -0.327 N 
HETATM   12  C   UNL     1      20.286  48.431  48.737  1.00  0.00     0.222 C 
HETATM   13  O   UNL     1      20.453  47.789  47.708  1.00  0.00    -0.273 OA
HETATM   14  H   UNL     1      20.915  49.782  50.146  1.00  0.00     0.169 HD
BRANCH  12  15
HETATM   15  C   UNL     1      18.935  48.501  49.436  1.00  0.00     0.112 C 
BRANCH  15  16
HETATM   16  C   UNL     1      17.803  48.958  48.495  1.00  0.00     0.027 C 
BRANCH  16  17
HETATM   17  C   UNL     1      16.696  47.897  48.278  1.00  0.00     0.005 C 
HETATM   18  C   UNL     1      17.113  46.444  48.470  1.00  0.00     0.006 C 
ENDBRANCH  16  17
BRANCH  16  19
HETATM   19  C   UNL     1      17.204  50.303  48.897  1.00  0.00    -0.053 A 
HETATM   20  C   UNL     1      15.902  50.688  48.550  1.00  0.00     0.008 A 
HETATM   21  C   UNL     1      15.404  51.942  48.921  1.00  0.00     0.007 A 
HETATM   22  C   UNL     1      16.194  52.834  49.652  1.00  0.00    -0.062 A 
HETATM   23  C   UNL     1      15.680  54.192  50.027  1.00  0.00     0.048 C 
HETATM   24  C   UNL     1      17.497  52.460  49.991  1.00  0.00     0.007 A 
HETATM   25  C   UNL     1      17.995  51.211  49.618  1.00  0.00     0.008 A 
ENDBRANCH  16  19
ENDBRANCH  15  16
ENDBRANCH  12  15
ENDBRANCH   1  11
BRANCH   8  26
HETATM   26  C   UNL     1      26.389  46.728  50.243  1.00  0.00     0.270 C 
HETATM   27  N   UNL     1      26.151  46.905  51.579  1.00  0.00    -0.365 N 
HETATM   28  H   UNL     1      25.849  47.817  51.903  1.00  0.00     0.159 HD
HETATM   29  H   UNL     1      26.264  46.129  52.212  1.00  0.00     0.159 HD
HETATM   30  O   UNL     1      26.743  45.640  49.803  1.00  0.00    -0.266 OA
ENDBRANCH   8  26
TORSDOF 6
ENDMDL
