MODEL 1
REMARK VINA RESULT:     -10.9      0.000      0.000
REMARK  8 active torsions:
REMARK  status: ('A' for Active; 'I' for Inactive)
REMARK    1  A    between atoms: C_4  and  N_5 
REMARK       I    between atoms: N_5  and  C_6 
REMARK    2  A    between atoms: C_6  and  C_7 
REMARK    3  A    between atoms: C_10  and  N_11 
REMARK       I    between atoms: N_11  and  C_12 
REMARK       I    between atoms: C_12  and  N_21 
REMARK    4  A    between atoms: N_21  and  CA_22 
REMARK    5  A    between atoms: CA_22  and  C_23 
REMARK    6  A    between atoms: CA_22  and  CB_25 
REMARK    7  A    between atoms: C_23  and  O_24 
REMARK    8  A    between atoms: CB_25  and  CG_26 
ROOT
HETATM    1  N   UNK A   0      26.531  44.187  49.541  1.00  0.00    -0.309 N 
HETATM    2  C   UNK A   0      27.092  43.411  50.503  1.00  0.00     0.321 C 
HETATM    3  O   UNK A   0      27.721  42.412  50.155  1.00  0.00    -0.247 OA
HETATM    4  H   UNK A   0      26.797  43.830  48.630  1.00  0.00     0.170 HD
ATOM      5  N   TRP A   1      26.969  43.784  51.803  1.00  0.00    -0.336 N 
ATOM      6  H   TRP A   1      27.063  44.782  51.935  1.00  0.00     0.164 HD
ENDROOT
BRANCH   1   7
HETATM    7  C   UNK A   0      25.622  45.259  49.532  1.00  0.00     0.036 A 
HETATM    8  C   UNK A   0      24.265  45.173  49.225  1.00  0.00     0.030 A 
HETATM    9  C   UNK A   0      23.453  46.322  49.202  1.00  0.00     0.019 A 
HETATM   10  C   UNK A   0      23.997  47.585  49.463  1.00  0.00     0.032 A 
HETATM   11  C   UNK A   0      25.358  47.669  49.786  1.00  0.00     0.019 A 
HETATM   12  C   UNK A   0      26.156  46.522  49.818  1.00  0.00     0.030 A 
BRANCH  10  13
HETATM   13  C   UNK A   0      23.223  48.868  49.402  1.00  0.00     0.256 C 
HETATM   14  N   UNK A   0      21.842  48.760  49.399  1.00  0.00    -0.323 N 
HETATM   15  H   UNK A   0      21.436  47.843  49.498  1.00  0.00     0.169 HD
HETATM   16  O   UNK A   0      23.859  49.915  49.338  1.00  0.00    -0.267 OA
BRANCH  14  17
HETATM   17  C   UNK A   0      20.907  49.804  49.212  1.00  0.00     0.035 A 
HETATM   18  C   UNK A   0      20.352  50.555  50.250  1.00  0.00     0.029 A 
HETATM   19  C   UNK A   0      19.464  51.600  49.976  1.00  0.00     0.002 A 
HETATM   20  C   UNK A   0      19.115  51.900  48.662  1.00  0.00     0.000 A 
HETATM   21  C   UNK A   0      19.656  51.154  47.618  1.00  0.00     0.002 A 
HETATM   22  C   UNK A   0      20.552  50.116  47.891  1.00  0.00     0.029 A 
ENDBRANCH  14  17
ENDBRANCH  10  13
ENDBRANCH   1   7
BRANCH   5  23
ATOM     23  CA  TRP A   1      27.636  42.999  52.855  1.00  0.00     0.114 C 
BRANCH  23  24
ATOM     24  C   TRP A   1      27.667  41.515  52.445  1.00  0.00     0.189 C 
BRANCH  24  25
ATOM     25  O   TRP A   1      27.430  40.687  53.586  1.00  0.00    -0.399 OA
ATOM     26  H   TRP A   1      28.214  40.116  53.679  1.00  0.00     0.209 HD
ENDBRANCH  24  25
ENDBRANCH  23  24
BRANCH  23  27
ATOM     27  CB  TRP A   1      29.062  43.523  53.130  1.00  0.00     0.068 C 
BRANCH  27  28
ATOM     28  CG  TRP A   1      29.135  44.376  54.365  1.00  0.00    -0.028 A 
ATOM     29  CD2 TRP A   1      29.985  44.194  55.502  1.00  0.00    -0.002 A 
ATOM     30  CE2 TRP A   1      29.740  45.249  56.383  1.00  0.00     0.042 A 
ATOM     31  CE3 TRP A   1      30.949  43.233  55.867  1.00  0.00     0.014 A 
ATOM     32  CZ2 TRP A   1      30.424  45.402  57.595  1.00  0.00     0.030 A 
ATOM     33  NE1 TRP A   1      28.756  46.026  55.819  1.00  0.00    -0.365 N 
ATOM     34  CH2 TRP A   1      31.390  44.446  57.919  1.00  0.00     0.002 A 
ATOM     35  CZ3 TRP A   1      31.649  43.373  57.071  1.00  0.00     0.001 A 
ATOM     36  HE1 TRP A   1      28.376  46.862  56.240  1.00  0.00     0.165 HD
ATOM     37  CD1 TRP A   1      28.379  45.508  54.610  1.00  0.00     0.096 A 
ENDBRANCH  27  28
ENDBRANCH  23  27
ENDBRANCH   5  23
TORSDOF 8
ENDMDL
MODEL 2
REMARK VINA RESULT:     -10.7      2.420      9.491
REMARK  8 active torsions:
REMARK  status: ('A' for Active; 'I' for Inactive)
REMARK    1  A    between atoms: C_4  and  N_5 
REMARK       I    between atoms: N_5  and  C_6 
REMARK    2  A    between atoms: C_6  and  C_7 
REMARK    3  A    between atoms: C_10  and  N_11 
REMARK       I    between atoms: N_11  and  C_12 
REMARK       I    between atoms: C_12  and  N_21 
REMARK    4  A    between atoms: N_21  and  CA_22 
REMARK    5  A    between atoms: CA_22  and  C_23 
REMARK    6  A    between atoms: CA_22  and  CB_25 
REMARK    7  A    between atoms: C_23  and  O_24 
REMARK    8  A    between atoms: CB_25  and  CG_26 
ROOT
HETATM    1  N   UNK A   0      24.498  44.039  48.529  1.00  0.00    -0.309 N 
HETATM    2  C   UNK A   0      23.569  44.862  47.979  1.00  0.00     0.321 C 
HETATM    3  O   UNK A   0      23.207  44.645  46.823  1.00  0.00    -0.247 OA
HETATM    4  H   UNK A   0      24.705  43.291  47.876  1.00  0.00     0.170 HD
ATOM      5  N   TRP A   1      23.050  45.865  48.734  1.00  0.00    -0.336 N 
ATOM      6  H   TRP A   1      22.878  45.587  49.691  1.00  0.00     0.164 HD
ENDROOT
BRANCH   1   7
HETATM    7  C   UNK A   0      25.273  44.056  49.700  1.00  0.00     0.036 A 
HETATM    8  C   UNK A   0      26.659  44.198  49.757  1.00  0.00     0.030 A 
HETATM    9  C   UNK A   0      27.341  44.156  50.988  1.00  0.00     0.019 A 
HETATM   10  C   UNK A   0      26.645  43.944  52.182  1.00  0.00     0.032 A 
HETATM   11  C   UNK A   0      25.251  43.815  52.126  1.00  0.00     0.019 A 
HETATM   12  C   UNK A   0      24.578  43.870  50.902  1.00  0.00     0.030 A 
BRANCH  10  13
HETATM   13  C   UNK A   0      27.294  43.823  53.530  1.00  0.00     0.256 C 
HETATM   14  N   UNK A   0      28.536  44.418  53.674  1.00  0.00    -0.323 N 
HETATM   15  H   UNK A   0      28.907  44.944  52.898  1.00  0.00     0.169 HD
HETATM   16  O   UNK A   0      26.696  43.194  54.397  1.00  0.00    -0.267 OA
BRANCH  14  17
HETATM   17  C   UNK A   0      29.398  44.326  54.792  1.00  0.00     0.035 A 
HETATM   18  C   UNK A   0      30.274  43.263  55.021  1.00  0.00     0.029 A 
HETATM   19  C   UNK A   0      31.124  43.268  56.132  1.00  0.00     0.002 A 
HETATM   20  C   UNK A   0      31.102  44.333  57.029  1.00  0.00     0.000 A 
HETATM   21  C   UNK A   0      30.229  45.395  56.816  1.00  0.00     0.002 A 
HETATM   22  C   UNK A   0      29.386  45.395  55.700  1.00  0.00     0.029 A 
ENDBRANCH  14  17
ENDBRANCH  10  13
ENDBRANCH   1   7
BRANCH   5  23
ATOM     23  CA  TRP A   1      21.985  46.719  48.183  1.00  0.00     0.114 C 
BRANCH  23  24
ATOM     24  C   TRP A   1      20.630  45.999  48.316  1.00  0.00     0.189 C 
BRANCH  24  25
ATOM     25  O   TRP A   1      19.952  46.444  49.492  1.00  0.00    -0.399 OA
ATOM     26  H   TRP A   1      20.637  46.800  50.086  1.00  0.00     0.209 HD
ENDBRANCH  24  25
ENDBRANCH  23  24
BRANCH  23  27
ATOM     27  CB  TRP A   1      21.948  48.094  48.882  1.00  0.00     0.068 C 
BRANCH  27  28
ATOM     28  CG  TRP A   1      23.123  48.957  48.521  1.00  0.00    -0.028 A 
ATOM     29  CD2 TRP A   1      24.489  48.781  48.913  1.00  0.00    -0.002 A 
ATOM     30  CE2 TRP A   1      25.234  49.794  48.306  1.00  0.00     0.042 A 
ATOM     31  CE3 TRP A   1      25.167  47.850  49.724  1.00  0.00     0.014 A 
ATOM     32  CZ2 TRP A   1      26.622  49.908  48.452  1.00  0.00     0.030 A 
ATOM     33  NE1 TRP A   1      24.353  50.575  47.598  1.00  0.00    -0.365 N 
ATOM     34  CH2 TRP A   1      27.270  48.957  49.244  1.00  0.00     0.002 A 
ATOM     35  CZ3 TRP A   1      26.556  47.942  49.876  1.00  0.00     0.001 A 
ATOM     36  HE1 TRP A   1      24.616  51.388  47.058  1.00  0.00     0.165 HD
ATOM     37  CD1 TRP A   1      23.081  50.088  47.724  1.00  0.00     0.096 A 
ENDBRANCH  27  28
ENDBRANCH  23  27
ENDBRANCH   5  23
TORSDOF 8
ENDMDL
MODEL 3
REMARK VINA RESULT:     -10.6      2.064     11.342
REMARK  8 active torsions:
REMARK  status: ('A' for Active; 'I' for Inactive)
REMARK    1  A    between atoms: C_4  and  N_5 
REMARK       I    between atoms: N_5  and  C_6 
REMARK    2  A    between atoms: C_6  and  C_7 
REMARK    3  A    between atoms: C_10  and  N_11 
REMARK       I    between atoms: N_11  and  C_12 
REMARK       I    between atoms: C_12  and  N_21 
REMARK    4  A    between atoms: N_21  and  CA_22 
REMARK    5  A    between atoms: CA_22  and  C_23 
REMARK    6  A    between atoms: CA_22  and  CB_25 
REMARK    7  A    between atoms: C_23  and  O_24 
REMARK    8  A    between atoms: CB_25  and  CG_26 
ROOT
HETATM    1  N   UNK A   0      23.931  46.106  49.834  1.00  0.00    -0.309 N 
HETATM    2  C   UNK A   0      23.365  47.191  49.247  1.00  0.00     0.321 C 
HETATM    3  O   UNK A   0      22.890  47.065  48.119  1.00  0.00    -0.247 OA
HETATM    4  H   UNK A   0      23.800  45.300  49.233  1.00  0.00     0.170 HD
ATOM      5  N   TRP A   1      23.313  48.360  49.938  1.00  0.00    -0.336 N 
ATOM      6  H   TRP A   1      23.095  48.228  50.917  1.00  0.00     0.164 HD
ENDROOT
BRANCH   1   7
HETATM    7  C   UNK A   0      24.711  45.890  50.982  1.00  0.00     0.036 A 
HETATM    8  C   UNK A   0      25.593  46.807  51.551  1.00  0.00     0.030 A 
HETATM    9  C   UNK A   0      26.361  46.468  52.681  1.00  0.00     0.019 A 
HETATM   10  C   UNK A   0      26.276  45.190  53.244  1.00  0.00     0.032 A 
HETATM   11  C   UNK A   0      25.380  44.273  52.680  1.00  0.00     0.019 A 
HETATM   12  C   UNK A   0      24.611  44.620  51.565  1.00  0.00     0.030 A 
BRANCH  10  13
HETATM   13  C   UNK A   0      27.099  44.721  54.407  1.00  0.00     0.256 C 
HETATM   14  N   UNK A   0      28.360  45.279  54.539  1.00  0.00    -0.323 N 
HETATM   15  H   UNK A   0      28.631  46.004  53.892  1.00  0.00     0.169 HD
HETATM   16  O   UNK A   0      26.614  43.868  55.142  1.00  0.00    -0.267 OA
BRANCH  14  17
HETATM   17  C   UNK A   0      29.364  44.905  55.462  1.00  0.00     0.035 A 
HETATM   18  C   UNK A   0      29.629  45.586  56.651  1.00  0.00     0.029 A 
HETATM   19  C   UNK A   0      30.615  45.125  57.531  1.00  0.00     0.002 A 
HETATM   20  C   UNK A   0      31.350  43.983  57.226  1.00  0.00     0.000 A 
HETATM   21  C   UNK A   0      31.101  43.299  56.040  1.00  0.00     0.002 A 
HETATM   22  C   UNK A   0      30.109  43.754  55.165  1.00  0.00     0.029 A 
ENDBRANCH  14  17
ENDBRANCH  10  13
ENDBRANCH   1   7
BRANCH   5  23
ATOM     23  CA  TRP A   1      22.633  49.526  49.351  1.00  0.00     0.114 C 
BRANCH  23  24
ATOM     24  C   TRP A   1      23.650  50.363  48.551  1.00  0.00     0.189 C 
BRANCH  24  25
ATOM     25  O   TRP A   1      23.700  49.909  47.197  1.00  0.00    -0.399 OA
ATOM     26  H   TRP A   1      23.125  49.125  47.148  1.00  0.00     0.209 HD
ENDBRANCH  24  25
ENDBRANCH  23  24
BRANCH  23  27
ATOM     27  CB  TRP A   1      21.449  49.098  48.457  1.00  0.00     0.068 C 
BRANCH  27  28
ATOM     28  CG  TRP A   1      20.117  49.387  49.088  1.00  0.00    -0.028 A 
ATOM     29  CD2 TRP A   1      19.365  50.603  49.023  1.00  0.00    -0.002 A 
ATOM     30  CE2 TRP A   1      18.173  50.398  49.718  1.00  0.00     0.042 A 
ATOM     31  CE3 TRP A   1      19.583  51.864  48.432  1.00  0.00     0.014 A 
ATOM     32  CZ2 TRP A   1      17.180  51.379  49.832  1.00  0.00     0.030 A 
ATOM     33  NE1 TRP A   1      18.209  49.117  50.214  1.00  0.00    -0.365 N 
ATOM     34  CH2 TRP A   1      17.414  52.612  49.216  1.00  0.00     0.002 A 
ATOM     35  CZ3 TRP A   1      18.600  52.856  48.528  1.00  0.00     0.001 A 
ATOM     36  HE1 TRP A   1      17.473  48.695  50.763  1.00  0.00     0.165 HD
ATOM     37  CD1 TRP A   1      19.374  48.501  49.849  1.00  0.00     0.096 A 
ENDBRANCH  27  28
ENDBRANCH  23  27
ENDBRANCH   5  23
TORSDOF 8
ENDMDL
MODEL 4
REMARK VINA RESULT:     -10.4      2.384     11.701
REMARK  8 active torsions:
REMARK  status: ('A' for Active; 'I' for Inactive)
REMARK    1  A    between atoms: C_4  and  N_5 
REMARK       I    between atoms: N_5  and  C_6 
REMARK    2  A    between atoms: C_6  and  C_7 
REMARK    3  A    between atoms: C_10  and  N_11 
REMARK       I    between atoms: N_11  and  C_12 
REMARK       I    between atoms: C_12  and  N_21 
REMARK    4  A    between atoms: N_21  and  CA_22 
REMARK    5  A    between atoms: CA_22  and  C_23 
REMARK    6  A    between atoms: CA_22  and  CB_25 
REMARK    7  A    between atoms: C_23  and  O_24 
REMARK    8  A    between atoms: CB_25  and  CG_26 
ROOT
HETATM    1  N   UNK A   0      23.443  46.583  48.837  1.00  0.00    -0.309 N 
HETATM    2  C   UNK A   0      22.411  47.388  48.477  1.00  0.00     0.321 C 
HETATM    3  O   UNK A   0      22.128  47.476  47.282  1.00  0.00    -0.247 OA
HETATM    4  H   UNK A   0      23.790  46.102  48.014  1.00  0.00     0.170 HD
ATOM      5  N   TRP A   1      21.712  48.033  49.447  1.00  0.00    -0.336 N 
ATOM      6  H   TRP A   1      21.556  47.461  50.265  1.00  0.00     0.164 HD
ENDROOT
BRANCH   1   7
HETATM    7  C   UNK A   0      24.166  46.362  50.021  1.00  0.00     0.036 A 
HETATM    8  C   UNK A   0      24.971  47.297  50.670  1.00  0.00     0.030 A 
HETATM    9  C   UNK A   0      25.689  46.953  51.831  1.00  0.00     0.019 A 
HETATM   10  C   UNK A   0      25.632  45.654  52.346  1.00  0.00     0.032 A 
HETATM   11  C   UNK A   0      24.812  44.718  51.702  1.00  0.00     0.019 A 
HETATM   12  C   UNK A   0      24.092  45.069  50.556  1.00  0.00     0.030 A 
BRANCH  10  13
HETATM   13  C   UNK A   0      26.408  45.182  53.540  1.00  0.00     0.256 C 
HETATM   14  N   UNK A   0      27.733  45.583  53.615  1.00  0.00    -0.323 N 
HETATM   15  H   UNK A   0      28.082  46.209  52.907  1.00  0.00     0.169 HD
HETATM   16  O   UNK A   0      25.831  44.463  54.349  1.00  0.00    -0.267 OA
BRANCH  14  17
HETATM   17  C   UNK A   0      28.696  45.160  54.560  1.00  0.00     0.035 A 
HETATM   18  C   UNK A   0      29.030  45.875  55.712  1.00  0.00     0.029 A 
HETATM   19  C   UNK A   0      29.966  45.366  56.618  1.00  0.00     0.002 A 
HETATM   20  C   UNK A   0      30.585  44.143  56.377  1.00  0.00     0.000 A 
HETATM   21  C   UNK A   0      30.268  43.424  55.228  1.00  0.00     0.002 A 
HETATM   22  C   UNK A   0      29.324  43.928  54.327  1.00  0.00     0.029 A 
ENDBRANCH  14  17
ENDBRANCH  10  13
ENDBRANCH   1   7
BRANCH   5  23
ATOM     23  CA  TRP A   1      20.541  48.849  49.083  1.00  0.00     0.114 C 
BRANCH  23  24
ATOM     24  C   TRP A   1      19.371  48.516  50.027  1.00  0.00     0.189 C 
BRANCH  24  25
ATOM     25  O   TRP A   1      19.108  47.111  50.005  1.00  0.00    -0.399 OA
ATOM     26  H   TRP A   1      19.478  46.750  50.830  1.00  0.00     0.209 HD
ENDBRANCH  24  25
ENDBRANCH  23  24
BRANCH  23  27
ATOM     27  CB  TRP A   1      20.870  50.357  49.125  1.00  0.00     0.068 C 
BRANCH  27  28
ATOM     28  CG  TRP A   1      19.749  51.206  48.598  1.00  0.00    -0.028 A 
ATOM     29  CD2 TRP A   1      19.128  51.131  47.311  1.00  0.00    -0.002 A 
ATOM     30  CE2 TRP A   1      18.107  52.082  47.280  1.00  0.00     0.042 A 
ATOM     31  CE3 TRP A   1      19.333  50.337  46.164  1.00  0.00     0.014 A 
ATOM     32  CZ2 TRP A   1      17.269  52.263  46.174  1.00  0.00     0.030 A 
ATOM     33  NE1 TRP A   1      18.125  52.733  48.490  1.00  0.00    -0.365 N 
ATOM     34  CH2 TRP A   1      17.481  51.446  45.060  1.00  0.00     0.002 A 
ATOM     35  CZ3 TRP A   1      18.500  50.497  45.050  1.00  0.00     0.001 A 
ATOM     36  HE1 TRP A   1      17.493  53.478  48.749  1.00  0.00     0.165 HD
ATOM     37  CD1 TRP A   1      19.111  52.222  49.288  1.00  0.00     0.096 A 
ENDBRANCH  27  28
ENDBRANCH  23  27
ENDBRANCH   5  23
TORSDOF 8
ENDMDL
MODEL 5
REMARK VINA RESULT:     -10.4      1.374      2.535
REMARK  8 active torsions:
REMARK  status: ('A' for Active; 'I' for Inactive)
REMARK    1  A    between atoms: C_4  and  N_5 
REMARK       I    between atoms: N_5  and  C_6 
REMARK    2  A    between atoms: C_6  and  C_7 
REMARK    3  A    between atoms: C_10  and  N_11 
REMARK       I    between atoms: N_11  and  C_12 
REMARK       I    between atoms: C_12  and  N_21 
REMARK    4  A    between atoms: N_21  and  CA_22 
REMARK    5  A    between atoms: CA_22  and  C_23 
REMARK    6  A    between atoms: CA_22  and  CB_25 
REMARK    7  A    between atoms: C_23  and  O_24 
REMARK    8  A    between atoms: CB_25  and  CG_26 
ROOT
HETATM    1  N   UNK A   0      26.559  43.533  49.539  1.00  0.00    -0.309 N 
HETATM    2  C   UNK A   0      27.089  42.716  50.485  1.00  0.00     0.321 C 
HETATM    3  O   UNK A   0      27.641  41.679  50.118  1.00  0.00    -0.247 OA
HETATM    4  H   UNK A   0      26.780  43.163  48.621  1.00  0.00     0.170 HD
ATOM      5  N   TRP A   1      27.022  43.090  51.789  1.00  0.00    -0.336 N 
ATOM      6  H   TRP A   1      27.185  44.078  51.923  1.00  0.00     0.164 HD
ENDROOT
BRANCH   1   7
HETATM    7  C   UNK A   0      25.725  44.663  49.556  1.00  0.00     0.036 A 
HETATM    8  C   UNK A   0      24.345  44.659  49.357  1.00  0.00     0.030 A 
HETATM    9  C   UNK A   0      23.611  45.860  49.350  1.00  0.00     0.019 A 
HETATM   10  C   UNK A   0      24.255  47.091  49.515  1.00  0.00     0.032 A 
HETATM   11  C   UNK A   0      25.639  47.094  49.728  1.00  0.00     0.019 A 
HETATM   12  C   UNK A   0      26.361  45.897  49.746  1.00  0.00     0.030 A 
BRANCH  10  13
HETATM   13  C   UNK A   0      23.564  48.421  49.461  1.00  0.00     0.256 C 
HETATM   14  N   UNK A   0      22.180  48.399  49.394  1.00  0.00    -0.323 N 
HETATM   15  H   UNK A   0      21.715  47.506  49.446  1.00  0.00     0.169 HD
HETATM   16  O   UNK A   0      24.265  49.428  49.457  1.00  0.00    -0.267 OA
BRANCH  14  17
HETATM   17  C   UNK A   0      21.320  49.504  49.198  1.00  0.00     0.035 A 
HETATM   18  C   UNK A   0      20.766  50.259  50.234  1.00  0.00     0.029 A 
HETATM   19  C   UNK A   0      19.956  51.365  49.953  1.00  0.00     0.002 A 
HETATM   20  C   UNK A   0      19.686  51.722  48.636  1.00  0.00     0.000 A 
HETATM   21  C   UNK A   0      20.226  50.973  47.594  1.00  0.00     0.002 A 
HETATM   22  C   UNK A   0      21.043  49.874  47.874  1.00  0.00     0.029 A 
ENDBRANCH  14  17
ENDBRANCH  10  13
ENDBRANCH   1   7
BRANCH   5  23
ATOM     23  CA  TRP A   1      27.659  42.256  52.822  1.00  0.00     0.114 C 
BRANCH  23  24
ATOM     24  C   TRP A   1      29.187  42.286  52.636  1.00  0.00     0.189 C 
BRANCH  24  25
ATOM     25  O   TRP A   1      29.659  40.994  52.248  1.00  0.00    -0.399 OA
ATOM     26  H   TRP A   1      30.403  40.785  52.840  1.00  0.00     0.209 HD
ENDBRANCH  24  25
ENDBRANCH  23  24
BRANCH  23  27
ATOM     27  CB  TRP A   1      27.268  42.721  54.241  1.00  0.00     0.068 C 
BRANCH  27  28
ATOM     28  CG  TRP A   1      27.847  44.064  54.587  1.00  0.00    -0.028 A 
ATOM     29  CD2 TRP A   1      27.252  45.350  54.382  1.00  0.00    -0.002 A 
ATOM     30  CE2 TRP A   1      28.130  46.305  54.896  1.00  0.00     0.042 A 
ATOM     31  CE3 TRP A   1      26.043  45.795  53.811  1.00  0.00     0.014 A 
ATOM     32  CZ2 TRP A   1      27.849  47.677  54.888  1.00  0.00     0.030 A 
ATOM     33  NE1 TRP A   1      29.230  45.631  55.368  1.00  0.00    -0.365 N 
ATOM     34  CH2 TRP A   1      26.633  48.087  54.336  1.00  0.00     0.002 A 
ATOM     35  CZ3 TRP A   1      25.741  47.162  53.800  1.00  0.00     0.001 A 
ATOM     36  HE1 TRP A   1      30.032  46.073  55.796  1.00  0.00     0.165 HD
ATOM     37  CD1 TRP A   1      29.076  44.285  55.182  1.00  0.00     0.096 A 
ENDBRANCH  27  28
ENDBRANCH  23  27
ENDBRANCH   5  23
TORSDOF 8
ENDMDL
MODEL 6
REMARK VINA RESULT:     -10.3      2.329     11.198
REMARK  8 active torsions:
REMARK  status: ('A' for Active; 'I' for Inactive)
REMARK    1  A    between atoms: C_4  and  N_5 
REMARK       I    between atoms: N_5  and  C_6 
REMARK    2  A    between atoms: C_6  and  C_7 
REMARK    3  A    between atoms: C_10  and  N_11 
REMARK       I    between atoms: N_11  and  C_12 
REMARK       I    between atoms: C_12  and  N_21 
REMARK    4  A    between atoms: N_21  and  CA_22 
REMARK    5  A    between atoms: CA_22  and  C_23 
REMARK    6  A    between atoms: CA_22  and  CB_25 
REMARK    7  A    between atoms: C_23  and  O_24 
REMARK    8  A    between atoms: CB_25  and  CG_26 
ROOT
HETATM    1  N   UNK A   0      24.329  47.483  49.185  1.00  0.00    -0.309 N 
HETATM    2  C   UNK A   0      23.079  47.464  48.657  1.00  0.00     0.321 C 
HETATM    3  O   UNK A   0      22.786  48.316  47.817  1.00  0.00    -0.247 OA
HETATM    4  H   UNK A   0      24.874  48.201  48.722  1.00  0.00     0.170 HD
ATOM      5  N   TRP A   1      22.215  46.491  49.045  1.00  0.00    -0.336 N 
ATOM      6  H   TRP A   1      22.661  45.589  49.148  1.00  0.00     0.164 HD
ENDROOT
BRANCH   1   7
HETATM    7  C   UNK A   0      24.967  46.830  50.253  1.00  0.00     0.036 A 
HETATM    8  C   UNK A   0      25.037  47.294  51.566  1.00  0.00     0.030 A 
HETATM    9  C   UNK A   0      25.744  46.578  52.550  1.00  0.00     0.019 A 
HETATM   10  C   UNK A   0      26.415  45.394  52.227  1.00  0.00     0.032 A 
HETATM   11  C   UNK A   0      26.333  44.921  50.911  1.00  0.00     0.019 A 
HETATM   12  C   UNK A   0      25.620  45.631  49.940  1.00  0.00     0.030 A 
BRANCH  10  13
HETATM   13  C   UNK A   0      27.242  44.599  53.194  1.00  0.00     0.256 C 
HETATM   14  N   UNK A   0      28.124  45.313  53.988  1.00  0.00    -0.323 N 
HETATM   15  H   UNK A   0      28.121  46.318  53.920  1.00  0.00     0.169 HD
HETATM   16  O   UNK A   0      27.098  43.381  53.200  1.00  0.00    -0.267 OA
BRANCH  14  17
HETATM   17  C   UNK A   0      29.096  44.783  54.868  1.00  0.00     0.035 A 
HETATM   18  C   UNK A   0      29.770  43.579  54.658  1.00  0.00     0.029 A 
HETATM   19  C   UNK A   0      30.749  43.144  55.558  1.00  0.00     0.002 A 
HETATM   20  C   UNK A   0      31.058  43.906  56.681  1.00  0.00     0.000 A 
HETATM   21  C   UNK A   0      30.388  45.105  56.907  1.00  0.00     0.002 A 
HETATM   22  C   UNK A   0      29.416  45.544  56.002  1.00  0.00     0.029 A 
ENDBRANCH  14  17
ENDBRANCH  10  13
ENDBRANCH   1   7
BRANCH   5  23
ATOM     23  CA  TRP A   1      20.882  46.406  48.426  1.00  0.00     0.114 C 
BRANCH  23  24
ATOM     24  C   TRP A   1      20.400  44.943  48.442  1.00  0.00     0.189 C 
BRANCH  24  25
ATOM     25  O   TRP A   1      19.007  44.890  48.757  1.00  0.00    -0.399 OA
ATOM     26  H   TRP A   1      18.531  45.049  47.922  1.00  0.00     0.209 HD
ENDBRANCH  24  25
ENDBRANCH  23  24
BRANCH  23  27
ATOM     27  CB  TRP A   1      19.870  47.327  49.140  1.00  0.00     0.068 C 
BRANCH  27  28
ATOM     28  CG  TRP A   1      19.394  48.451  48.263  1.00  0.00    -0.028 A 
ATOM     29  CD2 TRP A   1      19.144  49.808  48.643  1.00  0.00    -0.002 A 
ATOM     30  CE2 TRP A   1      18.761  50.502  47.494  1.00  0.00     0.042 A 
ATOM     31  CE3 TRP A   1      19.213  50.519  49.858  1.00  0.00     0.014 A 
ATOM     32  CZ2 TRP A   1      18.467  51.871  47.496  1.00  0.00     0.030 A 
ATOM     33  NE1 TRP A   1      18.747  49.597  46.461  1.00  0.00    -0.365 N 
ATOM     34  CH2 TRP A   1      18.566  52.554  48.711  1.00  0.00     0.002 A 
ATOM     35  CZ3 TRP A   1      18.930  51.889  49.879  1.00  0.00     0.001 A 
ATOM     36  HE1 TRP A   1      18.503  49.821  45.507  1.00  0.00     0.165 HD
ATOM     37  CD1 TRP A   1      19.118  48.359  46.911  1.00  0.00     0.096 A 
ENDBRANCH  27  28
ENDBRANCH  23  27
ENDBRANCH   5  23
TORSDOF 8
ENDMDL
MODEL 7
REMARK VINA RESULT:     -10.1      2.634      4.324
REMARK  8 active torsions:
REMARK  status: ('A' for Active; 'I' for Inactive)
REMARK    1  A    between atoms: C_4  and  N_5 
REMARK       I    between atoms: N_5  and  C_6 
REMARK    2  A    between atoms: C_6  and  C_7 
REMARK    3  A    between atoms: C_10  and  N_11 
REMARK       I    between atoms: N_11  and  C_12 
REMARK       I    between atoms: C_12  and  N_21 
REMARK    4  A    between atoms: N_21  and  CA_22 
REMARK    5  A    between atoms: CA_22  and  C_23 
REMARK    6  A    between atoms: CA_22  and  CB_25 
REMARK    7  A    between atoms: C_23  and  O_24 
REMARK    8  A    between atoms: CB_25  and  CG_26 
ROOT
HETATM    1  N   UNK A   0      25.023  48.338  49.145  1.00  0.00    -0.309 N 
HETATM    2  C   UNK A   0      25.744  47.619  50.042  1.00  0.00     0.321 C 
HETATM    3  O   UNK A   0      26.839  47.178  49.693  1.00  0.00    -0.247 OA
HETATM    4  H   UNK A   0      25.571  48.459  48.301  1.00  0.00     0.170 HD
ATOM      5  N   TRP A   1      25.249  47.445  51.295  1.00  0.00    -0.336 N 
ATOM      6  H   TRP A   1      24.800  48.275  51.659  1.00  0.00     0.164 HD
ENDROOT
BRANCH   1   7
HETATM    7  C   UNK A   0      23.710  48.835  49.094  1.00  0.00     0.036 A 
HETATM    8  C   UNK A   0      23.341  50.175  49.203  1.00  0.00     0.030 A 
HETATM    9  C   UNK A   0      21.987  50.558  49.184  1.00  0.00     0.019 A 
HETATM   10  C   UNK A   0      20.976  49.597  49.081  1.00  0.00     0.032 A 
HETATM   11  C   UNK A   0      21.346  48.252  48.959  1.00  0.00     0.019 A 
HETATM   12  C   UNK A   0      22.694  47.879  48.966  1.00  0.00     0.030 A 
BRANCH  10  13
HETATM   13  C   UNK A   0      19.508  49.906  49.114  1.00  0.00     0.256 C 
HETATM   14  N   UNK A   0      19.133  51.176  48.706  1.00  0.00    -0.323 N 
HETATM   15  H   UNK A   0      19.848  51.795  48.357  1.00  0.00     0.169 HD
HETATM   16  O   UNK A   0      18.749  49.031  49.517  1.00  0.00    -0.267 OA
BRANCH  14  17
HETATM   17  C   UNK A   0      17.840  51.745  48.776  1.00  0.00     0.035 A 
HETATM   18  C   UNK A   0      17.308  52.343  49.920  1.00  0.00     0.029 A 
HETATM   19  C   UNK A   0      16.034  52.920  49.894  1.00  0.00     0.002 A 
HETATM   20  C   UNK A   0      15.276  52.897  48.727  1.00  0.00     0.000 A 
HETATM   21  C   UNK A   0      15.792  52.297  47.581  1.00  0.00     0.002 A 
HETATM   22  C   UNK A   0      17.069  51.729  47.605  1.00  0.00     0.029 A 
ENDBRANCH  14  17
ENDBRANCH  10  13
ENDBRANCH   1   7
BRANCH   5  23
ATOM     23  CA  TRP A   1      26.051  46.736  52.306  1.00  0.00     0.114 C 
BRANCH  23  24
ATOM     24  C   TRP A   1      25.904  47.442  53.667  1.00  0.00     0.189 C 
BRANCH  24  25
ATOM     25  O   TRP A   1      25.602  46.486  54.685  1.00  0.00    -0.399 OA
ATOM     26  H   TRP A   1      26.307  46.563  55.352  1.00  0.00     0.209 HD
ENDBRANCH  24  25
ENDBRANCH  23  24
BRANCH  23  27
ATOM     27  CB  TRP A   1      25.640  45.251  52.410  1.00  0.00     0.068 C 
BRANCH  27  28
ATOM     28  CG  TRP A   1      26.793  44.316  52.176  1.00  0.00    -0.028 A 
ATOM     29  CD2 TRP A   1      27.910  44.075  53.038  1.00  0.00    -0.002 A 
ATOM     30  CE2 TRP A   1      28.704  43.099  52.435  1.00  0.00     0.042 A 
ATOM     31  CE3 TRP A   1      28.321  44.592  54.284  1.00  0.00     0.014 A 
ATOM     32  CZ2 TRP A   1      29.872  42.599  53.022  1.00  0.00     0.030 A 
ATOM     33  NE1 TRP A   1      28.111  42.780  51.237  1.00  0.00    -0.365 N 
ATOM     34  CH2 TRP A   1      30.243  43.114  54.267  1.00  0.00     0.002 A 
ATOM     35  CZ3 TRP A   1      29.483  44.099  54.891  1.00  0.00     0.001 A 
ATOM     36  HE1 TRP A   1      28.472  42.098  50.584  1.00  0.00     0.165 HD
ATOM     37  CD1 TRP A   1      26.966  43.509  51.066  1.00  0.00     0.096 A 
ENDBRANCH  27  28
ENDBRANCH  23  27
ENDBRANCH   5  23
TORSDOF 8
ENDMDL
MODEL 8
REMARK VINA RESULT:      -9.8      2.586     10.695
REMARK  8 active torsions:
REMARK  status: ('A' for Active; 'I' for Inactive)
REMARK    1  A    between atoms: C_4  and  N_5 
REMARK       I    between atoms: N_5  and  C_6 
REMARK    2  A    between atoms: C_6  and  C_7 
REMARK    3  A    between atoms: C_10  and  N_11 
REMARK       I    between atoms: N_11  and  C_12 
REMARK       I    between atoms: C_12  and  N_21 
REMARK    4  A    between atoms: N_21  and  CA_22 
REMARK    5  A    between atoms: CA_22  and  C_23 
REMARK    6  A    between atoms: CA_22  and  CB_25 
REMARK    7  A    between atoms: C_23  and  O_24 
REMARK    8  A    between atoms: CB_25  and  CG_26 
ROOT
HETATM    1  N   UNK A   0      24.092  44.235  48.116  1.00  0.00    -0.309 N 
HETATM    2  C   UNK A   0      22.985  44.844  47.620  1.00  0.00     0.321 C 
HETATM    3  O   UNK A   0      22.802  44.823  46.403  1.00  0.00    -0.247 OA
HETATM    4  H   UNK A   0      24.583  43.774  47.359  1.00  0.00     0.170 HD
ATOM      5  N   TRP A   1      22.108  45.419  48.484  1.00  0.00    -0.336 N 
ATOM      6  H   TRP A   1      21.968  44.873  49.323  1.00  0.00     0.164 HD
ENDROOT
BRANCH   1   7
HETATM    7  C   UNK A   0      24.729  44.196  49.368  1.00  0.00     0.036 A 
HETATM    8  C   UNK A   0      24.395  43.350  50.424  1.00  0.00     0.030 A 
HETATM    9  C   UNK A   0      25.073  43.427  51.655  1.00  0.00     0.019 A 
HETATM   10  C   UNK A   0      26.082  44.375  51.856  1.00  0.00     0.032 A 
HETATM   11  C   UNK A   0      26.426  45.215  50.790  1.00  0.00     0.019 A 
HETATM   12  C   UNK A   0      25.757  45.126  49.565  1.00  0.00     0.030 A 
BRANCH  10  13
HETATM   13  C   UNK A   0      26.815  44.569  53.150  1.00  0.00     0.256 C 
HETATM   14  N   UNK A   0      28.172  44.288  53.142  1.00  0.00    -0.323 N 
HETATM   15  H   UNK A   0      28.600  44.030  52.267  1.00  0.00     0.169 HD
HETATM   16  O   UNK A   0      26.166  44.940  54.123  1.00  0.00    -0.267 OA
BRANCH  14  17
HETATM   17  C   UNK A   0      29.042  44.263  54.257  1.00  0.00     0.035 A 
HETATM   18  C   UNK A   0      29.901  43.204  54.558  1.00  0.00     0.029 A 
HETATM   19  C   UNK A   0      30.760  43.276  55.659  1.00  0.00     0.002 A 
HETATM   20  C   UNK A   0      30.764  44.404  56.475  1.00  0.00     0.000 A 
HETATM   21  C   UNK A   0      29.907  45.463  56.191  1.00  0.00     0.002 A 
HETATM   22  C   UNK A   0      29.055  45.396  55.085  1.00  0.00     0.029 A 
ENDBRANCH  14  17
ENDBRANCH  10  13
ENDBRANCH   1   7
BRANCH   5  23
ATOM     23  CA  TRP A   1      20.863  46.016  47.972  1.00  0.00     0.114 C 
BRANCH  23  24
ATOM     24  C   TRP A   1      19.852  44.899  47.652  1.00  0.00     0.189 C 
BRANCH  24  25
ATOM     25  O   TRP A   1      18.906  44.775  48.717  1.00  0.00    -0.399 OA
ATOM     26  H   TRP A   1      18.237  45.468  48.572  1.00  0.00     0.209 HD
ENDBRANCH  24  25
ENDBRANCH  23  24
BRANCH  23  27
ATOM     27  CB  TRP A   1      20.268  47.025  48.977  1.00  0.00     0.068 C 
BRANCH  27  28
ATOM     28  CG  TRP A   1      20.487  48.452  48.560  1.00  0.00    -0.028 A 
ATOM     29  CD2 TRP A   1      19.709  49.597  48.923  1.00  0.00    -0.002 A 
ATOM     30  CE2 TRP A   1      20.308  50.715  48.340  1.00  0.00     0.042 A 
ATOM     31  CE3 TRP A   1      18.550  49.793  49.702  1.00  0.00     0.014 A 
ATOM     32  CZ2 TRP A   1      19.822  52.016  48.515  1.00  0.00     0.030 A 
ATOM     33  NE1 TRP A   1      21.391  50.265  47.624  1.00  0.00    -0.365 N 
ATOM     34  CH2 TRP A   1      18.684  52.182  49.310  1.00  0.00     0.002 A 
ATOM     35  CZ3 TRP A   1      18.053  51.087  49.894  1.00  0.00     0.001 A 
ATOM     36  HE1 TRP A   1      22.012  50.859  47.093  1.00  0.00     0.165 HD
ATOM     37  CD1 TRP A   1      21.505  48.907  47.741  1.00  0.00     0.096 A 
ENDBRANCH  27  28
ENDBRANCH  23  27
ENDBRANCH   5  23
TORSDOF 8
ENDMDL
MODEL 9
REMARK VINA RESULT:      -9.6      2.886     10.346
REMARK  8 active torsions:
REMARK  status: ('A' for Active; 'I' for Inactive)
REMARK    1  A    between atoms: C_4  and  N_5 
REMARK       I    between atoms: N_5  and  C_6 
REMARK    2  A    between atoms: C_6  and  C_7 
REMARK    3  A    between atoms: C_10  and  N_11 
REMARK       I    between atoms: N_11  and  C_12 
REMARK       I    between atoms: C_12  and  N_21 
REMARK    4  A    between atoms: N_21  and  CA_22 
REMARK    5  A    between atoms: CA_22  and  C_23 
REMARK    6  A    between atoms: CA_22  and  CB_25 
REMARK    7  A    between atoms: C_23  and  O_24 
REMARK    8  A    between atoms: CB_25  and  CG_26 
ROOT
HETATM    1  N   UNK A   0      21.559  46.014  46.878  1.00  0.00    -0.309 N 
HETATM    2  C   UNK A   0      20.353  46.589  46.641  1.00  0.00     0.321 C 
HETATM    3  O   UNK A   0      20.026  46.801  45.473  1.00  0.00    -0.247 OA
HETATM    4  H   UNK A   0      21.993  45.778  45.993  1.00  0.00     0.170 HD
ATOM      5  N   TRP A   1      19.541  46.871  47.692  1.00  0.00    -0.336 N 
ATOM      6  H   TRP A   1      19.551  46.150  48.401  1.00  0.00     0.164 HD
ENDROOT
BRANCH   1   7
HETATM    7  C   UNK A   0      22.344  45.785  48.021  1.00  0.00     0.036 A 
HETATM    8  C   UNK A   0      23.134  46.733  48.669  1.00  0.00     0.030 A 
HETATM    9  C   UNK A   0      23.918  46.382  49.784  1.00  0.00     0.019 A 
HETATM   10  C   UNK A   0      23.943  45.064  50.253  1.00  0.00     0.032 A 
HETATM   11  C   UNK A   0      23.138  44.115  49.609  1.00  0.00     0.019 A 
HETATM   12  C   UNK A   0      22.352  44.472  48.510  1.00  0.00     0.030 A 
BRANCH  10  13
HETATM   13  C   UNK A   0      24.792  44.586  51.393  1.00  0.00     0.256 C 
HETATM   14  N   UNK A   0      26.066  45.124  51.483  1.00  0.00    -0.323 N 
HETATM   15  H   UNK A   0      26.329  45.841  50.826  1.00  0.00     0.169 HD
HETATM   16  O   UNK A   0      24.315  43.745  52.147  1.00  0.00    -0.267 OA
BRANCH  14  17
HETATM   17  C   UNK A   0      27.091  44.737  52.378  1.00  0.00     0.035 A 
HETATM   18  C   UNK A   0      27.191  45.184  53.696  1.00  0.00     0.029 A 
HETATM   19  C   UNK A   0      28.215  44.720  54.529  1.00  0.00     0.002 A 
HETATM   20  C   UNK A   0      29.153  43.810  54.050  1.00  0.00     0.000 A 
HETATM   21  C   UNK A   0      29.069  43.362  52.735  1.00  0.00     0.002 A 
HETATM   22  C   UNK A   0      28.040  43.818  51.905  1.00  0.00     0.029 A 
ENDBRANCH  14  17
ENDBRANCH  10  13
ENDBRANCH   1   7
BRANCH   5  23
ATOM     23  CA  TRP A   1      18.197  47.422  47.450  1.00  0.00     0.114 C 
BRANCH  23  24
ATOM     24  C   TRP A   1      17.189  46.755  48.406  1.00  0.00     0.189 C 
BRANCH  24  25
ATOM     25  O   TRP A   1      15.921  47.408  48.314  1.00  0.00    -0.399 OA
ATOM     26  H   TRP A   1      16.064  48.212  47.783  1.00  0.00     0.209 HD
ENDBRANCH  24  25
ENDBRANCH  23  24
BRANCH  23  27
ATOM     27  CB  TRP A   1      18.178  48.957  47.616  1.00  0.00     0.068 C 
BRANCH  27  28
ATOM     28  CG  TRP A   1      19.102  49.431  48.702  1.00  0.00    -0.028 A 
ATOM     29  CD2 TRP A   1      20.447  49.899  48.561  1.00  0.00    -0.002 A 
ATOM     30  CE2 TRP A   1      20.896  50.274  49.829  1.00  0.00     0.042 A 
ATOM     31  CE3 TRP A   1      21.329  50.047  47.472  1.00  0.00     0.014 A 
ATOM     32  CZ2 TRP A   1      22.170  50.808  50.056  1.00  0.00     0.030 A 
ATOM     33  NE1 TRP A   1      19.876  50.015  50.712  1.00  0.00    -0.365 N 
ATOM     34  CH2 TRP A   1      23.014  50.964  48.954  1.00  0.00     0.002 A 
ATOM     35  CZ3 TRP A   1      22.604  50.587  47.678  1.00  0.00     0.001 A 
ATOM     36  HE1 TRP A   1      19.923  50.187  51.706  1.00  0.00     0.165 HD
ATOM     37  CD1 TRP A   1      18.795  49.501  50.049  1.00  0.00     0.096 A 
ENDBRANCH  27  28
ENDBRANCH  23  27
ENDBRANCH   5  23
TORSDOF 8
ENDMDL
MODEL 10
REMARK VINA RESULT:      -9.5      1.488      1.942
REMARK  8 active torsions:
REMARK  status: ('A' for Active; 'I' for Inactive)
REMARK    1  A    between atoms: C_4  and  N_5 
REMARK       I    between atoms: N_5  and  C_6 
REMARK    2  A    between atoms: C_6  and  C_7 
REMARK    3  A    between atoms: C_10  and  N_11 
REMARK       I    between atoms: N_11  and  C_12 
REMARK       I    between atoms: C_12  and  N_21 
REMARK    4  A    between atoms: N_21  and  CA_22 
REMARK    5  A    between atoms: CA_22  and  C_23 
REMARK    6  A    between atoms: CA_22  and  CB_25 
REMARK    7  A    between atoms: C_23  and  O_24 
REMARK    8  A    between atoms: CB_25  and  CG_26 
ROOT
HETATM    1  N   UNK A   0      24.888  42.302  49.842  1.00  0.00    -0.309 N 
HETATM    2  C   UNK A   0      25.830  41.861  50.715  1.00  0.00     0.321 C 
HETATM    3  O   UNK A   0      25.899  40.652  50.937  1.00  0.00    -0.247 OA
HETATM    4  H   UNK A   0      24.410  41.505  49.439  1.00  0.00     0.170 HD
ATOM      5  N   TRP A   1      26.678  42.760  51.278  1.00  0.00    -0.336 N 
ATOM      6  H   TRP A   1      26.983  43.472  50.628  1.00  0.00     0.164 HD
ENDROOT
BRANCH   1   7
HETATM    7  C   UNK A   0      24.386  43.562  49.475  1.00  0.00     0.036 A 
HETATM    8  C   UNK A   0      24.970  44.791  49.778  1.00  0.00     0.030 A 
HETATM    9  C   UNK A   0      24.356  45.999  49.398  1.00  0.00     0.019 A 
HETATM   10  C   UNK A   0      23.128  45.994  48.727  1.00  0.00     0.032 A 
HETATM   11  C   UNK A   0      22.548  44.759  48.410  1.00  0.00     0.019 A 
HETATM   12  C   UNK A   0      23.170  43.562  48.781  1.00  0.00     0.030 A 
BRANCH  10  13
HETATM   13  C   UNK A   0      22.371  47.229  48.338  1.00  0.00     0.256 C 
HETATM   14  N   UNK A   0      22.020  48.090  49.365  1.00  0.00    -0.323 N 
HETATM   15  H   UNK A   0      22.339  47.876  50.297  1.00  0.00     0.169 HD
HETATM   16  O   UNK A   0      22.099  47.381  47.152  1.00  0.00    -0.267 OA
BRANCH  14  17
HETATM   17  C   UNK A   0      21.197  49.236  49.270  1.00  0.00     0.035 A 
HETATM   18  C   UNK A   0      21.607  50.452  48.720  1.00  0.00     0.029 A 
HETATM   19  C   UNK A   0      20.716  51.527  48.626  1.00  0.00     0.002 A 
HETATM   20  C   UNK A   0      19.409  51.399  49.088  1.00  0.00     0.000 A 
HETATM   21  C   UNK A   0      18.990  50.194  49.646  1.00  0.00     0.002 A 
HETATM   22  C   UNK A   0      19.877  49.117  49.731  1.00  0.00     0.029 A 
ENDBRANCH  14  17
ENDBRANCH  10  13
ENDBRANCH   1   7
BRANCH   5  23
ATOM     23  CA  TRP A   1      27.755  42.292  52.165  1.00  0.00     0.114 C 
BRANCH  23  24
ATOM     24  C   TRP A   1      28.346  40.982  51.609  1.00  0.00     0.189 C 
BRANCH  24  25
ATOM     25  O   TRP A   1      28.798  40.155  52.683  1.00  0.00    -0.399 OA
ATOM     26  H   TRP A   1      29.747  39.999  52.528  1.00  0.00     0.209 HD
ENDBRANCH  24  25
ENDBRANCH  23  24
BRANCH  23  27
ATOM     27  CB  TRP A   1      28.854  43.363  52.331  1.00  0.00     0.068 C 
BRANCH  27  28
ATOM     28  CG  TRP A   1      28.649  44.216  53.551  1.00  0.00    -0.028 A 
ATOM     29  CD2 TRP A   1      29.450  44.251  54.736  1.00  0.00    -0.002 A 
ATOM     30  CE2 TRP A   1      28.909  45.222  55.581  1.00  0.00     0.042 A 
ATOM     31  CE3 TRP A   1      30.594  43.552  55.172  1.00  0.00     0.014 A 
ATOM     32  CZ2 TRP A   1      29.465  45.543  56.825  1.00  0.00     0.030 A 
ATOM     33  NE1 TRP A   1      27.802  45.735  54.949  1.00  0.00    -0.365 N 
ATOM     34  CH2 TRP A   1      30.612  44.849  57.221  1.00  0.00     0.002 A 
ATOM     35  CZ3 TRP A   1      31.170  43.864  56.409  1.00  0.00     0.001 A 
ATOM     36  HE1 TRP A   1      27.209  46.458  55.332  1.00  0.00     0.165 HD
ATOM     37  CD1 TRP A   1      27.630  45.135  53.732  1.00  0.00     0.096 A 
ENDBRANCH  27  28
ENDBRANCH  23  27
ENDBRANCH   5  23
TORSDOF 8
ENDMDL
