MODEL 1
REMARK VINA RESULT:      -8.8      0.000      0.000
REMARK  8 active torsions:
REMARK  status: ('A' for Active; 'I' for Inactive)
REMARK    1  A    between atoms: C_2  and  C_3 
REMARK    2  A    between atoms: C_3  and  O_4 
REMARK    3  A    between atoms: O_4  and  C_5 
REMARK    4  A    between atoms: C_6  and  O_7 
REMARK    5  A    between atoms: C_11  and  C_12 
REMARK    6  A    between atoms: C_12  and  N_13 
REMARK    7  A    between atoms: N_13  and  C_14 
REMARK    8  A    between atoms: C_21  and  C_22 
REMARK       I    between atoms: C_22  and  N_23 
ROOT
HETATM    1  N   UNL     1      27.859  43.699  51.009  1.00  0.00    -0.289 NA
HETATM    2  H   UNL     1      28.774  44.138  50.954  1.00  0.00     0.128 HD
ENDROOT
BRANCH   1   3
HETATM    3  C   UNL     1      27.756  42.786  52.141  1.00  0.00     0.131 C 
BRANCH   3   4
HETATM    4  C   UNL     1      28.527  43.358  53.308  1.00  0.00    -0.042 A 
HETATM    5  C   UNL     1      29.738  42.789  53.718  1.00  0.00     0.011 A 
HETATM    6  C   UNL     1      30.447  43.327  54.798  1.00  0.00     0.040 A 
HETATM    7  C   UNL     1      29.949  44.435  55.491  1.00  0.00     0.101 A 
HETATM    8  C   UNL     1      28.712  44.983  55.109  1.00  0.00     0.102 A 
HETATM    9  C   UNL     1      28.018  44.455  54.016  1.00  0.00     0.048 A 
BRANCH   7  10
HETATM   10  O   UNL     1      30.570  45.028  56.560  1.00  0.00    -0.353 OA
HETATM   11  C   UNL     1      31.219  44.172  57.490  1.00  0.00     0.210 C 
ENDBRANCH   7  10
BRANCH   8  12
HETATM   12  O   UNL     1      28.278  46.094  55.789  1.00  0.00    -0.344 OA
BRANCH  12  13
HETATM   13  C   UNL     1      28.206  47.303  55.031  1.00  0.00     0.209 C 
BRANCH  13  14
HETATM   14  C   UNL     1      26.795  47.848  55.042  1.00  0.00    -0.069 C 
HETATM   15  C   UNL     1      25.892  47.373  53.939  1.00  0.00     0.044 C 
HETATM   16  C   UNL     1      26.371  48.722  55.971  1.00  0.00     0.016 C 
ENDBRANCH  13  14
ENDBRANCH  12  13
ENDBRANCH   8  12
ENDBRANCH   3   4
ENDBRANCH   1   3
BRANCH   1  17
HETATM   17  C   UNL     1      26.819  44.607  50.773  1.00  0.00     0.009 A 
HETATM   18  C   UNL     1      27.022  45.871  50.198  1.00  0.00     0.039 A 
HETATM   19  C   UNL     1      25.949  46.779  50.066  1.00  0.00     0.030 A 
HETATM   20  C   UNL     1      24.698  46.409  50.536  1.00  0.00     0.063 A 
HETATM   21  C   UNL     1      25.780  48.100  49.554  1.00  0.00     0.156 A 
HETATM   22  N   UNL     1      23.884  47.476  50.277  1.00  0.00    -0.277 N 
HETATM   23  C   UNL     1      24.453  45.179  51.146  1.00  0.00     0.034 A 
HETATM   24  H   UNL     1      22.896  47.560  50.488  1.00  0.00     0.189 HD
HETATM   25  N   UNL     1      24.500  48.516  49.687  1.00  0.00    -0.168 NA
HETATM   26  C   UNL     1      25.541  44.303  51.269  1.00  0.00     0.026 A 
BRANCH  21  27
HETATM   27  C   UNL     1      26.808  48.959  48.952  1.00  0.00     0.270 C 
HETATM   28  N   UNL     1      26.323  49.859  48.043  1.00  0.00    -0.365 N 
HETATM   29  H   UNL     1      25.326  49.875  47.860  1.00  0.00     0.159 HD
HETATM   30  H   UNL     1      26.951  50.503  47.589  1.00  0.00     0.159 HD
HETATM   31  O   UNL     1      28.004  48.906  49.220  1.00  0.00    -0.266 OA
ENDBRANCH  21  27
ENDBRANCH   1  17
TORSDOF 8
ENDMDL
MODEL 2
REMARK VINA RESULT:      -8.0      1.616      2.253
REMARK  8 active torsions:
REMARK  status: ('A' for Active; 'I' for Inactive)
REMARK    1  A    between atoms: C_2  and  C_3 
REMARK    2  A    between atoms: C_3  and  O_4 
REMARK    3  A    between atoms: O_4  and  C_5 
REMARK    4  A    between atoms: C_6  and  O_7 
REMARK    5  A    between atoms: C_11  and  C_12 
REMARK    6  A    between atoms: C_12  and  N_13 
REMARK    7  A    between atoms: N_13  and  C_14 
REMARK    8  A    between atoms: C_21  and  C_22 
REMARK       I    between atoms: C_22  and  N_23 
ROOT
HETATM    1  N   UNL     1      27.376  42.575  52.937  1.00  0.00    -0.289 NA
HETATM    2  H   UNL     1      27.010  41.758  53.416  1.00  0.00     0.128 HD
ENDROOT
BRANCH   1   3
HETATM    3  C   UNL     1      28.833  42.598  52.924  1.00  0.00     0.131 C 
BRANCH   3   4
HETATM    4  C   UNL     1      29.324  43.429  54.086  1.00  0.00    -0.042 A 
HETATM    5  C   UNL     1      30.440  43.035  54.833  1.00  0.00     0.011 A 
HETATM    6  C   UNL     1      30.890  43.812  55.906  1.00  0.00     0.040 A 
HETATM    7  C   UNL     1      30.223  44.991  56.254  1.00  0.00     0.101 A 
HETATM    8  C   UNL     1      29.077  45.369  55.534  1.00  0.00     0.102 A 
HETATM    9  C   UNL     1      28.644  44.599  54.450  1.00  0.00     0.048 A 
BRANCH   7  10
HETATM   10  O   UNL     1      30.588  45.815  57.288  1.00  0.00    -0.353 OA
HETATM   11  C   UNL     1      30.958  45.195  58.512  1.00  0.00     0.210 C 
ENDBRANCH   7  10
BRANCH   8  12
HETATM   12  O   UNL     1      28.475  46.552  55.883  1.00  0.00    -0.344 OA
BRANCH  12  13
HETATM   13  C   UNL     1      28.165  47.439  54.805  1.00  0.00     0.209 C 
BRANCH  13  14
HETATM   14  C   UNL     1      26.706  47.832  54.850  1.00  0.00    -0.069 C 
HETATM   15  C   UNL     1      25.832  47.263  53.767  1.00  0.00     0.044 C 
HETATM   16  C   UNL     1      26.215  48.658  55.790  1.00  0.00     0.016 C 
ENDBRANCH  13  14
ENDBRANCH  12  13
ENDBRANCH   8  12
ENDBRANCH   3   4
ENDBRANCH   1   3
BRANCH   1  17
HETATM   17  C   UNL     1      26.682  42.851  51.752  1.00  0.00     0.009 A 
HETATM   18  C   UNL     1      26.245  44.138  51.403  1.00  0.00     0.039 A 
HETATM   19  C   UNL     1      25.473  44.341  50.238  1.00  0.00     0.030 A 
HETATM   20  C   UNL     1      25.136  43.244  49.459  1.00  0.00     0.063 A 
HETATM   21  C   UNL     1      24.872  45.459  49.587  1.00  0.00     0.156 A 
HETATM   22  N   UNL     1      24.398  43.748  48.425  1.00  0.00    -0.277 N 
HETATM   23  C   UNL     1      25.517  41.942  49.782  1.00  0.00     0.034 A 
HETATM   24  H   UNL     1      23.981  43.230  47.659  1.00  0.00     0.189 HD
HETATM   25  N   UNL     1      24.215  45.080  48.468  1.00  0.00    -0.168 NA
HETATM   26  C   UNL     1      26.276  41.773  50.949  1.00  0.00     0.026 A 
BRANCH  21  27
HETATM   27  C   UNL     1      24.912  46.864  50.014  1.00  0.00     0.270 C 
HETATM   28  N   UNL     1      23.681  47.453  50.119  1.00  0.00    -0.365 N 
HETATM   29  H   UNL     1      22.859  46.897  49.911  1.00  0.00     0.159 HD
HETATM   30  H   UNL     1      23.607  48.410  50.422  1.00  0.00     0.159 HD
HETATM   31  O   UNL     1      25.939  47.486  50.267  1.00  0.00    -0.266 OA
ENDBRANCH  21  27
ENDBRANCH   1  17
TORSDOF 8
ENDMDL
MODEL 3
REMARK VINA RESULT:      -7.9      2.416      4.265
REMARK  8 active torsions:
REMARK  status: ('A' for Active; 'I' for Inactive)
REMARK    1  A    between atoms: C_2  and  C_3 
REMARK    2  A    between atoms: C_3  and  O_4 
REMARK    3  A    between atoms: O_4  and  C_5 
REMARK    4  A    between atoms: C_6  and  O_7 
REMARK    5  A    between atoms: C_11  and  C_12 
REMARK    6  A    between atoms: C_12  and  N_13 
REMARK    7  A    between atoms: N_13  and  C_14 
REMARK    8  A    between atoms: C_21  and  C_22 
REMARK       I    between atoms: C_22  and  N_23 
ROOT
HETATM    1  N   UNL     1      25.050  46.318  51.750  1.00  0.00    -0.289 NA
HETATM    2  H   UNL     1      25.043  45.390  51.337  1.00  0.00     0.128 HD
ENDROOT
BRANCH   1   3
HETATM    3  C   UNL     1      25.879  46.380  52.947  1.00  0.00     0.131 C 
BRANCH   3   4
HETATM    4  C   UNL     1      26.821  45.199  52.955  1.00  0.00    -0.042 A 
HETATM    5  C   UNL     1      26.739  44.205  51.973  1.00  0.00     0.011 A 
HETATM    6  C   UNL     1      27.617  43.115  51.988  1.00  0.00     0.040 A 
HETATM    7  C   UNL     1      28.584  42.999  52.990  1.00  0.00     0.101 A 
HETATM    8  C   UNL     1      28.644  43.972  54.003  1.00  0.00     0.102 A 
HETATM    9  C   UNL     1      27.777  45.069  53.973  1.00  0.00     0.048 A 
BRANCH   7  10
HETATM   10  O   UNL     1      29.484  41.968  53.087  1.00  0.00    -0.353 OA
HETATM   11  C   UNL     1      29.049  40.684  52.664  1.00  0.00     0.210 C 
ENDBRANCH   7  10
BRANCH   8  12
HETATM   12  O   UNL     1      29.632  43.842  54.946  1.00  0.00    -0.344 OA
BRANCH  12  13
HETATM   13  C   UNL     1      29.839  44.973  55.795  1.00  0.00     0.209 C 
BRANCH  13  14
HETATM   14  C   UNL     1      30.687  44.587  56.986  1.00  0.00    -0.069 C 
HETATM   15  C   UNL     1      31.518  43.343  56.834  1.00  0.00     0.044 C 
HETATM   16  C   UNL     1      30.690  45.299  58.127  1.00  0.00     0.016 C 
ENDBRANCH  13  14
ENDBRANCH  12  13
ENDBRANCH   8  12
ENDBRANCH   3   4
ENDBRANCH   1   3
BRANCH   1  17
HETATM   17  C   UNL     1      25.173  47.327  50.786  1.00  0.00     0.009 A 
HETATM   18  C   UNL     1      24.080  47.841  50.071  1.00  0.00     0.039 A 
HETATM   19  C   UNL     1      24.277  48.795  49.049  1.00  0.00     0.030 A 
HETATM   20  C   UNL     1      25.570  49.196  48.749  1.00  0.00     0.063 A 
HETATM   21  C   UNL     1      23.443  49.514  48.142  1.00  0.00     0.156 A 
HETATM   22  N   UNL     1      25.441  50.104  47.735  1.00  0.00    -0.277 N 
HETATM   23  C   UNL     1      26.691  48.691  49.407  1.00  0.00     0.034 A 
HETATM   24  H   UNL     1      26.184  50.605  47.262  1.00  0.00     0.189 HD
HETATM   25  N   UNL     1      24.174  50.321  47.340  1.00  0.00    -0.168 NA
HETATM   26  C   UNL     1      26.462  47.739  50.411  1.00  0.00     0.026 A 
BRANCH  21  27
HETATM   27  C   UNL     1      21.980  49.440  48.029  1.00  0.00     0.270 C 
HETATM   28  N   UNL     1      21.514  48.244  47.559  1.00  0.00    -0.365 N 
HETATM   29  H   UNL     1      22.184  47.516  47.338  1.00  0.00     0.159 HD
HETATM   30  H   UNL     1      20.523  48.093  47.464  1.00  0.00     0.159 HD
HETATM   31  O   UNL     1      21.213  50.351  48.325  1.00  0.00    -0.266 OA
ENDBRANCH  21  27
ENDBRANCH   1  17
TORSDOF 8
ENDMDL
MODEL 4
REMARK VINA RESULT:      -7.8      3.726      6.779
REMARK  8 active torsions:
REMARK  status: ('A' for Active; 'I' for Inactive)
REMARK    1  A    between atoms: C_2  and  C_3 
REMARK    2  A    between atoms: C_3  and  O_4 
REMARK    3  A    between atoms: O_4  and  C_5 
REMARK    4  A    between atoms: C_6  and  O_7 
REMARK    5  A    between atoms: C_11  and  C_12 
REMARK    6  A    between atoms: C_12  and  N_13 
REMARK    7  A    between atoms: N_13  and  C_14 
REMARK    8  A    between atoms: C_21  and  C_22 
REMARK       I    between atoms: C_22  and  N_23 
ROOT
HETATM    1  N   UNL     1      27.089  42.617  51.583  1.00  0.00    -0.289 NA
HETATM    2  H   UNL     1      26.172  42.513  52.009  1.00  0.00     0.128 HD
ENDROOT
BRANCH   1   3
HETATM    3  C   UNL     1      28.141  42.771  52.579  1.00  0.00     0.131 C 
BRANCH   3   4
HETATM    4  C   UNL     1      27.867  44.011  53.398  1.00  0.00    -0.042 A 
HETATM    5  C   UNL     1      26.710  44.770  53.190  1.00  0.00     0.011 A 
HETATM    6  C   UNL     1      26.463  45.916  53.954  1.00  0.00     0.040 A 
HETATM    7  C   UNL     1      27.375  46.325  54.932  1.00  0.00     0.101 A 
HETATM    8  C   UNL     1      28.559  45.590  55.116  1.00  0.00     0.102 A 
HETATM    9  C   UNL     1      28.792  44.435  54.363  1.00  0.00     0.048 A 
BRANCH   7  10
HETATM   10  O   UNL     1      27.220  47.432  55.727  1.00  0.00    -0.353 OA
HETATM   11  C   UNL     1      26.327  48.438  55.270  1.00  0.00     0.210 C 
ENDBRANCH   7  10
BRANCH   8  12
HETATM   12  O   UNL     1      29.409  46.002  56.111  1.00  0.00    -0.344 OA
BRANCH  12  13
HETATM   13  C   UNL     1      30.707  45.402  56.115  1.00  0.00     0.209 C 
BRANCH  13  14
HETATM   14  C   UNL     1      30.928  44.637  57.400  1.00  0.00    -0.069 C 
HETATM   15  C   UNL     1      31.498  43.253  57.259  1.00  0.00     0.044 C 
HETATM   16  C   UNL     1      30.618  45.151  58.603  1.00  0.00     0.016 C 
ENDBRANCH  13  14
ENDBRANCH  12  13
ENDBRANCH   8  12
ENDBRANCH   3   4
ENDBRANCH   1   3
BRANCH   1  17
HETATM   17  C   UNL     1      27.286  41.725  50.521  1.00  0.00     0.009 A 
HETATM   18  C   UNL     1      27.976  40.511  50.659  1.00  0.00     0.039 A 
HETATM   19  C   UNL     1      28.221  39.694  49.534  1.00  0.00     0.030 A 
HETATM   20  C   UNL     1      27.788  40.124  48.288  1.00  0.00     0.063 A 
HETATM   21  C   UNL     1      28.864  38.443  49.294  1.00  0.00     0.156 A 
HETATM   22  N   UNL     1      28.167  39.143  47.415  1.00  0.00    -0.277 N 
HETATM   23  C   UNL     1      27.128  41.337  48.094  1.00  0.00     0.034 A 
HETATM   24  H   UNL     1      28.016  39.122  46.413  1.00  0.00     0.189 HD
HETATM   25  N   UNL     1      28.820  38.114  47.983  1.00  0.00    -0.168 NA
HETATM   26  C   UNL     1      26.908  42.129  49.230  1.00  0.00     0.026 A 
BRANCH  21  27
HETATM   27  C   UNL     1      29.514  37.573  50.283  1.00  0.00     0.270 C 
HETATM   28  N   UNL     1      28.709  36.581  50.771  1.00  0.00    -0.365 N 
HETATM   29  H   UNL     1      27.758  36.513  50.424  1.00  0.00     0.159 HD
HETATM   30  H   UNL     1      29.072  35.924  51.442  1.00  0.00     0.159 HD
HETATM   31  O   UNL     1      30.676  37.693  50.658  1.00  0.00    -0.266 OA
ENDBRANCH  21  27
ENDBRANCH   1  17
TORSDOF 8
ENDMDL
MODEL 5
REMARK VINA RESULT:      -7.6      2.355      3.034
REMARK  8 active torsions:
REMARK  status: ('A' for Active; 'I' for Inactive)
REMARK    1  A    between atoms: C_2  and  C_3 
REMARK    2  A    between atoms: C_3  and  O_4 
REMARK    3  A    between atoms: O_4  and  C_5 
REMARK    4  A    between atoms: C_6  and  O_7 
REMARK    5  A    between atoms: C_11  and  C_12 
REMARK    6  A    between atoms: C_12  and  N_13 
REMARK    7  A    between atoms: N_13  and  C_14 
REMARK    8  A    between atoms: C_21  and  C_22 
REMARK       I    between atoms: C_22  and  N_23 
ROOT
HETATM    1  N   UNL     1      27.312  44.544  49.942  1.00  0.00    -0.289 NA
HETATM    2  H   UNL     1      28.187  45.040  50.083  1.00  0.00     0.128 HD
ENDROOT
BRANCH   1   3
HETATM    3  C   UNL     1      27.226  43.340  50.759  1.00  0.00     0.131 C 
BRANCH   3   4
HETATM    4  C   UNL     1      27.998  43.558  52.040  1.00  0.00    -0.042 A 
HETATM    5  C   UNL     1      29.202  42.885  52.278  1.00  0.00     0.011 A 
HETATM    6  C   UNL     1      29.911  43.094  53.467  1.00  0.00     0.040 A 
HETATM    7  C   UNL     1      29.420  43.972  54.439  1.00  0.00     0.101 A 
HETATM    8  C   UNL     1      28.191  44.617  54.222  1.00  0.00     0.102 A 
HETATM    9  C   UNL     1      27.496  44.420  53.025  1.00  0.00     0.048 A 
BRANCH   7  10
HETATM   10  O   UNL     1      30.043  44.239  55.631  1.00  0.00    -0.353 OA
HETATM   11  C   UNL     1      30.997  43.293  56.091  1.00  0.00     0.210 C 
ENDBRANCH   7  10
BRANCH   8  12
HETATM   12  O   UNL     1      27.764  45.500  55.183  1.00  0.00    -0.344 OA
BRANCH  12  13
HETATM   13  C   UNL     1      27.999  46.883  54.911  1.00  0.00     0.209 C 
BRANCH  13  14
HETATM   14  C   UNL     1      26.690  47.635  54.839  1.00  0.00    -0.069 C 
HETATM   15  C   UNL     1      26.430  48.623  55.942  1.00  0.00     0.044 C 
HETATM   16  C   UNL     1      25.794  47.425  53.858  1.00  0.00     0.016 C 
ENDBRANCH  13  14
ENDBRANCH  12  13
ENDBRANCH   8  12
ENDBRANCH   3   4
ENDBRANCH   1   3
BRANCH   1  17
HETATM   17  C   UNL     1      26.212  45.409  49.891  1.00  0.00     0.009 A 
HETATM   18  C   UNL     1      24.980  45.048  49.324  1.00  0.00     0.039 A 
HETATM   19  C   UNL     1      23.934  45.992  49.222  1.00  0.00     0.030 A 
HETATM   20  C   UNL     1      24.156  47.286  49.671  1.00  0.00     0.063 A 
HETATM   21  C   UNL     1      22.598  45.993  48.724  1.00  0.00     0.156 A 
HETATM   22  N   UNL     1      22.985  47.953  49.440  1.00  0.00    -0.277 N 
HETATM   23  C   UNL     1      25.372  47.702  50.210  1.00  0.00     0.034 A 
HETATM   24  H   UNL     1      22.783  48.926  49.642  1.00  0.00     0.189 HD
HETATM   25  N   UNL     1      22.022  47.208  48.868  1.00  0.00    -0.168 NA
HETATM   26  C   UNL     1      26.392  46.743  50.290  1.00  0.00     0.026 A 
BRANCH  21  27
HETATM   27  C   UNL     1      21.873  44.867  48.119  1.00  0.00     0.270 C 
HETATM   28  N   UNL     1      22.327  44.512  46.878  1.00  0.00    -0.365 N 
HETATM   29  H   UNL     1      23.107  45.024  46.482  1.00  0.00     0.159 HD
HETATM   30  H   UNL     1      21.902  43.740  46.391  1.00  0.00     0.159 HD
HETATM   31  O   UNL     1      20.941  44.272  48.651  1.00  0.00    -0.266 OA
ENDBRANCH  21  27
ENDBRANCH   1  17
TORSDOF 8
ENDMDL
MODEL 6
REMARK VINA RESULT:      -7.6      3.478      6.462
REMARK  8 active torsions:
REMARK  status: ('A' for Active; 'I' for Inactive)
REMARK    1  A    between atoms: C_2  and  C_3 
REMARK    2  A    between atoms: C_3  and  O_4 
REMARK    3  A    between atoms: O_4  and  C_5 
REMARK    4  A    between atoms: C_6  and  O_7 
REMARK    5  A    between atoms: C_11  and  C_12 
REMARK    6  A    between atoms: C_12  and  N_13 
REMARK    7  A    between atoms: N_13  and  C_14 
REMARK    8  A    between atoms: C_21  and  C_22 
REMARK       I    between atoms: C_22  and  N_23 
ROOT
HETATM    1  N   UNL     1      27.017  42.306  52.915  1.00  0.00    -0.289 NA
HETATM    2  H   UNL     1      26.451  41.701  53.503  1.00  0.00     0.128 HD
ENDROOT
BRANCH   1   3
HETATM    3  C   UNL     1      28.155  42.863  53.636  1.00  0.00     0.131 C 
BRANCH   3   4
HETATM    4  C   UNL     1      27.867  44.308  53.971  1.00  0.00    -0.042 A 
HETATM    5  C   UNL     1      28.508  44.940  55.043  1.00  0.00     0.011 A 
HETATM    6  C   UNL     1      28.237  46.279  55.345  1.00  0.00     0.040 A 
HETATM    7  C   UNL     1      27.314  47.003  54.586  1.00  0.00     0.101 A 
HETATM    8  C   UNL     1      26.636  46.361  53.535  1.00  0.00     0.102 A 
HETATM    9  C   UNL     1      26.925  45.029  53.225  1.00  0.00     0.048 A 
BRANCH   7  10
HETATM   10  O   UNL     1      26.983  48.316  54.807  1.00  0.00    -0.353 OA
HETATM   11  C   UNL     1      26.338  48.624  56.035  1.00  0.00     0.210 C 
ENDBRANCH   7  10
BRANCH   8  12
HETATM   12  O   UNL     1      25.767  47.118  52.789  1.00  0.00    -0.344 OA
BRANCH  12  13
HETATM   13  C   UNL     1      26.016  47.154  51.382  1.00  0.00     0.209 C 
BRANCH  13  14
HETATM   14  C   UNL     1      24.791  46.704  50.619  1.00  0.00    -0.069 C 
HETATM   15  C   UNL     1      24.035  47.777  49.886  1.00  0.00     0.044 C 
HETATM   16  C   UNL     1      24.383  45.423  50.609  1.00  0.00     0.016 C 
ENDBRANCH  13  14
ENDBRANCH  12  13
ENDBRANCH   8  12
ENDBRANCH   3   4
ENDBRANCH   1   3
BRANCH   1  17
HETATM   17  C   UNL     1      27.221  41.767  51.638  1.00  0.00     0.009 A 
HETATM   18  C   UNL     1      27.942  40.584  51.413  1.00  0.00     0.039 A 
HETATM   19  C   UNL     1      28.191  40.136  50.098  1.00  0.00     0.030 A 
HETATM   20  C   UNL     1      27.731  40.899  49.034  1.00  0.00     0.063 A 
HETATM   21  C   UNL     1      28.860  39.027  49.501  1.00  0.00     0.156 A 
HETATM   22  N   UNL     1      28.122  40.224  47.911  1.00  0.00    -0.277 N 
HETATM   23  C   UNL     1      27.041  42.098  49.204  1.00  0.00     0.034 A 
HETATM   24  H   UNL     1      27.959  40.491  46.947  1.00  0.00     0.189 HD
HETATM   25  N   UNL     1      28.807  39.091  48.151  1.00  0.00    -0.168 NA
HETATM   26  C   UNL     1      26.817  42.519  50.523  1.00  0.00     0.026 A 
BRANCH  21  27
HETATM   27  C   UNL     1      29.543  37.924  50.190  1.00  0.00     0.270 C 
HETATM   28  N   UNL     1      28.721  36.890  50.543  1.00  0.00    -0.365 N 
HETATM   29  H   UNL     1      27.737  36.950  50.306  1.00  0.00     0.159 HD
HETATM   30  H   UNL     1      29.103  36.080  51.005  1.00  0.00     0.159 HD
HETATM   31  O   UNL     1      30.744  37.898  50.440  1.00  0.00    -0.266 OA
ENDBRANCH  21  27
ENDBRANCH   1  17
TORSDOF 8
ENDMDL
MODEL 7
REMARK VINA RESULT:      -7.5      3.486      8.109
REMARK  8 active torsions:
REMARK  status: ('A' for Active; 'I' for Inactive)
REMARK    1  A    between atoms: C_2  and  C_3 
REMARK    2  A    between atoms: C_3  and  O_4 
REMARK    3  A    between atoms: O_4  and  C_5 
REMARK    4  A    between atoms: C_6  and  O_7 
REMARK    5  A    between atoms: C_11  and  C_12 
REMARK    6  A    between atoms: C_12  and  N_13 
REMARK    7  A    between atoms: N_13  and  C_14 
REMARK    8  A    between atoms: C_21  and  C_22 
REMARK       I    between atoms: C_22  and  N_23 
ROOT
HETATM    1  N   UNL     1      25.714  46.622  52.979  1.00  0.00    -0.289 NA
HETATM    2  H   UNL     1      25.114  47.122  53.628  1.00  0.00     0.128 HD
ENDROOT
BRANCH   1   3
HETATM    3  C   UNL     1      25.885  47.344  51.724  1.00  0.00     0.131 C 
BRANCH   3   4
HETATM    4  C   UNL     1      24.849  46.863  50.734  1.00  0.00    -0.042 A 
HETATM    5  C   UNL     1      24.589  45.497  50.571  1.00  0.00     0.011 A 
HETATM    6  C   UNL     1      23.627  45.060  49.654  1.00  0.00     0.040 A 
HETATM    7  C   UNL     1      22.918  45.983  48.878  1.00  0.00     0.101 A 
HETATM    8  C   UNL     1      23.206  47.352  49.007  1.00  0.00     0.102 A 
HETATM    9  C   UNL     1      24.154  47.785  49.940  1.00  0.00     0.048 A 
BRANCH   7  10
HETATM   10  O   UNL     1      21.960  45.650  47.955  1.00  0.00    -0.353 OA
HETATM   11  C   UNL     1      20.721  45.163  48.451  1.00  0.00     0.210 C 
ENDBRANCH   7  10
BRANCH   8  12
HETATM   12  O   UNL     1      22.461  48.227  48.257  1.00  0.00    -0.344 OA
BRANCH  12  13
HETATM   13  C   UNL     1      21.605  49.108  48.988  1.00  0.00     0.209 C 
BRANCH  13  14
HETATM   14  C   UNL     1      21.841  50.541  48.567  1.00  0.00    -0.069 C 
HETATM   15  C   UNL     1      20.623  51.418  48.486  1.00  0.00     0.044 C 
HETATM   16  C   UNL     1      23.065  51.006  48.263  1.00  0.00     0.016 C 
ENDBRANCH  13  14
ENDBRANCH  12  13
ENDBRANCH   8  12
ENDBRANCH   3   4
ENDBRANCH   1   3
BRANCH   1  17
HETATM   17  C   UNL     1      26.843  46.080  53.607  1.00  0.00     0.009 A 
HETATM   18  C   UNL     1      27.274  44.760  53.400  1.00  0.00     0.039 A 
HETATM   19  C   UNL     1      28.366  44.241  54.129  1.00  0.00     0.030 A 
HETATM   20  C   UNL     1      28.988  45.049  55.068  1.00  0.00     0.063 A 
HETATM   21  C   UNL     1      29.061  42.996  54.188  1.00  0.00     0.156 A 
HETATM   22  N   UNL     1      29.985  44.282  55.602  1.00  0.00    -0.277 N 
HETATM   23  C   UNL     1      28.576  46.354  55.336  1.00  0.00     0.034 A 
HETATM   24  H   UNL     1      30.646  44.548  56.324  1.00  0.00     0.189 HD
HETATM   25  N   UNL     1      30.060  43.036  55.098  1.00  0.00    -0.168 NA
HETATM   26  C   UNL     1      27.484  46.838  54.601  1.00  0.00     0.026 A 
BRANCH  21  27
HETATM   27  C   UNL     1      28.787  41.786  53.402  1.00  0.00     0.270 C 
HETATM   28  N   UNL     1      29.552  41.665  52.275  1.00  0.00    -0.365 N 
HETATM   29  H   UNL     1      30.234  42.387  52.072  1.00  0.00     0.159 HD
HETATM   30  H   UNL     1      29.447  40.858  51.681  1.00  0.00     0.159 HD
HETATM   31  O   UNL     1      27.956  40.935  53.703  1.00  0.00    -0.266 OA
ENDBRANCH  21  27
ENDBRANCH   1  17
TORSDOF 8
ENDMDL
MODEL 8
REMARK VINA RESULT:      -7.4      3.998      7.052
REMARK  8 active torsions:
REMARK  status: ('A' for Active; 'I' for Inactive)
REMARK    1  A    between atoms: C_2  and  C_3 
REMARK    2  A    between atoms: C_3  and  O_4 
REMARK    3  A    between atoms: O_4  and  C_5 
REMARK    4  A    between atoms: C_6  and  O_7 
REMARK    5  A    between atoms: C_11  and  C_12 
REMARK    6  A    between atoms: C_12  and  N_13 
REMARK    7  A    between atoms: N_13  and  C_14 
REMARK    8  A    between atoms: C_21  and  C_22 
REMARK       I    between atoms: C_22  and  N_23 
ROOT
HETATM    1  N   UNL     1      25.808  41.846  51.322  1.00  0.00    -0.289 NA
HETATM    2  H   UNL     1      26.599  42.071  51.918  1.00  0.00     0.128 HD
ENDROOT
BRANCH   1   3
HETATM    3  C   UNL     1      25.052  43.033  50.942  1.00  0.00     0.131 C 
BRANCH   3   4
HETATM    4  C   UNL     1      25.558  44.215  51.737  1.00  0.00    -0.042 A 
HETATM    5  C   UNL     1      24.941  45.467  51.636  1.00  0.00     0.011 A 
HETATM    6  C   UNL     1      25.414  46.555  52.377  1.00  0.00     0.040 A 
HETATM    7  C   UNL     1      26.518  46.410  53.223  1.00  0.00     0.101 A 
HETATM    8  C   UNL     1      27.167  45.165  53.296  1.00  0.00     0.102 A 
HETATM    9  C   UNL     1      26.678  44.076  52.568  1.00  0.00     0.048 A 
BRANCH   7  10
HETATM   10  O   UNL     1      27.053  47.417  53.985  1.00  0.00    -0.353 OA
HETATM   11  C   UNL     1      26.283  47.876  55.087  1.00  0.00     0.210 C 
ENDBRANCH   7  10
BRANCH   8  12
HETATM   12  O   UNL     1      28.222  45.054  54.166  1.00  0.00    -0.344 OA
BRANCH  12  13
HETATM   13  C   UNL     1      28.435  43.757  54.728  1.00  0.00     0.209 C 
BRANCH  13  14
HETATM   14  C   UNL     1      29.853  43.299  54.472  1.00  0.00    -0.069 C 
HETATM   15  C   UNL     1      30.818  43.460  55.614  1.00  0.00     0.044 C 
HETATM   16  C   UNL     1      30.242  42.795  53.288  1.00  0.00     0.016 C 
ENDBRANCH  13  14
ENDBRANCH  12  13
ENDBRANCH   8  12
ENDBRANCH   3   4
ENDBRANCH   1   3
BRANCH   1  17
HETATM   17  C   UNL     1      26.136  40.906  50.336  1.00  0.00     0.009 A 
HETATM   18  C   UNL     1      27.285  40.104  50.396  1.00  0.00     0.039 A 
HETATM   19  C   UNL     1      27.610  39.237  49.329  1.00  0.00     0.030 A 
HETATM   20  C   UNL     1      26.786  39.212  48.214  1.00  0.00     0.063 A 
HETATM   21  C   UNL     1      28.654  38.308  49.044  1.00  0.00     0.156 A 
HETATM   22  N   UNL     1      27.351  38.299  47.368  1.00  0.00    -0.277 N 
HETATM   23  C   UNL     1      25.653  40.015  48.092  1.00  0.00     0.034 A 
HETATM   24  H   UNL     1      27.018  38.023  46.451  1.00  0.00     0.189 HD
HETATM   25  N   UNL     1      28.481  37.734  47.832  1.00  0.00    -0.168 NA
HETATM   26  C   UNL     1      25.362  40.870  49.165  1.00  0.00     0.026 A 
BRANCH  21  27
HETATM   27  C   UNL     1      29.801  37.969  49.896  1.00  0.00     0.270 C 
HETATM   28  N   UNL     1      30.991  38.492  49.469  1.00  0.00    -0.365 N 
HETATM   29  H   UNL     1      30.996  39.063  48.631  1.00  0.00     0.159 HD
HETATM   30  H   UNL     1      31.831  38.327  49.999  1.00  0.00     0.159 HD
HETATM   31  O   UNL     1      29.735  37.283  50.911  1.00  0.00    -0.266 OA
ENDBRANCH  21  27
ENDBRANCH   1  17
TORSDOF 8
ENDMDL
MODEL 9
REMARK VINA RESULT:      -7.4      2.860      3.656
REMARK  8 active torsions:
REMARK  status: ('A' for Active; 'I' for Inactive)
REMARK    1  A    between atoms: C_2  and  C_3 
REMARK    2  A    between atoms: C_3  and  O_4 
REMARK    3  A    between atoms: O_4  and  C_5 
REMARK    4  A    between atoms: C_6  and  O_7 
REMARK    5  A    between atoms: C_11  and  C_12 
REMARK    6  A    between atoms: C_12  and  N_13 
REMARK    7  A    between atoms: N_13  and  C_14 
REMARK    8  A    between atoms: C_21  and  C_22 
REMARK       I    between atoms: C_22  and  N_23 
ROOT
HETATM    1  N   UNL     1      27.551  43.593  50.766  1.00  0.00    -0.289 NA
HETATM    2  H   UNL     1      28.127  44.412  50.933  1.00  0.00     0.128 HD
ENDROOT
BRANCH   1   3
HETATM    3  C   UNL     1      27.841  42.517  51.705  1.00  0.00     0.131 C 
BRANCH   3   4
HETATM    4  C   UNL     1      28.541  43.094  52.914  1.00  0.00    -0.042 A 
HETATM    5  C   UNL     1      29.807  42.636  53.299  1.00  0.00     0.011 A 
HETATM    6  C   UNL     1      30.449  43.177  54.419  1.00  0.00     0.040 A 
HETATM    7  C   UNL     1      29.830  44.177  55.175  1.00  0.00     0.101 A 
HETATM    8  C   UNL     1      28.542  44.610  54.818  1.00  0.00     0.102 A 
HETATM    9  C   UNL     1      27.912  44.080  53.687  1.00  0.00     0.048 A 
BRANCH   7  10
HETATM   10  O   UNL     1      30.380  44.765  56.286  1.00  0.00    -0.353 OA
HETATM   11  C   UNL     1      31.252  43.969  57.076  1.00  0.00     0.210 C 
ENDBRANCH   7  10
BRANCH   8  12
HETATM   12  O   UNL     1      27.986  45.620  55.562  1.00  0.00    -0.344 OA
BRANCH  12  13
HETATM   13  C   UNL     1      28.136  46.941  55.038  1.00  0.00     0.209 C 
BRANCH  13  14
HETATM   14  C   UNL     1      26.785  47.600  54.878  1.00  0.00    -0.069 C 
HETATM   15  C   UNL     1      26.462  48.695  55.856  1.00  0.00     0.044 C 
HETATM   16  C   UNL     1      25.908  47.221  53.932  1.00  0.00     0.016 C 
ENDBRANCH  13  14
ENDBRANCH  12  13
ENDBRANCH   8  12
ENDBRANCH   3   4
ENDBRANCH   1   3
BRANCH   1  17
HETATM   17  C   UNL     1      26.214  43.926  50.509  1.00  0.00     0.009 A 
HETATM   18  C   UNL     1      25.369  43.138  49.713  1.00  0.00     0.039 A 
HETATM   19  C   UNL     1      24.057  43.569  49.416  1.00  0.00     0.030 A 
HETATM   20  C   UNL     1      23.630  44.795  49.905  1.00  0.00     0.063 A 
HETATM   21  C   UNL     1      22.954  43.059  48.669  1.00  0.00     0.156 A 
HETATM   22  N   UNL     1      22.347  44.935  49.455  1.00  0.00    -0.277 N 
HETATM   23  C   UNL     1      24.443  45.630  50.670  1.00  0.00     0.034 A 
HETATM   24  H   UNL     1      21.721  45.716  49.620  1.00  0.00     0.189 HD
HETATM   25  N   UNL     1      21.903  43.910  48.705  1.00  0.00    -0.168 NA
HETATM   26  C   UNL     1      25.742  45.176  50.941  1.00  0.00     0.026 A 
BRANCH  21  27
HETATM   27  C   UNL     1      22.889  41.792  47.930  1.00  0.00     0.270 C 
HETATM   28  N   UNL     1      23.732  41.727  46.855  1.00  0.00    -0.365 N 
HETATM   29  H   UNL     1      24.326  42.524  46.655  1.00  0.00     0.159 HD
HETATM   30  H   UNL     1      23.770  40.890  46.296  1.00  0.00     0.159 HD
HETATM   31  O   UNL     1      22.159  40.851  48.225  1.00  0.00    -0.266 OA
ENDBRANCH  21  27
ENDBRANCH   1  17
TORSDOF 8
ENDMDL
MODEL 10
REMARK VINA RESULT:      -7.3      4.301      8.815
REMARK  8 active torsions:
REMARK  status: ('A' for Active; 'I' for Inactive)
REMARK    1  A    between atoms: C_2  and  C_3 
REMARK    2  A    between atoms: C_3  and  O_4 
REMARK    3  A    between atoms: O_4  and  C_5 
REMARK    4  A    between atoms: C_6  and  O_7 
REMARK    5  A    between atoms: C_11  and  C_12 
REMARK    6  A    between atoms: C_12  and  N_13 
REMARK    7  A    between atoms: N_13  and  C_14 
REMARK    8  A    between atoms: C_21  and  C_22 
REMARK       I    between atoms: C_22  and  N_23 
ROOT
HETATM    1  N   UNL     1      25.048  47.897  50.850  1.00  0.00    -0.289 NA
HETATM    2  H   UNL     1      25.651  48.656  51.157  1.00  0.00     0.128 HD
ENDROOT
BRANCH   1   3
HETATM    3  C   UNL     1      24.958  47.821  49.398  1.00  0.00     0.131 C 
BRANCH   3   4
HETATM    4  C   UNL     1      23.796  48.667  48.930  1.00  0.00    -0.042 A 
HETATM    5  C   UNL     1      23.935  50.049  48.759  1.00  0.00     0.011 A 
HETATM    6  C   UNL     1      22.855  50.824  48.324  1.00  0.00     0.040 A 
HETATM    7  C   UNL     1      21.616  50.230  48.063  1.00  0.00     0.101 A 
HETATM    8  C   UNL     1      21.460  48.849  48.274  1.00  0.00     0.102 A 
HETATM    9  C   UNL     1      22.548  48.075  48.690  1.00  0.00     0.048 A 
BRANCH   7  10
HETATM   10  O   UNL     1      20.502  50.907  47.636  1.00  0.00    -0.353 OA
HETATM   11  C   UNL     1      19.909  51.820  48.549  1.00  0.00     0.210 C 
ENDBRANCH   7  10
BRANCH   8  12
HETATM   12  O   UNL     1      20.240  48.298  47.970  1.00  0.00    -0.344 OA
BRANCH  12  13
HETATM   13  C   UNL     1      19.602  47.571  49.022  1.00  0.00     0.209 C 
BRANCH  13  14
HETATM   14  C   UNL     1      18.586  48.445  49.723  1.00  0.00    -0.069 C 
HETATM   15  C   UNL     1      17.483  48.999  48.865  1.00  0.00     0.044 C 
HETATM   16  C   UNL     1      18.669  48.730  51.034  1.00  0.00     0.016 C 
ENDBRANCH  13  14
ENDBRANCH  12  13
ENDBRANCH   8  12
ENDBRANCH   3   4
ENDBRANCH   1   3
BRANCH   1  17
HETATM   17  C   UNL     1      25.263  46.721  51.579  1.00  0.00     0.009 A 
HETATM   18  C   UNL     1      26.145  46.646  52.669  1.00  0.00     0.039 A 
HETATM   19  C   UNL     1      26.388  45.411  53.310  1.00  0.00     0.030 A 
HETATM   20  C   UNL     1      25.759  44.273  52.829  1.00  0.00     0.063 A 
HETATM   21  C   UNL     1      27.187  44.963  54.403  1.00  0.00     0.156 A 
HETATM   22  N   UNL     1      26.187  43.256  53.635  1.00  0.00    -0.277 N 
HETATM   23  C   UNL     1      24.902  44.289  51.729  1.00  0.00     0.034 A 
HETATM   24  H   UNL     1      25.932  42.276  53.575  1.00  0.00     0.189 HD
HETATM   25  N   UNL     1      27.051  43.631  54.595  1.00  0.00    -0.168 NA
HETATM   26  C   UNL     1      24.687  45.529  51.110  1.00  0.00     0.026 A 
BRANCH  21  27
HETATM   27  C   UNL     1      28.069  45.774  55.253  1.00  0.00     0.270 C 
HETATM   28  N   UNL     1      29.318  45.246  55.428  1.00  0.00    -0.365 N 
HETATM   29  H   UNL     1      29.543  44.370  54.971  1.00  0.00     0.159 HD
HETATM   30  H   UNL     1      29.999  45.741  55.982  1.00  0.00     0.159 HD
HETATM   31  O   UNL     1      27.748  46.839  55.772  1.00  0.00    -0.266 OA
ENDBRANCH  21  27
ENDBRANCH   1  17
TORSDOF 8
ENDMDL
