MODEL 1
REMARK VINA RESULT:      -8.5      0.000      0.000
REMARK  3 active torsions:
REMARK  status: ('A' for Active; 'I' for Inactive)
REMARK    1  A    between atoms: C_4  and  C_5 
REMARK    2  A    between atoms: C_11  and  C_12 
REMARK    3  A    between atoms: C_21  and  N_22 
ROOT
HETATM    1  C   UNL     1      32.402  49.086  41.620  1.00  0.00     0.071 A 
HETATM    2  N   UNL     1      33.010  47.847  41.601  1.00  0.00    -0.274 N 
HETATM    3  H   UNL     1      33.804  47.545  42.155  1.00  0.00     0.189 HD
HETATM    4  N   UNL     1      32.432  46.960  40.776  1.00  0.00    -0.148 NA
HETATM    5  C   UNL     1      31.431  47.663  40.263  1.00  0.00     0.199 A 
HETATM    6  C   UNL     1      31.371  48.999  40.690  1.00  0.00     0.036 A 
HETATM    7  C   UNL     1      30.287  49.927  40.202  1.00  0.00     0.079 A 
HETATM    8  C   UNL     1      29.289  49.097  39.338  1.00  0.00     0.063 A 
HETATM    9  C   UNL     1      28.121  49.857  38.730  1.00  0.00     0.020 C 
HETATM   10  N   UNL     1      27.152  50.487  38.227  1.00  0.00    -0.096 N 
HETATM   11  C   UNL     1      29.458  47.791  39.008  1.00  0.00     0.139 A 
HETATM   12  O   UNL     1      30.558  47.055  39.445  1.00  0.00    -0.277 OA
ENDROOT
BRANCH   7  13
HETATM   13  C   UNL     1      30.781  51.237  39.434  1.00  0.00     0.022 C 
HETATM   14  C   UNL     1      31.970  51.063  38.511  1.00  0.00    -0.025 C 
HETATM   15  C   UNL     1      33.130  51.730  38.610  1.00  0.00    -0.030 C 
HETATM   16  C   UNL     1      33.366  52.806  39.617  1.00  0.00     0.027 C 
HETATM   17  C   UNL     1      32.047  53.450  40.010  1.00  0.00     0.004 C 
HETATM   18  C   UNL     1      31.031  52.398  40.451  1.00  0.00     0.010 C 
ENDBRANCH   7  13
BRANCH  11  19
HETATM   19  N   UNL     1      28.611  47.056  38.210  1.00  0.00    -0.282 NA
HETATM   20  H   UNL     1      28.416  46.106  38.514  1.00  0.00     0.126 HD
HETATM   21  H   UNL     1      27.773  47.579  37.965  1.00  0.00     0.126 HD
ENDBRANCH  11  19
BRANCH   1  22
HETATM   22  C   UNL     1      32.875  50.148  42.503  1.00  0.00    -0.007 A 
HETATM   23  C   UNL     1      32.028  50.672  43.493  1.00  0.00     0.014 A 
HETATM   24  C   UNL     1      32.479  51.672  44.357  1.00  0.00     0.001 A 
HETATM   25  C   UNL     1      33.775  52.163  44.235  1.00  0.00     0.000 A 
HETATM   26  C   UNL     1      34.621  51.655  43.250  1.00  0.00     0.001 A 
HETATM   27  C   UNL     1      34.175  50.651  42.387  1.00  0.00     0.014 A 
ENDBRANCH   1  22
TORSDOF 3
ENDMDL
MODEL 2
REMARK VINA RESULT:      -7.8     12.594     14.022
REMARK  3 active torsions:
REMARK  status: ('A' for Active; 'I' for Inactive)
REMARK    1  A    between atoms: C_4  and  C_5 
REMARK    2  A    between atoms: C_11  and  C_12 
REMARK    3  A    between atoms: C_21  and  N_22 
ROOT
HETATM    1  C   UNL     1      28.827  42.505  53.098  1.00  0.00     0.071 A 
HETATM    2  N   UNL     1      29.536  41.374  52.742  1.00  0.00    -0.274 N 
HETATM    3  H   UNL     1      30.394  41.031  53.160  1.00  0.00     0.189 HD
HETATM    4  N   UNL     1      28.971  40.654  51.760  1.00  0.00    -0.148 NA
HETATM    5  C   UNL     1      27.877  41.354  51.491  1.00  0.00     0.199 A 
HETATM    6  C   UNL     1      27.737  42.536  52.234  1.00  0.00     0.036 A 
HETATM    7  C   UNL     1      26.543  43.438  52.049  1.00  0.00     0.079 A 
HETATM    8  C   UNL     1      25.554  42.741  51.067  1.00  0.00     0.063 A 
HETATM    9  C   UNL     1      24.281  43.501  50.730  1.00  0.00     0.020 C 
HETATM   10  N   UNL     1      23.225  44.131  50.451  1.00  0.00    -0.096 N 
HETATM   11  C   UNL     1      25.807  41.575  50.419  1.00  0.00     0.139 A 
HETATM   12  O   UNL     1      26.997  40.872  50.600  1.00  0.00    -0.277 OA
ENDROOT
BRANCH   7  13
HETATM   13  C   UNL     1      26.862  44.937  51.599  1.00  0.00     0.022 C 
HETATM   14  C   UNL     1      26.057  46.025  52.280  1.00  0.00    -0.025 C 
HETATM   15  C   UNL     1      25.277  46.917  51.651  1.00  0.00    -0.030 C 
HETATM   16  C   UNL     1      25.166  46.997  50.165  1.00  0.00     0.027 C 
HETATM   17  C   UNL     1      26.433  46.460  49.519  1.00  0.00     0.004 C 
HETATM   18  C   UNL     1      26.769  45.066  50.044  1.00  0.00     0.010 C 
ENDBRANCH   7  13
BRANCH  11  19
HETATM   19  N   UNL     1      24.965  40.968  49.514  1.00  0.00    -0.282 NA
HETATM   20  H   UNL     1      24.663  41.537  48.727  1.00  0.00     0.126 HD
HETATM   21  H   UNL     1      25.306  40.049  49.238  1.00  0.00     0.126 HD
ENDBRANCH  11  19
BRANCH   1  22
HETATM   22  C   UNL     1      29.277  43.368  54.186  1.00  0.00    -0.007 A 
HETATM   23  C   UNL     1      30.459  43.071  54.881  1.00  0.00     0.014 A 
HETATM   24  C   UNL     1      30.909  43.903  55.908  1.00  0.00     0.001 A 
HETATM   25  C   UNL     1      30.178  45.035  56.254  1.00  0.00     0.000 A 
HETATM   26  C   UNL     1      28.998  45.336  55.575  1.00  0.00     0.001 A 
HETATM   27  C   UNL     1      28.548  44.508  54.544  1.00  0.00     0.014 A 
ENDBRANCH   1  22
TORSDOF 3
ENDMDL
MODEL 3
REMARK VINA RESULT:      -7.6     11.755     13.898
REMARK  3 active torsions:
REMARK  status: ('A' for Active; 'I' for Inactive)
REMARK    1  A    between atoms: C_4  and  C_5 
REMARK    2  A    between atoms: C_11  and  C_12 
REMARK    3  A    between atoms: C_21  and  N_22 
ROOT
HETATM    1  C   UNL     1      26.300  44.252  49.851  1.00  0.00     0.071 A 
HETATM    2  N   UNL     1      25.780  43.332  48.962  1.00  0.00    -0.274 N 
HETATM    3  H   UNL     1      25.172  43.518  48.172  1.00  0.00     0.189 HD
HETATM    4  N   UNL     1      26.181  42.069  49.177  1.00  0.00    -0.148 NA
HETATM    5  C   UNL     1      26.975  42.201  50.231  1.00  0.00     0.199 A 
HETATM    6  C   UNL     1      27.063  43.505  50.742  1.00  0.00     0.036 A 
HETATM    7  C   UNL     1      27.931  43.819  51.935  1.00  0.00     0.079 A 
HETATM    8  C   UNL     1      28.723  42.531  52.313  1.00  0.00     0.063 A 
HETATM    9  C   UNL     1      29.651  42.632  53.513  1.00  0.00     0.020 C 
HETATM   10  N   UNL     1      30.421  42.715  54.508  1.00  0.00    -0.096 N 
HETATM   11  C   UNL     1      28.553  41.322  51.722  1.00  0.00     0.139 A 
HETATM   12  O   UNL     1      27.645  41.128  50.681  1.00  0.00    -0.277 OA
ENDROOT
BRANCH   7  13
HETATM   13  C   UNL     1      27.181  44.443  53.200  1.00  0.00     0.022 C 
HETATM   14  C   UNL     1      25.694  44.687  53.042  1.00  0.00    -0.025 C 
HETATM   15  C   UNL     1      25.088  45.875  53.182  1.00  0.00    -0.030 C 
HETATM   16  C   UNL     1      25.810  47.114  53.596  1.00  0.00     0.027 C 
HETATM   17  C   UNL     1      27.038  46.752  54.414  1.00  0.00     0.004 C 
HETATM   18  C   UNL     1      27.911  45.740  53.677  1.00  0.00     0.010 C 
ENDBRANCH   7  13
BRANCH  11  19
HETATM   19  N   UNL     1      29.210  40.164  52.073  1.00  0.00    -0.282 NA
HETATM   20  H   UNL     1      29.596  40.131  53.013  1.00  0.00     0.126 HD
HETATM   21  H   UNL     1      28.671  39.335  51.831  1.00  0.00     0.126 HD
ENDBRANCH  11  19
BRANCH   1  22
HETATM   22  C   UNL     1      26.005  45.676  49.724  1.00  0.00    -0.007 A 
HETATM   23  C   UNL     1      24.675  46.119  49.662  1.00  0.00     0.014 A 
HETATM   24  C   UNL     1      24.383  47.481  49.563  1.00  0.00     0.001 A 
HETATM   25  C   UNL     1      25.417  48.411  49.518  1.00  0.00     0.000 A 
HETATM   26  C   UNL     1      26.742  47.981  49.572  1.00  0.00     0.001 A 
HETATM   27  C   UNL     1      27.037  46.620  49.676  1.00  0.00     0.014 A 
ENDBRANCH   1  22
TORSDOF 3
ENDMDL
MODEL 4
REMARK VINA RESULT:      -7.6      2.533      5.514
REMARK  3 active torsions:
REMARK  status: ('A' for Active; 'I' for Inactive)
REMARK    1  A    between atoms: C_4  and  C_5 
REMARK    2  A    between atoms: C_11  and  C_12 
REMARK    3  A    between atoms: C_21  and  N_22 
ROOT
HETATM    1  C   UNL     1      31.066  49.305  41.343  1.00  0.00     0.071 A 
HETATM    2  N   UNL     1      30.885  49.044  42.687  1.00  0.00    -0.274 N 
HETATM    3  H   UNL     1      30.191  48.434  43.106  1.00  0.00     0.189 HD
HETATM    4  N   UNL     1      31.774  49.648  43.491  1.00  0.00    -0.148 NA
HETATM    5  C   UNL     1      32.533  50.308  42.628  1.00  0.00     0.199 A 
HETATM    6  C   UNL     1      32.135  50.194  41.287  1.00  0.00     0.036 A 
HETATM    7  C   UNL     1      32.899  50.880  40.183  1.00  0.00     0.079 A 
HETATM    8  C   UNL     1      34.168  51.536  40.806  1.00  0.00     0.063 A 
HETATM    9  C   UNL     1      35.074  52.302  39.855  1.00  0.00     0.020 C 
HETATM   10  N   UNL     1      35.826  52.937  39.066  1.00  0.00    -0.096 N 
HETATM   11  C   UNL     1      34.447  51.564  42.134  1.00  0.00     0.139 A 
HETATM   12  O   UNL     1      33.610  50.970  43.078  1.00  0.00    -0.277 OA
ENDROOT
BRANCH   7  13
HETATM   13  C   UNL     1      32.070  51.922  39.301  1.00  0.00     0.022 C 
HETATM   14  C   UNL     1      31.060  52.772  40.045  1.00  0.00    -0.025 C 
HETATM   15  C   UNL     1      29.746  52.819  39.780  1.00  0.00    -0.030 C 
HETATM   16  C   UNL     1      29.117  52.081  38.644  1.00  0.00     0.027 C 
HETATM   17  C   UNL     1      30.139  51.855  37.542  1.00  0.00     0.004 C 
HETATM   18  C   UNL     1      31.402  51.194  38.089  1.00  0.00     0.010 C 
ENDBRANCH   7  13
BRANCH  11  19
HETATM   19  N   UNL     1      35.539  52.178  42.706  1.00  0.00    -0.282 NA
HETATM   20  H   UNL     1      35.998  52.893  42.149  1.00  0.00     0.126 HD
HETATM   21  H   UNL     1      35.348  52.474  43.662  1.00  0.00     0.126 HD
ENDBRANCH  11  19
BRANCH   1  22
HETATM   22  C   UNL     1      30.218  48.683  40.331  1.00  0.00    -0.007 A 
HETATM   23  C   UNL     1      28.841  48.957  40.297  1.00  0.00     0.014 A 
HETATM   24  C   UNL     1      28.026  48.384  39.320  1.00  0.00     0.001 A 
HETATM   25  C   UNL     1      28.576  47.527  38.372  1.00  0.00     0.000 A 
HETATM   26  C   UNL     1      29.941  47.241  38.401  1.00  0.00     0.001 A 
HETATM   27  C   UNL     1      30.760  47.817  39.375  1.00  0.00     0.014 A 
ENDBRANCH   1  22
TORSDOF 3
ENDMDL
MODEL 5
REMARK VINA RESULT:      -7.5      2.194      3.261
REMARK  3 active torsions:
REMARK  status: ('A' for Active; 'I' for Inactive)
REMARK    1  A    between atoms: C_4  and  C_5 
REMARK    2  A    between atoms: C_11  and  C_12 
REMARK    3  A    between atoms: C_21  and  N_22 
ROOT
HETATM    1  C   UNL     1      30.560  48.956  39.987  1.00  0.00     0.071 A 
HETATM    2  N   UNL     1      31.354  48.294  39.071  1.00  0.00    -0.274 N 
HETATM    3  H   UNL     1      32.362  48.353  38.977  1.00  0.00     0.189 HD
HETATM    4  N   UNL     1      30.685  47.458  38.262  1.00  0.00    -0.148 NA
HETATM    5  C   UNL     1      29.435  47.599  38.682  1.00  0.00     0.199 A 
HETATM    6  C   UNL     1      29.261  48.542  39.707  1.00  0.00     0.036 A 
HETATM    7  C   UNL     1      27.901  48.813  40.297  1.00  0.00     0.079 A 
HETATM    8  C   UNL     1      26.890  47.804  39.673  1.00  0.00     0.063 A 
HETATM    9  C   UNL     1      25.444  47.922  40.126  1.00  0.00     0.020 C 
HETATM   10  N   UNL     1      24.244  48.020  40.501  1.00  0.00    -0.096 N 
HETATM   11  C   UNL     1      27.193  46.922  38.687  1.00  0.00     0.139 A 
HETATM   12  O   UNL     1      28.476  46.825  38.150  1.00  0.00    -0.277 OA
ENDROOT
BRANCH   7  13
HETATM   13  C   UNL     1      27.377  50.318  40.184  1.00  0.00     0.022 C 
HETATM   14  C   UNL     1      27.703  51.044  38.895  1.00  0.00    -0.025 C 
HETATM   15  C   UNL     1      28.394  52.190  38.807  1.00  0.00    -0.030 C 
HETATM   16  C   UNL     1      28.869  52.947  40.003  1.00  0.00     0.027 C 
HETATM   17  C   UNL     1      27.975  52.652  41.195  1.00  0.00     0.004 C 
HETATM   18  C   UNL     1      27.841  51.148  41.424  1.00  0.00     0.010 C 
ENDBRANCH   7  13
BRANCH  11  19
HETATM   19  N   UNL     1      26.303  46.055  38.092  1.00  0.00    -0.282 NA
HETATM   20  H   UNL     1      26.115  45.190  38.591  1.00  0.00     0.126 HD
HETATM   21  H   UNL     1      25.459  46.533  37.784  1.00  0.00     0.126 HD
ENDBRANCH  11  19
BRANCH   1  22
HETATM   22  C   UNL     1      31.138  49.862  40.974  1.00  0.00    -0.007 A 
HETATM   23  C   UNL     1      31.598  51.130  40.585  1.00  0.00     0.014 A 
HETATM   24  C   UNL     1      32.133  52.012  41.527  1.00  0.00     0.001 A 
HETATM   25  C   UNL     1      32.219  51.632  42.863  1.00  0.00     0.000 A 
HETATM   26  C   UNL     1      31.772  50.373  43.259  1.00  0.00     0.001 A 
HETATM   27  C   UNL     1      31.232  49.490  42.320  1.00  0.00     0.014 A 
ENDBRANCH   1  22
TORSDOF 3
ENDMDL
MODEL 6
REMARK VINA RESULT:      -7.5      2.583      4.312
REMARK  3 active torsions:
REMARK  status: ('A' for Active; 'I' for Inactive)
REMARK    1  A    between atoms: C_4  and  C_5 
REMARK    2  A    between atoms: C_11  and  C_12 
REMARK    3  A    between atoms: C_21  and  N_22 
ROOT
HETATM    1  C   UNL     1      30.413  51.886  40.559  1.00  0.00     0.071 A 
HETATM    2  N   UNL     1      29.818  53.015  41.088  1.00  0.00    -0.274 N 
HETATM    3  H   UNL     1      30.280  53.855  41.416  1.00  0.00     0.189 HD
HETATM    4  N   UNL     1      28.476  52.971  41.113  1.00  0.00    -0.148 NA
HETATM    5  C   UNL     1      28.223  51.781  40.586  1.00  0.00     0.199 A 
HETATM    6  C   UNL     1      29.360  51.025  40.264  1.00  0.00     0.036 A 
HETATM    7  C   UNL     1      29.239  49.654  39.650  1.00  0.00     0.079 A 
HETATM    8  C   UNL     1      27.732  49.384  39.356  1.00  0.00     0.063 A 
HETATM    9  C   UNL     1      27.390  48.034  38.746  1.00  0.00     0.020 C 
HETATM   10  N   UNL     1      27.105  46.915  38.240  1.00  0.00    -0.096 N 
HETATM   11  C   UNL     1      26.719  50.214  39.710  1.00  0.00     0.139 A 
HETATM   12  O   UNL     1      26.948  51.424  40.363  1.00  0.00    -0.277 OA
ENDROOT
BRANCH   7  13
HETATM   13  C   UNL     1      29.902  48.457  40.474  1.00  0.00     0.022 C 
HETATM   14  C   UNL     1      29.940  48.623  41.980  1.00  0.00    -0.025 C 
HETATM   15  C   UNL     1      31.051  48.610  42.731  1.00  0.00    -0.030 C 
HETATM   16  C   UNL     1      32.409  48.346  42.170  1.00  0.00     0.027 C 
HETATM   17  C   UNL     1      32.297  47.507  40.909  1.00  0.00     0.004 C 
HETATM   18  C   UNL     1      31.326  48.137  39.913  1.00  0.00     0.010 C 
ENDBRANCH   7  13
BRANCH  11  19
HETATM   19  N   UNL     1      25.380  49.971  39.500  1.00  0.00    -0.282 NA
HETATM   20  H   UNL     1      24.846  49.656  40.306  1.00  0.00     0.126 HD
HETATM   21  H   UNL     1      24.932  50.733  38.995  1.00  0.00     0.126 HD
ENDBRANCH  11  19
BRANCH   1  22
HETATM   22  C   UNL     1      31.862  51.795  40.409  1.00  0.00    -0.007 A 
HETATM   23  C   UNL     1      32.686  51.734  41.544  1.00  0.00     0.014 A 
HETATM   24  C   UNL     1      34.071  51.624  41.412  1.00  0.00     0.001 A 
HETATM   25  C   UNL     1      34.646  51.581  40.146  1.00  0.00     0.000 A 
HETATM   26  C   UNL     1      33.838  51.648  39.012  1.00  0.00     0.001 A 
HETATM   27  C   UNL     1      32.451  51.753  39.141  1.00  0.00     0.014 A 
ENDBRANCH   1  22
TORSDOF 3
ENDMDL
MODEL 7
REMARK VINA RESULT:      -7.4     13.446     15.360
REMARK  3 active torsions:
REMARK  status: ('A' for Active; 'I' for Inactive)
REMARK    1  A    between atoms: C_4  and  C_5 
REMARK    2  A    between atoms: C_11  and  C_12 
REMARK    3  A    between atoms: C_21  and  N_22 
ROOT
HETATM    1  C   UNL     1      17.771  47.693  47.318  1.00  0.00     0.071 A 
HETATM    2  N   UNL     1      16.882  46.636  47.335  1.00  0.00    -0.274 N 
HETATM    3  H   UNL     1      15.920  46.638  47.014  1.00  0.00     0.189 HD
HETATM    4  N   UNL     1      17.400  45.486  47.794  1.00  0.00    -0.148 NA
HETATM    5  C   UNL     1      18.649  45.831  48.074  1.00  0.00     0.199 A 
HETATM    6  C   UNL     1      18.948  47.186  47.859  1.00  0.00     0.036 A 
HETATM    7  C   UNL     1      20.328  47.733  48.123  1.00  0.00     0.079 A 
HETATM    8  C   UNL     1      21.260  46.541  48.499  1.00  0.00     0.063 A 
HETATM    9  C   UNL     1      22.705  46.885  48.824  1.00  0.00     0.020 C 
HETATM   10  N   UNL     1      23.903  47.169  49.094  1.00  0.00    -0.096 N 
HETATM   11  C   UNL     1      20.843  45.260  48.661  1.00  0.00     0.139 A 
HETATM   12  O   UNL     1      19.513  44.886  48.479  1.00  0.00    -0.277 OA
ENDROOT
BRANCH   7  13
HETATM   13  C   UNL     1      20.419  48.912  49.197  1.00  0.00     0.022 C 
HETATM   14  C   UNL     1      19.261  49.022  50.169  1.00  0.00    -0.025 C 
HETATM   15  C   UNL     1      18.483  50.103  50.324  1.00  0.00    -0.030 C 
HETATM   16  C   UNL     1      18.718  51.386  49.598  1.00  0.00     0.027 C 
HETATM   17  C   UNL     1      20.186  51.515  49.229  1.00  0.00     0.004 C 
HETATM   18  C   UNL     1      20.676  50.278  48.481  1.00  0.00     0.010 C 
ENDBRANCH   7  13
BRANCH  11  19
HETATM   19  N   UNL     1      21.643  44.204  49.037  1.00  0.00    -0.282 NA
HETATM   20  H   UNL     1      21.623  43.950  50.021  1.00  0.00     0.126 HD
HETATM   21  H   UNL     1      21.532  43.406  48.414  1.00  0.00     0.126 HD
ENDBRANCH  11  19
BRANCH   1  22
HETATM   22  C   UNL     1      17.382  49.000  46.797  1.00  0.00    -0.007 A 
HETATM   23  C   UNL     1      16.223  49.633  47.272  1.00  0.00     0.014 A 
HETATM   24  C   UNL     1      15.855  50.893  46.797  1.00  0.00     0.001 A 
HETATM   25  C   UNL     1      16.638  51.529  45.838  1.00  0.00     0.000 A 
HETATM   26  C   UNL     1      17.787  50.906  45.353  1.00  0.00     0.001 A 
HETATM   27  C   UNL     1      18.160  49.647  45.831  1.00  0.00     0.014 A 
ENDBRANCH   1  22
TORSDOF 3
ENDMDL
MODEL 8
REMARK VINA RESULT:      -7.3     15.215     17.328
REMARK  3 active torsions:
REMARK  status: ('A' for Active; 'I' for Inactive)
REMARK    1  A    between atoms: C_4  and  C_5 
REMARK    2  A    between atoms: C_11  and  C_12 
REMARK    3  A    between atoms: C_21  and  N_22 
ROOT
HETATM    1  C   UNL     1      16.364  50.101  46.894  1.00  0.00     0.071 A 
HETATM    2  N   UNL     1      16.026  50.303  45.570  1.00  0.00    -0.274 N 
HETATM    3  H   UNL     1      16.167  49.664  44.796  1.00  0.00     0.189 HD
HETATM    4  N   UNL     1      15.407  51.470  45.330  1.00  0.00    -0.148 NA
HETATM    5  C   UNL     1      15.355  52.016  46.537  1.00  0.00     0.199 A 
HETATM    6  C   UNL     1      15.968  51.262  47.551  1.00  0.00     0.036 A 
HETATM    7  C   UNL     1      15.987  51.744  48.979  1.00  0.00     0.079 A 
HETATM    8  C   UNL     1      15.131  53.044  49.066  1.00  0.00     0.063 A 
HETATM    9  C   UNL     1      15.037  53.706  50.431  1.00  0.00     0.020 C 
HETATM   10  N   UNL     1      14.958  54.255  51.563  1.00  0.00    -0.096 N 
HETATM   11  C   UNL     1      14.574  53.670  47.999  1.00  0.00     0.139 A 
HETATM   12  O   UNL     1      14.703  53.177  46.701  1.00  0.00    -0.277 OA
ENDROOT
BRANCH   7  13
HETATM   13  C   UNL     1      17.432  51.945  49.630  1.00  0.00     0.022 C 
HETATM   14  C   UNL     1      18.459  52.654  48.771  1.00  0.00    -0.025 C 
HETATM   15  C   UNL     1      19.644  52.144  48.405  1.00  0.00    -0.030 C 
HETATM   16  C   UNL     1      20.140  50.816  48.877  1.00  0.00     0.027 C 
HETATM   17  C   UNL     1      19.508  50.470  50.214  1.00  0.00     0.004 C 
HETATM   18  C   UNL     1      17.987  50.579  50.150  1.00  0.00     0.010 C 
ENDBRANCH   7  13
BRANCH  11  19
HETATM   19  N   UNL     1      13.854  54.843  48.050  1.00  0.00    -0.282 NA
HETATM   20  H   UNL     1      13.667  55.218  48.977  1.00  0.00     0.126 HD
HETATM   21  H   UNL     1      14.218  55.539  47.402  1.00  0.00     0.126 HD
ENDBRANCH  11  19
BRANCH   1  22
HETATM   22  C   UNL     1      16.995  48.860  47.333  1.00  0.00    -0.007 A 
HETATM   23  C   UNL     1      18.293  48.540  46.906  1.00  0.00     0.014 A 
HETATM   24  C   UNL     1      18.914  47.366  47.338  1.00  0.00     0.001 A 
HETATM   25  C   UNL     1      18.241  46.499  48.194  1.00  0.00     0.000 A 
HETATM   26  C   UNL     1      16.948  46.804  48.617  1.00  0.00     0.001 A 
HETATM   27  C   UNL     1      16.327  47.981  48.191  1.00  0.00     0.014 A 
ENDBRANCH   1  22
TORSDOF 3
ENDMDL
MODEL 9
REMARK VINA RESULT:      -7.3     12.410     13.730
REMARK  3 active torsions:
REMARK  status: ('A' for Active; 'I' for Inactive)
REMARK    1  A    between atoms: C_4  and  C_5 
REMARK    2  A    between atoms: C_11  and  C_12 
REMARK    3  A    between atoms: C_21  and  N_22 
ROOT
HETATM    1  C   UNL     1      27.665  42.295  51.987  1.00  0.00     0.071 A 
HETATM    2  N   UNL     1      28.770  41.470  51.936  1.00  0.00    -0.274 N 
HETATM    3  H   UNL     1      29.574  41.481  52.554  1.00  0.00     0.189 HD
HETATM    4  N   UNL     1      28.718  40.535  50.973  1.00  0.00    -0.148 NA
HETATM    5  C   UNL     1      27.546  40.781  50.404  1.00  0.00     0.199 A 
HETATM    6  C   UNL     1      26.855  41.882  50.933  1.00  0.00     0.036 A 
HETATM    7  C   UNL     1      25.505  42.288  50.398  1.00  0.00     0.079 A 
HETATM    8  C   UNL     1      25.057  41.223  49.351  1.00  0.00     0.063 A 
HETATM    9  C   UNL     1      23.717  41.458  48.673  1.00  0.00     0.020 C 
HETATM   10  N   UNL     1      22.606  41.653  48.111  1.00  0.00    -0.096 N 
HETATM   11  C   UNL     1      25.825  40.185  48.933  1.00  0.00     0.139 A 
HETATM   12  O   UNL     1      27.106  39.962  49.436  1.00  0.00    -0.277 OA
ENDROOT
BRANCH   7  13
HETATM   13  C   UNL     1      25.401  43.770  49.813  1.00  0.00     0.022 C 
HETATM   14  C   UNL     1      26.711  44.503  49.614  1.00  0.00    -0.025 C 
HETATM   15  C   UNL     1      27.034  45.675  50.181  1.00  0.00    -0.030 C 
HETATM   16  C   UNL     1      26.088  46.455  51.034  1.00  0.00     0.027 C 
HETATM   17  C   UNL     1      24.654  46.129  50.652  1.00  0.00     0.004 C 
HETATM   18  C   UNL     1      24.409  44.622  50.669  1.00  0.00     0.010 C 
ENDBRANCH   7  13
BRANCH  11  19
HETATM   19  N   UNL     1      25.464  39.262  47.977  1.00  0.00    -0.282 NA
HETATM   20  H   UNL     1      26.166  39.041  47.275  1.00  0.00     0.126 HD
HETATM   21  H   UNL     1      25.036  38.436  48.391  1.00  0.00     0.126 HD
ENDBRANCH  11  19
BRANCH   1  22
HETATM   22  C   UNL     1      27.539  43.329  53.009  1.00  0.00    -0.007 A 
HETATM   23  C   UNL     1      28.680  43.995  53.484  1.00  0.00     0.014 A 
HETATM   24  C   UNL     1      28.568  45.001  54.445  1.00  0.00     0.001 A 
HETATM   25  C   UNL     1      27.317  45.346  54.946  1.00  0.00     0.000 A 
HETATM   26  C   UNL     1      26.177  44.686  54.487  1.00  0.00     0.001 A 
HETATM   27  C   UNL     1      26.286  43.683  53.521  1.00  0.00     0.014 A 
ENDBRANCH   1  22
TORSDOF 3
ENDMDL
MODEL 10
REMARK VINA RESULT:      -7.2     15.192     17.175
REMARK  3 active torsions:
REMARK  status: ('A' for Active; 'I' for Inactive)
REMARK    1  A    between atoms: C_4  and  C_5 
REMARK    2  A    between atoms: C_11  and  C_12 
REMARK    3  A    between atoms: C_21  and  N_22 
ROOT
HETATM    1  C   UNL     1      16.961  52.473  49.253  1.00  0.00     0.071 A 
HETATM    2  N   UNL     1      16.392  53.059  50.366  1.00  0.00    -0.274 N 
HETATM    3  H   UNL     1      16.780  53.105  51.301  1.00  0.00     0.189 HD
HETATM    4  N   UNL     1      15.215  53.661  50.132  1.00  0.00    -0.148 NA
HETATM    5  C   UNL     1      15.040  53.445  48.836  1.00  0.00     0.199 A 
HETATM    6  C   UNL     1      16.044  52.676  48.226  1.00  0.00     0.036 A 
HETATM    7  C   UNL     1      15.993  52.349  46.755  1.00  0.00     0.079 A 
HETATM    8  C   UNL     1      14.786  53.111  46.129  1.00  0.00     0.063 A 
HETATM    9  C   UNL     1      14.546  52.900  44.643  1.00  0.00     0.020 C 
HETATM   10  N   UNL     1      14.347  52.725  43.410  1.00  0.00    -0.096 N 
HETATM   11  C   UNL     1      13.887  53.842  46.836  1.00  0.00     0.139 A 
HETATM   12  O   UNL     1      13.984  53.998  48.218  1.00  0.00    -0.277 OA
ENDROOT
BRANCH   7  13
HETATM   13  C   UNL     1      15.966  50.796  46.385  1.00  0.00     0.022 C 
HETATM   14  C   UNL     1      15.352  49.873  47.417  1.00  0.00    -0.025 C 
HETATM   15  C   UNL     1      15.979  48.840  48.000  1.00  0.00    -0.030 C 
HETATM   16  C   UNL     1      17.363  48.417  47.635  1.00  0.00     0.027 C 
HETATM   17  C   UNL     1      17.672  48.825  46.205  1.00  0.00     0.004 C 
HETATM   18  C   UNL     1      17.397  50.310  45.984  1.00  0.00     0.010 C 
ENDBRANCH   7  13
BRANCH  11  19
HETATM   19  N   UNL     1      12.789  54.483  46.307  1.00  0.00    -0.282 NA
HETATM   20  H   UNL     1      12.160  54.924  46.972  1.00  0.00     0.126 HD
HETATM   21  H   UNL     1      13.045  55.092  45.531  1.00  0.00     0.126 HD
ENDBRANCH  11  19
BRANCH   1  22
HETATM   22  C   UNL     1      18.266  51.823  49.324  1.00  0.00    -0.007 A 
HETATM   23  C   UNL     1      18.469  50.740  50.194  1.00  0.00     0.014 A 
HETATM   24  C   UNL     1      19.708  50.098  50.253  1.00  0.00     0.001 A 
HETATM   25  C   UNL     1      20.756  50.537  49.449  1.00  0.00     0.000 A 
HETATM   26  C   UNL     1      20.567  51.616  48.587  1.00  0.00     0.001 A 
HETATM   27  C   UNL     1      19.328  52.257  48.523  1.00  0.00     0.014 A 
ENDBRANCH   1  22
TORSDOF 3
ENDMDL
