MODEL 1
REMARK VINA RESULT:      -9.8      0.000      0.000
REMARK  6 active torsions:
REMARK  status: ('A' for Active; 'I' for Inactive)
REMARK    1  A    between atoms: O_2  and  C_3 
REMARK    2  A    between atoms: C_6  and  C_7 
REMARK    3  A    between atoms: C_13  and  C_14 
REMARK       I    between atoms: C_14  and  N_15 
REMARK    4  A    between atoms: N_15  and  C_16 
REMARK    5  A    between atoms: C_16  and  C_17 
REMARK    6  A    between atoms: C_24  and  C_25 
ROOT
HETATM    1  C   UNL     1      28.310  41.737  51.600  1.00  0.00     0.118 C 
HETATM    2  N   UNL     1      27.125  42.598  51.488  1.00  0.00    -0.365 N 
HETATM    3  C   UNL     1      26.703  43.320  52.566  1.00  0.00     0.138 A 
HETATM    4  N   UNL     1      27.258  43.114  53.809  1.00  0.00    -0.240 N 
HETATM    5  N   UNL     1      26.718  43.854  54.785  1.00  0.00    -0.181 NA
HETATM    6  C   UNL     1      25.832  44.609  54.136  1.00  0.00     0.160 A 
HETATM    7  C   UNL     1      25.756  44.316  52.748  1.00  0.00     0.096 A 
HETATM    8  C   UNL     1      28.333  42.183  54.093  1.00  0.00     0.221 C 
HETATM    9  C   UNL     1      28.379  41.107  53.002  1.00  0.00     0.066 C 
HETATM   10  H   UNL     1      27.048  43.017  50.558  1.00  0.00     0.161 HD
ENDROOT
BRANCH   7  11
HETATM   11  C   UNL     1      24.849  44.957  51.816  1.00  0.00     0.257 C 
HETATM   12  N   UNL     1      25.207  46.221  51.409  1.00  0.00    -0.352 N 
HETATM   13  H   UNL     1      26.157  46.511  51.590  1.00  0.00     0.163 HD
HETATM   14  O   UNL     1      23.851  44.383  51.393  1.00  0.00    -0.267 OA
BRANCH  12  15
HETATM   15  C   UNL     1      24.477  46.872  50.348  1.00  0.00     0.161 C 
BRANCH  15  16
HETATM   16  C   UNL     1      25.308  47.933  49.681  1.00  0.00    -0.041 A 
HETATM   17  C   UNL     1      24.703  48.943  48.920  1.00  0.00     0.009 A 
HETATM   18  C   UNL     1      25.481  49.929  48.311  1.00  0.00     0.001 A 
HETATM   19  C   UNL     1      26.867  49.913  48.452  1.00  0.00     0.000 A 
HETATM   20  C   UNL     1      27.480  48.906  49.195  1.00  0.00     0.001 A 
HETATM   21  C   UNL     1      26.705  47.917  49.802  1.00  0.00     0.009 A 
ENDBRANCH  15  16
ENDBRANCH  12  15
ENDBRANCH   7  11
BRANCH   1  22
HETATM   22  C   UNL     1      28.277  40.650  50.541  1.00  0.00    -0.035 A 
HETATM   23  C   UNL     1      27.640  40.887  49.315  1.00  0.00     0.012 A 
HETATM   24  C   UNL     1      27.686  39.933  48.295  1.00  0.00     0.037 A 
HETATM   25  C   UNL     1      28.379  38.736  48.472  1.00  0.00     0.068 A 
HETATM   26  C   UNL     1      28.986  38.474  49.698  1.00  0.00     0.037 A 
HETATM   27  C   UNL     1      28.935  39.423  50.725  1.00  0.00     0.012 A 
BRANCH  25  28
HETATM   28  O   UNL     1      28.380  37.905  47.386  1.00  0.00    -0.356 OA
HETATM   29  C   UNL     1      28.106  38.514  46.129  1.00  0.00     0.210 C 
ENDBRANCH  25  28
ENDBRANCH   1  22
BRANCH   8  30
HETATM   30  C   UNL     1      29.644  42.927  54.226  1.00  0.00     0.409 C 
HETATM   31  F   UNL     1      30.118  42.941  55.491  1.00  0.00    -0.169 F 
HETATM   32  F   UNL     1      30.613  42.439  53.425  1.00  0.00    -0.169 F 
HETATM   33  F   UNL     1      29.470  44.227  53.867  1.00  0.00    -0.169 F 
ENDBRANCH   8  30
TORSDOF 6
ENDMDL
MODEL 2
REMARK VINA RESULT:      -9.7      3.440      6.136
REMARK  6 active torsions:
REMARK  status: ('A' for Active; 'I' for Inactive)
REMARK    1  A    between atoms: O_2  and  C_3 
REMARK    2  A    between atoms: C_6  and  C_7 
REMARK    3  A    between atoms: C_13  and  C_14 
REMARK       I    between atoms: C_14  and  N_15 
REMARK    4  A    between atoms: N_15  and  C_16 
REMARK    5  A    between atoms: C_16  and  C_17 
REMARK    6  A    between atoms: C_24  and  C_25 
ROOT
HETATM    1  C   UNL     1      26.219  42.885  51.095  1.00  0.00     0.118 C 
HETATM    2  N   UNL     1      26.539  43.896  52.111  1.00  0.00    -0.365 N 
HETATM    3  C   UNL     1      26.182  45.198  51.912  1.00  0.00     0.138 A 
HETATM    4  N   UNL     1      25.693  45.613  50.694  1.00  0.00    -0.240 N 
HETATM    5  N   UNL     1      25.429  46.924  50.621  1.00  0.00    -0.181 NA
HETATM    6  C   UNL     1      25.695  47.353  51.856  1.00  0.00     0.160 A 
HETATM    7  C   UNL     1      26.188  46.332  52.710  1.00  0.00     0.096 A 
HETATM    8  C   UNL     1      25.469  44.748  49.552  1.00  0.00     0.221 C 
HETATM    9  C   UNL     1      26.336  43.491  49.685  1.00  0.00     0.066 C 
HETATM   10  H   UNL     1      26.484  43.514  53.058  1.00  0.00     0.161 HD
ENDROOT
BRANCH   7  11
HETATM   11  C   UNL     1      26.594  46.531  54.087  1.00  0.00     0.257 C 
HETATM   12  N   UNL     1      27.818  46.006  54.432  1.00  0.00    -0.352 N 
HETATM   13  H   UNL     1      28.433  45.739  53.676  1.00  0.00     0.163 HD
HETATM   14  O   UNL     1      25.900  47.165  54.876  1.00  0.00    -0.267 OA
BRANCH  12  15
HETATM   15  C   UNL     1      28.397  46.306  55.719  1.00  0.00     0.161 C 
BRANCH  15  16
HETATM   16  C   UNL     1      29.456  45.307  56.091  1.00  0.00    -0.041 A 
HETATM   17  C   UNL     1      30.161  45.425  57.297  1.00  0.00     0.009 A 
HETATM   18  C   UNL     1      31.137  44.488  57.639  1.00  0.00     0.001 A 
HETATM   19  C   UNL     1      31.422  43.429  56.779  1.00  0.00     0.000 A 
HETATM   20  C   UNL     1      30.738  43.309  55.571  1.00  0.00     0.001 A 
HETATM   21  C   UNL     1      29.763  44.247  55.226  1.00  0.00     0.009 A 
ENDBRANCH  15  16
ENDBRANCH  12  15
ENDBRANCH   7  11
BRANCH   1  22
HETATM   22  C   UNL     1      27.146  41.690  51.227  1.00  0.00    -0.035 A 
HETATM   23  C   UNL     1      27.239  40.759  50.183  1.00  0.00     0.012 A 
HETATM   24  C   UNL     1      28.158  39.709  50.248  1.00  0.00     0.037 A 
HETATM   25  C   UNL     1      29.009  39.575  51.346  1.00  0.00     0.068 A 
HETATM   26  C   UNL     1      28.901  40.473  52.405  1.00  0.00     0.037 A 
HETATM   27  C   UNL     1      27.975  41.521  52.348  1.00  0.00     0.012 A 
BRANCH  25  28
HETATM   28  O   UNL     1      29.886  38.528  51.271  1.00  0.00    -0.356 OA
HETATM   29  C   UNL     1      29.690  37.622  50.190  1.00  0.00     0.210 C 
ENDBRANCH  25  28
ENDBRANCH   1  22
BRANCH   8  30
HETATM   30  C   UNL     1      23.996  44.423  49.427  1.00  0.00     0.409 C 
HETATM   31  F   UNL     1      23.767  43.232  48.830  1.00  0.00    -0.169 F 
HETATM   32  F   UNL     1      23.351  44.423  50.611  1.00  0.00    -0.169 F 
HETATM   33  F   UNL     1      23.385  45.361  48.657  1.00  0.00    -0.169 F 
ENDBRANCH   8  30
TORSDOF 6
ENDMDL
MODEL 3
REMARK VINA RESULT:      -9.6      4.712      8.871
REMARK  6 active torsions:
REMARK  status: ('A' for Active; 'I' for Inactive)
REMARK    1  A    between atoms: O_2  and  C_3 
REMARK    2  A    between atoms: C_6  and  C_7 
REMARK    3  A    between atoms: C_13  and  C_14 
REMARK       I    between atoms: C_14  and  N_15 
REMARK    4  A    between atoms: N_15  and  C_16 
REMARK    5  A    between atoms: C_16  and  C_17 
REMARK    6  A    between atoms: C_24  and  C_25 
ROOT
HETATM    1  C   UNL     1      23.533  46.767  49.127  1.00  0.00     0.118 C 
HETATM    2  N   UNL     1      24.251  46.828  50.407  1.00  0.00    -0.365 N 
HETATM    3  C   UNL     1      24.539  45.678  51.081  1.00  0.00     0.138 A 
HETATM    4  N   UNL     1      24.007  44.475  50.677  1.00  0.00    -0.240 N 
HETATM    5  N   UNL     1      24.332  43.436  51.456  1.00  0.00    -0.181 NA
HETATM    6  C   UNL     1      25.155  43.979  52.354  1.00  0.00     0.160 A 
HETATM    7  C   UNL     1      25.315  45.380  52.191  1.00  0.00     0.096 A 
HETATM    8  C   UNL     1      23.155  44.293  49.518  1.00  0.00     0.221 C 
HETATM    9  C   UNL     1      22.497  45.628  49.151  1.00  0.00     0.066 C 
HETATM   10  H   UNL     1      24.935  47.588  50.421  1.00  0.00     0.161 HD
ENDROOT
BRANCH   7  11
HETATM   11  C   UNL     1      26.120  46.226  53.051  1.00  0.00     0.257 C 
HETATM   12  N   UNL     1      26.802  45.579  54.055  1.00  0.00    -0.352 N 
HETATM   13  H   UNL     1      26.886  44.575  53.982  1.00  0.00     0.163 HD
HETATM   14  O   UNL     1      26.211  47.434  52.861  1.00  0.00    -0.267 OA
BRANCH  12  15
HETATM   15  C   UNL     1      27.772  46.295  54.848  1.00  0.00     0.161 C 
BRANCH  15  16
HETATM   16  C   UNL     1      28.893  45.397  55.288  1.00  0.00    -0.041 A 
HETATM   17  C   UNL     1      29.186  44.219  54.585  1.00  0.00     0.009 A 
HETATM   18  C   UNL     1      30.235  43.395  54.996  1.00  0.00     0.001 A 
HETATM   19  C   UNL     1      30.996  43.735  56.113  1.00  0.00     0.000 A 
HETATM   20  C   UNL     1      30.706  44.895  56.827  1.00  0.00     0.001 A 
HETATM   21  C   UNL     1      29.656  45.720  56.420  1.00  0.00     0.009 A 
ENDBRANCH  15  16
ENDBRANCH  12  15
ENDBRANCH   7  11
BRANCH   1  22
HETATM   22  C   UNL     1      22.846  48.090  48.841  1.00  0.00    -0.035 A 
HETATM   23  C   UNL     1      21.450  48.140  48.716  1.00  0.00     0.012 A 
HETATM   24  C   UNL     1      20.796  49.364  48.550  1.00  0.00     0.037 A 
HETATM   25  C   UNL     1      21.518  50.558  48.521  1.00  0.00     0.068 A 
HETATM   26  C   UNL     1      22.907  50.517  48.608  1.00  0.00     0.037 A 
HETATM   27  C   UNL     1      23.567  49.293  48.765  1.00  0.00     0.012 A 
BRANCH  25  28
HETATM   28  O   UNL     1      20.758  51.687  48.390  1.00  0.00    -0.356 OA
HETATM   29  C   UNL     1      19.561  51.730  49.161  1.00  0.00     0.210 C 
ENDBRANCH  25  28
ENDBRANCH   1  22
BRANCH   8  30
HETATM   30  C   UNL     1      23.955  43.710  48.371  1.00  0.00     0.409 C 
HETATM   31  F   UNL     1      23.541  44.149  47.162  1.00  0.00    -0.169 F 
HETATM   32  F   UNL     1      25.277  43.955  48.470  1.00  0.00    -0.169 F 
HETATM   33  F   UNL     1      23.815  42.359  48.358  1.00  0.00    -0.169 F 
ENDBRANCH   8  30
TORSDOF 6
ENDMDL
MODEL 4
REMARK VINA RESULT:      -9.6      3.171      7.524
REMARK  6 active torsions:
REMARK  status: ('A' for Active; 'I' for Inactive)
REMARK    1  A    between atoms: O_2  and  C_3 
REMARK    2  A    between atoms: C_6  and  C_7 
REMARK    3  A    between atoms: C_13  and  C_14 
REMARK       I    between atoms: C_14  and  N_15 
REMARK    4  A    between atoms: N_15  and  C_16 
REMARK    5  A    between atoms: C_16  and  C_17 
REMARK    6  A    between atoms: C_24  and  C_25 
ROOT
HETATM    1  C   UNL     1      27.808  44.720  53.150  1.00  0.00     0.118 C 
HETATM    2  N   UNL     1      27.542  43.447  52.468  1.00  0.00    -0.365 N 
HETATM    3  C   UNL     1      26.353  43.254  51.826  1.00  0.00     0.138 A 
HETATM    4  N   UNL     1      25.326  44.160  51.963  1.00  0.00    -0.240 N 
HETATM    5  N   UNL     1      24.201  43.824  51.320  1.00  0.00    -0.181 NA
HETATM    6  C   UNL     1      24.539  42.696  50.694  1.00  0.00     0.160 A 
HETATM    7  C   UNL     1      25.863  42.271  50.980  1.00  0.00     0.096 A 
HETATM    8  C   UNL     1      25.401  45.387  52.733  1.00  0.00     0.221 C 
HETATM    9  C   UNL     1      26.515  45.268  53.779  1.00  0.00     0.066 C 
HETATM   10  H   UNL     1      28.390  43.053  52.054  1.00  0.00     0.161 HD
ENDROOT
BRANCH   7  11
HETATM   11  C   UNL     1      26.472  41.059  50.466  1.00  0.00     0.257 C 
HETATM   12  N   UNL     1      27.650  41.228  49.777  1.00  0.00    -0.352 N 
HETATM   13  H   UNL     1      28.117  42.118  49.877  1.00  0.00     0.163 HD
HETATM   14  O   UNL     1      25.979  39.955  50.675  1.00  0.00    -0.267 OA
BRANCH  12  15
HETATM   15  C   UNL     1      28.429  40.079  49.385  1.00  0.00     0.161 C 
BRANCH  15  16
HETATM   16  C   UNL     1      28.306  39.807  47.912  1.00  0.00    -0.041 A 
HETATM   17  C   UNL     1      28.339  38.495  47.420  1.00  0.00     0.009 A 
HETATM   18  C   UNL     1      28.216  38.251  46.051  1.00  0.00     0.001 A 
HETATM   19  C   UNL     1      28.064  39.314  45.162  1.00  0.00     0.000 A 
HETATM   20  C   UNL     1      28.044  40.623  45.639  1.00  0.00     0.001 A 
HETATM   21  C   UNL     1      28.170  40.870  47.007  1.00  0.00     0.009 A 
ENDBRANCH  15  16
ENDBRANCH  12  15
ENDBRANCH   7  11
BRANCH   1  22
HETATM   22  C   UNL     1      28.870  44.537  54.219  1.00  0.00    -0.035 A 
HETATM   23  C   UNL     1      29.030  45.505  55.219  1.00  0.00     0.012 A 
HETATM   24  C   UNL     1      29.935  45.304  56.264  1.00  0.00     0.037 A 
HETATM   25  C   UNL     1      30.685  44.131  56.339  1.00  0.00     0.068 A 
HETATM   26  C   UNL     1      30.562  43.177  55.332  1.00  0.00     0.037 A 
HETATM   27  C   UNL     1      29.663  43.378  54.278  1.00  0.00     0.012 A 
BRANCH  25  28
HETATM   28  O   UNL     1      31.507  44.040  57.429  1.00  0.00    -0.356 OA
HETATM   29  C   UNL     1      31.260  44.970  58.479  1.00  0.00     0.210 C 
ENDBRANCH  25  28
ENDBRANCH   1  22
BRANCH   8  30
HETATM   30  C   UNL     1      25.601  46.569  51.808  1.00  0.00     0.409 C 
HETATM   31  F   UNL     1      26.336  46.266  50.716  1.00  0.00    -0.169 F 
HETATM   32  F   UNL     1      24.442  47.116  51.389  1.00  0.00    -0.169 F 
HETATM   33  F   UNL     1      26.274  47.552  52.463  1.00  0.00    -0.169 F 
ENDBRANCH   8  30
TORSDOF 6
ENDMDL
MODEL 5
REMARK VINA RESULT:      -9.4      3.291      8.236
REMARK  6 active torsions:
REMARK  status: ('A' for Active; 'I' for Inactive)
REMARK    1  A    between atoms: O_2  and  C_3 
REMARK    2  A    between atoms: C_6  and  C_7 
REMARK    3  A    between atoms: C_13  and  C_14 
REMARK       I    between atoms: C_14  and  N_15 
REMARK    4  A    between atoms: N_15  and  C_16 
REMARK    5  A    between atoms: C_16  and  C_17 
REMARK    6  A    between atoms: C_24  and  C_25 
ROOT
HETATM    1  C   UNL     1      27.951  44.215  53.052  1.00  0.00     0.118 C 
HETATM    2  N   UNL     1      28.131  43.006  52.238  1.00  0.00    -0.365 N 
HETATM    3  C   UNL     1      27.096  42.533  51.484  1.00  0.00     0.138 A 
HETATM    4  N   UNL     1      25.832  43.062  51.616  1.00  0.00    -0.240 N 
HETATM    5  N   UNL     1      24.904  42.473  50.853  1.00  0.00    -0.181 NA
HETATM    6  C   UNL     1      25.608  41.580  50.157  1.00  0.00     0.160 A 
HETATM    7  C   UNL     1      26.982  41.550  50.514  1.00  0.00     0.096 A 
HETATM    8  C   UNL     1      25.481  44.159  52.497  1.00  0.00     0.221 C 
HETATM    9  C   UNL     1      26.521  44.269  53.618  1.00  0.00     0.066 C 
HETATM   10  H   UNL     1      29.080  42.939  51.863  1.00  0.00     0.161 HD
ENDROOT
BRANCH   7  11
HETATM   11  C   UNL     1      27.964  40.647  49.945  1.00  0.00     0.257 C 
HETATM   12  N   UNL     1      28.214  39.503  50.668  1.00  0.00    -0.352 N 
HETATM   13  H   UNL     1      27.550  39.263  51.391  1.00  0.00     0.163 HD
HETATM   14  O   UNL     1      28.502  40.879  48.867  1.00  0.00    -0.267 OA
BRANCH  12  15
HETATM   15  C   UNL     1      29.030  38.456  50.104  1.00  0.00     0.161 C 
BRANCH  15  16
HETATM   16  C   UNL     1      28.300  37.715  49.018  1.00  0.00    -0.041 A 
HETATM   17  C   UNL     1      27.095  37.052  49.289  1.00  0.00     0.009 A 
HETATM   18  C   UNL     1      26.420  36.374  48.272  1.00  0.00     0.001 A 
HETATM   19  C   UNL     1      26.943  36.347  46.981  1.00  0.00     0.000 A 
HETATM   20  C   UNL     1      28.147  36.991  46.705  1.00  0.00     0.001 A 
HETATM   21  C   UNL     1      28.826  37.668  47.719  1.00  0.00     0.009 A 
ENDBRANCH  15  16
ENDBRANCH  12  15
ENDBRANCH   7  11
BRANCH   1  22
HETATM   22  C   UNL     1      28.961  44.246  54.185  1.00  0.00    -0.035 A 
HETATM   23  C   UNL     1      28.923  45.283  55.128  1.00  0.00     0.012 A 
HETATM   24  C   UNL     1      29.781  45.272  56.230  1.00  0.00     0.037 A 
HETATM   25  C   UNL     1      30.681  44.224  56.421  1.00  0.00     0.068 A 
HETATM   26  C   UNL     1      30.753  43.206  55.473  1.00  0.00     0.037 A 
HETATM   27  C   UNL     1      29.901  43.217  54.362  1.00  0.00     0.012 A 
BRANCH  25  28
HETATM   28  O   UNL     1      31.438  44.313  57.556  1.00  0.00    -0.356 OA
HETATM   29  C   UNL     1      31.012  45.270  58.521  1.00  0.00     0.210 C 
ENDBRANCH  25  28
ENDBRANCH   1  22
BRANCH   8  30
HETATM   30  C   UNL     1      25.350  45.441  51.704  1.00  0.00     0.409 C 
HETATM   31  F   UNL     1      24.128  45.596  51.148  1.00  0.00    -0.169 F 
HETATM   32  F   UNL     1      25.616  46.544  52.432  1.00  0.00    -0.169 F 
HETATM   33  F   UNL     1      26.240  45.436  50.677  1.00  0.00    -0.169 F 
ENDBRANCH   8  30
TORSDOF 6
ENDMDL
MODEL 6
REMARK VINA RESULT:      -9.3      2.762      5.669
REMARK  6 active torsions:
REMARK  status: ('A' for Active; 'I' for Inactive)
REMARK    1  A    between atoms: O_2  and  C_3 
REMARK    2  A    between atoms: C_6  and  C_7 
REMARK    3  A    between atoms: C_13  and  C_14 
REMARK       I    between atoms: C_14  and  N_15 
REMARK    4  A    between atoms: N_15  and  C_16 
REMARK    5  A    between atoms: C_16  and  C_17 
REMARK    6  A    between atoms: C_24  and  C_25 
ROOT
HETATM    1  C   UNL     1      28.141  43.044  53.345  1.00  0.00     0.118 C 
HETATM    2  N   UNL     1      27.186  43.832  52.554  1.00  0.00    -0.365 N 
HETATM    3  C   UNL     1      26.917  43.480  51.263  1.00  0.00     0.138 A 
HETATM    4  N   UNL     1      27.663  42.511  50.631  1.00  0.00    -0.240 N 
HETATM    5  N   UNL     1      27.325  42.299  49.353  1.00  0.00    -0.181 NA
HETATM    6  C   UNL     1      26.282  43.113  49.179  1.00  0.00     0.160 A 
HETATM    7  C   UNL     1      25.984  43.894  50.326  1.00  0.00     0.096 A 
HETATM    8  C   UNL     1      28.739  41.759  51.246  1.00  0.00     0.221 C 
HETATM    9  C   UNL     1      29.285  42.537  52.449  1.00  0.00     0.066 C 
HETATM   10  H   UNL     1      26.424  44.194  53.131  1.00  0.00     0.161 HD
ENDROOT
BRANCH   7  11
HETATM   11  C   UNL     1      24.930  44.887  50.399  1.00  0.00     0.257 C 
HETATM   12  N   UNL     1      25.344  46.187  50.575  1.00  0.00    -0.352 N 
HETATM   13  H   UNL     1      26.320  46.385  50.408  1.00  0.00     0.163 HD
HETATM   14  O   UNL     1      23.749  44.580  50.269  1.00  0.00    -0.267 OA
BRANCH  12  15
HETATM   15  C   UNL     1      24.394  47.268  50.475  1.00  0.00     0.161 C 
BRANCH  15  16
HETATM   16  C   UNL     1      24.880  48.343  49.544  1.00  0.00    -0.041 A 
HETATM   17  C   UNL     1      23.972  49.134  48.826  1.00  0.00     0.009 A 
HETATM   18  C   UNL     1      24.433  50.135  47.969  1.00  0.00     0.001 A 
HETATM   19  C   UNL     1      25.801  50.352  47.818  1.00  0.00     0.000 A 
HETATM   20  C   UNL     1      26.712  49.563  48.516  1.00  0.00     0.001 A 
HETATM   21  C   UNL     1      26.255  48.559  49.371  1.00  0.00     0.009 A 
ENDBRANCH  15  16
ENDBRANCH  12  15
ENDBRANCH   7  11
BRANCH   1  22
HETATM   22  C   UNL     1      28.701  43.877  54.484  1.00  0.00    -0.035 A 
HETATM   23  C   UNL     1      29.937  43.541  55.053  1.00  0.00     0.012 A 
HETATM   24  C   UNL     1      30.511  44.355  56.034  1.00  0.00     0.037 A 
HETATM   25  C   UNL     1      29.873  45.522  56.453  1.00  0.00     0.068 A 
HETATM   26  C   UNL     1      28.628  45.848  55.920  1.00  0.00     0.037 A 
HETATM   27  C   UNL     1      28.045  45.031  54.944  1.00  0.00     0.012 A 
BRANCH  25  28
HETATM   28  O   UNL     1      30.555  46.248  57.390  1.00  0.00    -0.356 OA
HETATM   29  C   UNL     1      30.934  45.549  58.571  1.00  0.00     0.210 C 
ENDBRANCH  25  28
ENDBRANCH   1  22
BRANCH   8  30
HETATM   30  C   UNL     1      28.255  40.376  51.626  1.00  0.00     0.409 C 
HETATM   31  F   UNL     1      28.848  39.896  52.741  1.00  0.00    -0.169 F 
HETATM   32  F   UNL     1      26.920  40.313  51.807  1.00  0.00    -0.169 F 
HETATM   33  F   UNL     1      28.548  39.499  50.629  1.00  0.00    -0.169 F 
ENDBRANCH   8  30
TORSDOF 6
ENDMDL
MODEL 7
REMARK VINA RESULT:      -9.3      3.487      6.355
REMARK  6 active torsions:
REMARK  status: ('A' for Active; 'I' for Inactive)
REMARK    1  A    between atoms: O_2  and  C_3 
REMARK    2  A    between atoms: C_6  and  C_7 
REMARK    3  A    between atoms: C_13  and  C_14 
REMARK       I    between atoms: C_14  and  N_15 
REMARK    4  A    between atoms: N_15  and  C_16 
REMARK    5  A    between atoms: C_16  and  C_17 
REMARK    6  A    between atoms: C_24  and  C_25 
ROOT
HETATM    1  C   UNL     1      27.687  43.976  53.431  1.00  0.00     0.118 C 
HETATM    2  N   UNL     1      26.981  45.053  52.725  1.00  0.00    -0.365 N 
HETATM    3  C   UNL     1      26.665  44.909  51.405  1.00  0.00     0.138 A 
HETATM    4  N   UNL     1      27.158  43.850  50.677  1.00  0.00    -0.240 N 
HETATM    5  N   UNL     1      26.810  43.858  49.385  1.00  0.00    -0.181 NA
HETATM    6  C   UNL     1      26.009  44.921  49.295  1.00  0.00     0.160 A 
HETATM    7  C   UNL     1      25.889  45.636  50.516  1.00  0.00     0.096 A 
HETATM    8  C   UNL     1      27.995  42.794  51.212  1.00  0.00     0.221 C 
HETATM    9  C   UNL     1      28.689  43.287  52.487  1.00  0.00     0.066 C 
HETATM   10  H   UNL     1      26.320  45.537  53.337  1.00  0.00     0.161 HD
ENDROOT
BRANCH   7  11
HETATM   11  C   UNL     1      25.116  46.851  50.690  1.00  0.00     0.257 C 
HETATM   12  N   UNL     1      24.481  47.321  49.564  1.00  0.00    -0.352 N 
HETATM   13  H   UNL     1      24.401  46.686  48.782  1.00  0.00     0.163 HD
HETATM   14  O   UNL     1      25.010  47.393  51.785  1.00  0.00    -0.267 OA
BRANCH  12  15
HETATM   15  C   UNL     1      23.542  48.411  49.666  1.00  0.00     0.161 C 
BRANCH  15  16
HETATM   16  C   UNL     1      22.307  48.151  48.849  1.00  0.00    -0.041 A 
HETATM   17  C   UNL     1      22.283  47.125  47.894  1.00  0.00     0.009 A 
HETATM   18  C   UNL     1      21.130  46.885  47.146  1.00  0.00     0.001 A 
HETATM   19  C   UNL     1      19.994  47.668  47.340  1.00  0.00     0.000 A 
HETATM   20  C   UNL     1      20.011  48.699  48.277  1.00  0.00     0.001 A 
HETATM   21  C   UNL     1      21.164  48.943  49.025  1.00  0.00     0.009 A 
ENDBRANCH  15  16
ENDBRANCH  12  15
ENDBRANCH   7  11
BRANCH   1  22
HETATM   22  C   UNL     1      28.410  44.525  54.648  1.00  0.00    -0.035 A 
HETATM   23  C   UNL     1      29.660  44.005  55.012  1.00  0.00     0.012 A 
HETATM   24  C   UNL     1      30.381  44.565  56.069  1.00  0.00     0.037 A 
HETATM   25  C   UNL     1      29.878  45.660  56.772  1.00  0.00     0.068 A 
HETATM   26  C   UNL     1      28.622  46.163  56.443  1.00  0.00     0.037 A 
HETATM   27  C   UNL     1      27.892  45.599  55.390  1.00  0.00     0.012 A 
BRANCH  25  28
HETATM   28  O   UNL     1      30.697  46.137  57.758  1.00  0.00    -0.356 OA
HETATM   29  C   UNL     1      31.318  45.159  58.585  1.00  0.00     0.210 C 
ENDBRANCH  25  28
ENDBRANCH   1  22
BRANCH   8  30
HETATM   30  C   UNL     1      27.170  41.548  51.450  1.00  0.00     0.409 C 
HETATM   31  F   UNL     1      25.845  41.799  51.529  1.00  0.00    -0.169 F 
HETATM   32  F   UNL     1      27.357  40.601  50.508  1.00  0.00    -0.169 F 
HETATM   33  F   UNL     1      27.524  40.984  52.635  1.00  0.00    -0.169 F 
ENDBRANCH   8  30
TORSDOF 6
ENDMDL
MODEL 8
REMARK VINA RESULT:      -9.2      3.101      7.425
REMARK  6 active torsions:
REMARK  status: ('A' for Active; 'I' for Inactive)
REMARK    1  A    between atoms: O_2  and  C_3 
REMARK    2  A    between atoms: C_6  and  C_7 
REMARK    3  A    between atoms: C_13  and  C_14 
REMARK       I    between atoms: C_14  and  N_15 
REMARK    4  A    between atoms: N_15  and  C_16 
REMARK    5  A    between atoms: C_16  and  C_17 
REMARK    6  A    between atoms: C_24  and  C_25 
ROOT
HETATM    1  C   UNL     1      27.266  44.662  52.015  1.00  0.00     0.118 C 
HETATM    2  N   UNL     1      26.937  43.553  51.110  1.00  0.00    -0.365 N 
HETATM    3  C   UNL     1      25.774  43.580  50.397  1.00  0.00     0.138 A 
HETATM    4  N   UNL     1      24.817  44.537  50.649  1.00  0.00    -0.240 N 
HETATM    5  N   UNL     1      23.706  44.416  49.911  1.00  0.00    -0.181 NA
HETATM    6  C   UNL     1      23.987  43.387  49.111  1.00  0.00     0.160 A 
HETATM    7  C   UNL     1      25.255  42.804  49.372  1.00  0.00     0.096 A 
HETATM    8  C   UNL     1      24.947  45.602  51.624  1.00  0.00     0.221 C 
HETATM    9  C   UNL     1      25.988  45.207  52.678  1.00  0.00     0.066 C 
HETATM   10  H   UNL     1      27.772  43.163  50.669  1.00  0.00     0.161 HD
ENDROOT
BRANCH   7  11
HETATM   11  C   UNL     1      25.792  41.649  48.679  1.00  0.00     0.257 C 
HETATM   12  N   UNL     1      27.121  41.723  48.334  1.00  0.00    -0.352 N 
HETATM   13  H   UNL     1      27.672  42.444  48.780  1.00  0.00     0.163 HD
HETATM   14  O   UNL     1      25.104  40.657  48.456  1.00  0.00    -0.267 OA
BRANCH  12  15
HETATM   15  C   UNL     1      27.798  40.562  47.810  1.00  0.00     0.161 C 
BRANCH  15  16
HETATM   16  C   UNL     1      28.479  39.784  48.902  1.00  0.00    -0.041 A 
HETATM   17  C   UNL     1      29.204  38.621  48.607  1.00  0.00     0.009 A 
HETATM   18  C   UNL     1      29.841  37.910  49.626  1.00  0.00     0.001 A 
HETATM   19  C   UNL     1      29.756  38.349  50.945  1.00  0.00     0.000 A 
HETATM   20  C   UNL     1      29.027  39.497  51.251  1.00  0.00     0.001 A 
HETATM   21  C   UNL     1      28.387  40.209  50.235  1.00  0.00     0.009 A 
ENDBRANCH  15  16
ENDBRANCH  12  15
ENDBRANCH   7  11
BRANCH   1  22
HETATM   22  C   UNL     1      28.249  44.205  53.078  1.00  0.00    -0.035 A 
HETATM   23  C   UNL     1      29.163  43.182  52.791  1.00  0.00     0.012 A 
HETATM   24  C   UNL     1      30.138  42.818  53.724  1.00  0.00     0.037 A 
HETATM   25  C   UNL     1      30.228  43.475  54.951  1.00  0.00     0.068 A 
HETATM   26  C   UNL     1      29.304  44.469  55.261  1.00  0.00     0.037 A 
HETATM   27  C   UNL     1      28.321  44.831  54.333  1.00  0.00     0.012 A 
BRANCH  25  28
HETATM   28  O   UNL     1      31.247  43.050  55.758  1.00  0.00    -0.356 OA
HETATM   29  C   UNL     1      31.338  43.675  57.034  1.00  0.00     0.210 C 
ENDBRANCH  25  28
ENDBRANCH   1  22
BRANCH   8  30
HETATM   30  C   UNL     1      25.293  46.902  50.930  1.00  0.00     0.409 C 
HETATM   31  F   UNL     1      25.981  46.721  49.782  1.00  0.00    -0.169 F 
HETATM   32  F   UNL     1      24.211  47.657  50.650  1.00  0.00    -0.169 F 
HETATM   33  F   UNL     1      26.086  47.654  51.738  1.00  0.00    -0.169 F 
ENDBRANCH   8  30
TORSDOF 6
ENDMDL
MODEL 9
REMARK VINA RESULT:      -9.0      3.438      7.662
REMARK  6 active torsions:
REMARK  status: ('A' for Active; 'I' for Inactive)
REMARK    1  A    between atoms: O_2  and  C_3 
REMARK    2  A    between atoms: C_6  and  C_7 
REMARK    3  A    between atoms: C_13  and  C_14 
REMARK       I    between atoms: C_14  and  N_15 
REMARK    4  A    between atoms: N_15  and  C_16 
REMARK    5  A    between atoms: C_16  and  C_17 
REMARK    6  A    between atoms: C_24  and  C_25 
ROOT
HETATM    1  C   UNL     1      26.340  43.988  49.681  1.00  0.00     0.118 C 
HETATM    2  N   UNL     1      27.322  43.880  50.768  1.00  0.00    -0.365 N 
HETATM    3  C   UNL     1      27.600  42.662  51.316  1.00  0.00     0.138 A 
HETATM    4  N   UNL     1      26.842  41.559  50.995  1.00  0.00    -0.240 N 
HETATM    5  N   UNL     1      27.192  40.440  51.642  1.00  0.00    -0.181 NA
HETATM    6  C   UNL     1      28.254  40.822  52.352  1.00  0.00     0.160 A 
HETATM    7  C   UNL     1      28.554  42.203  52.211  1.00  0.00     0.096 A 
HETATM    8  C   UNL     1      25.742  41.555  50.051  1.00  0.00     0.221 C 
HETATM    9  C   UNL     1      25.197  42.979  49.893  1.00  0.00     0.066 C 
HETATM   10  H   UNL     1      28.085  44.552  50.658  1.00  0.00     0.161 HD
ENDROOT
BRANCH   7  11
HETATM   11  C   UNL     1      29.629  42.890  52.901  1.00  0.00     0.257 C 
HETATM   12  N   UNL     1      29.652  42.741  54.268  1.00  0.00    -0.352 N 
HETATM   13  H   UNL     1      29.087  42.001  54.660  1.00  0.00     0.163 HD
HETATM   14  O   UNL     1      30.481  43.526  52.290  1.00  0.00    -0.267 OA
BRANCH  12  15
HETATM   15  C   UNL     1      30.778  43.226  55.029  1.00  0.00     0.161 C 
BRANCH  15  16
HETATM   16  C   UNL     1      30.351  44.232  56.061  1.00  0.00    -0.041 A 
HETATM   17  C   UNL     1      30.952  44.258  57.328  1.00  0.00     0.009 A 
HETATM   18  C   UNL     1      30.555  45.201  58.278  1.00  0.00     0.001 A 
HETATM   19  C   UNL     1      29.554  46.121  57.974  1.00  0.00     0.000 A 
HETATM   20  C   UNL     1      28.941  46.096  56.723  1.00  0.00     0.001 A 
HETATM   21  C   UNL     1      29.333  45.153  55.773  1.00  0.00     0.009 A 
ENDBRANCH  15  16
ENDBRANCH  12  15
ENDBRANCH   7  11
BRANCH   1  22
HETATM   22  C   UNL     1      25.783  45.398  49.607  1.00  0.00    -0.035 A 
HETATM   23  C   UNL     1      24.406  45.598  49.439  1.00  0.00     0.012 A 
HETATM   24  C   UNL     1      23.867  46.887  49.468  1.00  0.00     0.037 A 
HETATM   25  C   UNL     1      24.687  47.996  49.679  1.00  0.00     0.068 A 
HETATM   26  C   UNL     1      26.061  47.813  49.812  1.00  0.00     0.037 A 
HETATM   27  C   UNL     1      26.606  46.524  49.775  1.00  0.00     0.012 A 
BRANCH  25  28
HETATM   28  O   UNL     1      24.032  49.196  49.721  1.00  0.00    -0.356 OA
HETATM   29  C   UNL     1      22.733  49.223  49.140  1.00  0.00     0.210 C 
ENDBRANCH  25  28
ENDBRANCH   1  22
BRANCH   8  30
HETATM   30  C   UNL     1      26.191  40.960  48.733  1.00  0.00     0.409 C 
HETATM   31  F   UNL     1      25.519  41.459  47.672  1.00  0.00    -0.169 F 
HETATM   32  F   UNL     1      27.509  41.121  48.501  1.00  0.00    -0.169 F 
HETATM   33  F   UNL     1      25.963  39.620  48.735  1.00  0.00    -0.169 F 
ENDBRANCH   8  30
TORSDOF 6
ENDMDL
MODEL 10
REMARK VINA RESULT:      -8.8      1.928      2.717
REMARK  6 active torsions:
REMARK  status: ('A' for Active; 'I' for Inactive)
REMARK    1  A    between atoms: O_2  and  C_3 
REMARK    2  A    between atoms: C_6  and  C_7 
REMARK    3  A    between atoms: C_13  and  C_14 
REMARK       I    between atoms: C_14  and  N_15 
REMARK    4  A    between atoms: N_15  and  C_16 
REMARK    5  A    between atoms: C_16  and  C_17 
REMARK    6  A    between atoms: C_24  and  C_25 
ROOT
HETATM    1  C   UNL     1      28.164  43.027  52.491  1.00  0.00     0.118 C 
HETATM    2  N   UNL     1      27.430  43.989  51.658  1.00  0.00    -0.365 N 
HETATM    3  C   UNL     1      26.801  45.052  52.238  1.00  0.00     0.138 A 
HETATM    4  N   UNL     1      26.685  45.137  53.607  1.00  0.00    -0.240 N 
HETATM    5  N   UNL     1      26.002  46.204  54.038  1.00  0.00    -0.181 NA
HETATM    6  C   UNL     1      25.728  46.862  52.911  1.00  0.00     0.160 A 
HETATM    7  C   UNL     1      26.181  46.190  51.745  1.00  0.00     0.096 A 
HETATM    8  C   UNL     1      27.230  44.177  54.546  1.00  0.00     0.221 C 
HETATM    9  C   UNL     1      27.446  42.834  53.839  1.00  0.00     0.066 C 
HETATM   10  H   UNL     1      27.880  44.123  50.749  1.00  0.00     0.161 HD
ENDROOT
BRANCH   7  11
HETATM   11  C   UNL     1      25.980  46.660  50.389  1.00  0.00     0.257 C 
HETATM   12  N   UNL     1      25.477  47.935  50.267  1.00  0.00    -0.352 N 
HETATM   13  H   UNL     1      25.508  48.521  51.089  1.00  0.00     0.163 HD
HETATM   14  O   UNL     1      26.280  45.971  49.419  1.00  0.00    -0.267 OA
BRANCH  12  15
HETATM   15  C   UNL     1      25.414  48.566  48.971  1.00  0.00     0.161 C 
BRANCH  15  16
HETATM   16  C   UNL     1      24.047  49.131  48.702  1.00  0.00    -0.041 A 
HETATM   17  C   UNL     1      23.897  50.398  48.120  1.00  0.00     0.009 A 
HETATM   18  C   UNL     1      22.624  50.911  47.866  1.00  0.00     0.001 A 
HETATM   19  C   UNL     1      21.492  50.169  48.194  1.00  0.00     0.000 A 
HETATM   20  C   UNL     1      21.629  48.915  48.785  1.00  0.00     0.001 A 
HETATM   21  C   UNL     1      22.900  48.400  49.043  1.00  0.00     0.009 A 
ENDBRANCH  15  16
ENDBRANCH  12  15
ENDBRANCH   7  11
BRANCH   1  22
HETATM   22  C   UNL     1      28.295  41.696  51.774  1.00  0.00    -0.035 A 
HETATM   23  C   UNL     1      27.810  41.555  50.467  1.00  0.00     0.012 A 
HETATM   24  C   UNL     1      28.010  40.367  49.760  1.00  0.00     0.037 A 
HETATM   25  C   UNL     1      28.709  39.305  50.335  1.00  0.00     0.068 A 
HETATM   26  C   UNL     1      29.165  39.421  51.646  1.00  0.00     0.037 A 
HETATM   27  C   UNL     1      28.958  40.606  52.361  1.00  0.00     0.012 A 
BRANCH  25  28
HETATM   28  O   UNL     1      28.869  38.215  49.527  1.00  0.00    -0.356 OA
HETATM   29  C   UNL     1      27.714  37.405  49.330  1.00  0.00     0.210 C 
ENDBRANCH  25  28
ENDBRANCH   1  22
BRANCH   8  30
HETATM   30  C   UNL     1      28.504  44.716  55.160  1.00  0.00     0.409 C 
HETATM   31  F   UNL     1      29.405  43.750  55.443  1.00  0.00    -0.169 F 
HETATM   32  F   UNL     1      29.115  45.638  54.388  1.00  0.00    -0.169 F 
HETATM   33  F   UNL     1      28.219  45.331  56.338  1.00  0.00    -0.169 F 
ENDBRANCH   8  30
TORSDOF 6
ENDMDL
