MODEL 1
REMARK VINA RESULT:      -9.1      0.000      0.000
REMARK  6 active torsions:
REMARK  status: ('A' for Active; 'I' for Inactive)
REMARK    1  A    between atoms: C_2  and  C_3 
REMARK    2  A    between atoms: C_6  and  C_7 
REMARK    3  A    between atoms: C_11  and  C_12 
REMARK       I    between atoms: C_12  and  N_13 
REMARK    4  A    between atoms: N_13  and  N_14 
REMARK    5  A    between atoms: C_15  and  C_16 
REMARK    6  A    between atoms: C_17  and  O_18 
ROOT
HETATM    1  C   UNL     1      24.007  48.127  49.796  1.00  0.00     0.289 C 
HETATM    2  N   UNL     1      22.632  47.991  49.675  1.00  0.00    -0.241 N 
HETATM    3  O   UNL     1      24.639  49.087  49.361  1.00  0.00    -0.264 OA
HETATM    4  H   UNL     1      22.171  47.170  50.037  1.00  0.00     0.192 HD
ENDROOT
BRANCH   1   5
HETATM    5  C   UNL     1      24.665  47.032  50.463  1.00  0.00     0.121 A 
HETATM    6  N   UNL     1      24.112  45.784  50.497  1.00  0.00    -0.272 N 
HETATM    7  N   UNL     1      24.838  44.878  51.167  1.00  0.00    -0.174 NA
HETATM    8  H   UNL     1      23.230  45.498  50.080  1.00  0.00     0.189 HD
HETATM    9  C   UNL     1      25.932  45.544  51.566  1.00  0.00     0.089 A 
HETATM   10  C   UNL     1      25.855  46.905  51.153  1.00  0.00     0.071 A 
BRANCH   9  11
HETATM   11  C   UNL     1      27.006  44.890  52.321  1.00  0.00    -0.006 A 
HETATM   12  C   UNL     1      27.842  43.940  51.719  1.00  0.00     0.014 A 
HETATM   13  C   UNL     1      28.866  43.323  52.446  1.00  0.00     0.008 A 
HETATM   14  C   UNL     1      29.074  43.641  53.792  1.00  0.00    -0.059 A 
HETATM   15  C   UNL     1      28.245  44.591  54.398  1.00  0.00     0.008 A 
HETATM   16  C   UNL     1      27.219  45.205  53.671  1.00  0.00     0.014 A 
BRANCH  14  17
HETATM   17  C   UNL     1      30.189  42.988  54.569  1.00  0.00     0.034 C 
HETATM   18  C   UNL     1      30.718  43.894  55.669  1.00  0.00     0.010 C 
ENDBRANCH  14  17
ENDBRANCH   9  11
ENDBRANCH   1   5
BRANCH   2  19
HETATM   19  N   UNL     1      21.898  48.995  49.121  1.00  0.00    -0.176 NA
HETATM   20  C   UNL     1      20.664  48.775  48.767  1.00  0.00     0.064 C 
HETATM   21  C   UNL     1      19.992  47.419  48.864  1.00  0.00     0.073 C 
BRANCH  20  22
HETATM   22  C   UNL     1      19.878  49.937  48.229  1.00  0.00     0.023 A 
HETATM   23  C   UNL     1      19.789  51.138  48.953  1.00  0.00     0.077 A 
HETATM   24  C   UNL     1      19.072  52.223  48.451  1.00  0.00     0.037 A 
HETATM   25  C   UNL     1      18.418  52.121  47.226  1.00  0.00     0.003 A 
HETATM   26  C   UNL     1      18.477  50.930  46.505  1.00  0.00     0.001 A 
HETATM   27  C   UNL     1      19.198  49.841  47.005  1.00  0.00     0.016 A 
BRANCH  23  28
HETATM   28  O   UNL     1      20.383  51.336  50.172  1.00  0.00    -0.360 OA
HETATM   29  H   UNL     1      20.011  50.682  50.808  1.00  0.00     0.217 HD
ENDBRANCH  23  28
ENDBRANCH  20  22
ENDBRANCH   2  19
TORSDOF 6
ENDMDL
MODEL 2
REMARK VINA RESULT:      -9.1      2.357     10.363
REMARK  6 active torsions:
REMARK  status: ('A' for Active; 'I' for Inactive)
REMARK    1  A    between atoms: C_2  and  C_3 
REMARK    2  A    between atoms: C_6  and  C_7 
REMARK    3  A    between atoms: C_11  and  C_12 
REMARK       I    between atoms: C_12  and  N_13 
REMARK    4  A    between atoms: N_13  and  N_14 
REMARK    5  A    between atoms: C_15  and  C_16 
REMARK    6  A    between atoms: C_17  and  O_18 
ROOT
HETATM    1  C   UNL     1      26.032  47.242  49.908  1.00  0.00     0.289 C 
HETATM    2  N   UNL     1      25.732  46.649  51.125  1.00  0.00    -0.241 N 
HETATM    3  O   UNL     1      27.025  46.965  49.241  1.00  0.00    -0.264 OA
HETATM    4  H   UNL     1      24.910  46.932  51.637  1.00  0.00     0.192 HD
ENDROOT
BRANCH   1   5
HETATM    5  C   UNL     1      25.090  48.244  49.477  1.00  0.00     0.121 A 
HETATM    6  N   UNL     1      25.485  49.318  48.731  1.00  0.00    -0.272 N 
HETATM    7  N   UNL     1      24.495  50.167  48.421  1.00  0.00    -0.174 NA
HETATM    8  H   UNL     1      26.428  49.522  48.411  1.00  0.00     0.189 HD
HETATM    9  C   UNL     1      23.393  49.618  48.954  1.00  0.00     0.089 A 
HETATM   10  C   UNL     1      23.729  48.413  49.637  1.00  0.00     0.071 A 
BRANCH   9  11
HETATM   11  C   UNL     1      22.072  50.237  48.813  1.00  0.00    -0.006 A 
HETATM   12  C   UNL     1      21.395  50.232  47.585  1.00  0.00     0.014 A 
HETATM   13  C   UNL     1      20.133  50.823  47.460  1.00  0.00     0.008 A 
HETATM   14  C   UNL     1      19.521  51.434  48.560  1.00  0.00    -0.059 A 
HETATM   15  C   UNL     1      20.190  51.438  49.789  1.00  0.00     0.008 A 
HETATM   16  C   UNL     1      21.453  50.851  49.912  1.00  0.00     0.014 A 
BRANCH  14  17
HETATM   17  C   UNL     1      18.154  52.054  48.427  1.00  0.00     0.034 C 
HETATM   18  C   UNL     1      17.573  52.439  49.779  1.00  0.00     0.010 C 
ENDBRANCH  14  17
ENDBRANCH   9  11
ENDBRANCH   1   5
BRANCH   2  19
HETATM   19  N   UNL     1      26.515  45.642  51.600  1.00  0.00    -0.176 NA
HETATM   20  C   UNL     1      26.733  45.540  52.880  1.00  0.00     0.064 C 
HETATM   21  C   UNL     1      26.221  46.537  53.901  1.00  0.00     0.073 C 
BRANCH  20  22
HETATM   22  C   UNL     1      27.545  44.368  53.355  1.00  0.00     0.023 A 
HETATM   23  C   UNL     1      27.191  43.058  52.990  1.00  0.00     0.077 A 
HETATM   24  C   UNL     1      27.949  41.968  53.419  1.00  0.00     0.037 A 
HETATM   25  C   UNL     1      29.062  42.169  54.230  1.00  0.00     0.003 A 
HETATM   26  C   UNL     1      29.415  43.459  54.619  1.00  0.00     0.001 A 
HETATM   27  C   UNL     1      28.657  44.554  54.190  1.00  0.00     0.016 A 
BRANCH  23  28
HETATM   28  O   UNL     1      26.108  42.753  52.209  1.00  0.00    -0.360 OA
HETATM   29  H   UNL     1      25.943  43.508  51.598  1.00  0.00     0.217 HD
ENDBRANCH  23  28
ENDBRANCH  20  22
ENDBRANCH   2  19
TORSDOF 6
ENDMDL
MODEL 3
REMARK VINA RESULT:      -8.6      3.183     10.670
REMARK  6 active torsions:
REMARK  status: ('A' for Active; 'I' for Inactive)
REMARK    1  A    between atoms: C_2  and  C_3 
REMARK    2  A    between atoms: C_6  and  C_7 
REMARK    3  A    between atoms: C_11  and  C_12 
REMARK       I    between atoms: C_12  and  N_13 
REMARK    4  A    between atoms: N_13  and  N_14 
REMARK    5  A    between atoms: C_15  and  C_16 
REMARK    6  A    between atoms: C_17  and  O_18 
ROOT
HETATM    1  C   UNL     1      27.093  44.489  51.991  1.00  0.00     0.289 C 
HETATM    2  N   UNL     1      27.323  45.279  53.107  1.00  0.00    -0.241 N 
HETATM    3  O   UNL     1      27.707  43.453  51.749  1.00  0.00    -0.264 OA
HETATM    4  H   UNL     1      26.798  46.130  53.242  1.00  0.00     0.192 HD
ENDROOT
BRANCH   1   5
HETATM    5  C   UNL     1      26.075  44.986  51.100  1.00  0.00     0.121 A 
HETATM    6  N   UNL     1      25.500  44.183  50.157  1.00  0.00    -0.272 N 
HETATM    7  N   UNL     1      24.581  44.795  49.397  1.00  0.00    -0.174 NA
HETATM    8  H   UNL     1      25.707  43.203  49.985  1.00  0.00     0.189 HD
HETATM    9  C   UNL     1      24.518  46.046  49.878  1.00  0.00     0.089 A 
HETATM   10  C   UNL     1      25.452  46.209  50.942  1.00  0.00     0.071 A 
BRANCH   9  11
HETATM   11  C   UNL     1      23.597  47.045  49.326  1.00  0.00    -0.006 A 
HETATM   12  C   UNL     1      22.541  46.670  48.484  1.00  0.00     0.014 A 
HETATM   13  C   UNL     1      21.664  47.629  47.964  1.00  0.00     0.008 A 
HETATM   14  C   UNL     1      21.828  48.984  48.271  1.00  0.00    -0.059 A 
HETATM   15  C   UNL     1      22.879  49.363  49.113  1.00  0.00     0.008 A 
HETATM   16  C   UNL     1      23.756  48.404  49.630  1.00  0.00     0.014 A 
BRANCH  14  17
HETATM   17  C   UNL     1      20.872  50.013  47.724  1.00  0.00     0.034 C 
HETATM   18  C   UNL     1      20.952  51.324  48.490  1.00  0.00     0.010 C 
ENDBRANCH  14  17
ENDBRANCH   9  11
ENDBRANCH   1   5
BRANCH   2  19
HETATM   19  N   UNL     1      28.215  44.873  54.052  1.00  0.00    -0.176 NA
HETATM   20  C   UNL     1      28.681  45.733  54.913  1.00  0.00     0.064 C 
HETATM   21  C   UNL     1      28.345  47.211  54.889  1.00  0.00     0.073 C 
BRANCH  20  22
HETATM   22  C   UNL     1      29.606  45.216  55.978  1.00  0.00     0.023 A 
HETATM   23  C   UNL     1      30.450  44.121  55.724  1.00  0.00     0.077 A 
HETATM   24  C   UNL     1      31.319  43.648  56.706  1.00  0.00     0.037 A 
HETATM   25  C   UNL     1      31.349  44.249  57.962  1.00  0.00     0.003 A 
HETATM   26  C   UNL     1      30.504  45.321  58.238  1.00  0.00     0.001 A 
HETATM   27  C   UNL     1      29.631  45.800  57.254  1.00  0.00     0.016 A 
BRANCH  23  28
HETATM   28  O   UNL     1      30.487  43.453  54.530  1.00  0.00    -0.360 OA
HETATM   29  H   UNL     1      29.578  43.442  54.151  1.00  0.00     0.217 HD
ENDBRANCH  23  28
ENDBRANCH  20  22
ENDBRANCH   2  19
TORSDOF 6
ENDMDL
MODEL 4
REMARK VINA RESULT:      -8.6      2.423      3.727
REMARK  6 active torsions:
REMARK  status: ('A' for Active; 'I' for Inactive)
REMARK    1  A    between atoms: C_2  and  C_3 
REMARK    2  A    between atoms: C_6  and  C_7 
REMARK    3  A    between atoms: C_11  and  C_12 
REMARK       I    between atoms: C_12  and  N_13 
REMARK    4  A    between atoms: N_13  and  N_14 
REMARK    5  A    between atoms: C_15  and  C_16 
REMARK    6  A    between atoms: C_17  and  O_18 
ROOT
HETATM    1  C   UNL     1      24.565  44.719  50.978  1.00  0.00     0.289 C 
HETATM    2  N   UNL     1      24.505  45.842  50.166  1.00  0.00    -0.241 N 
HETATM    3  O   UNL     1      23.602  43.992  51.210  1.00  0.00    -0.264 OA
HETATM    4  H   UNL     1      25.327  46.411  50.028  1.00  0.00     0.192 HD
ENDROOT
BRANCH   1   5
HETATM    5  C   UNL     1      25.858  44.466  51.564  1.00  0.00     0.121 A 
HETATM    6  N   UNL     1      26.920  44.074  50.800  1.00  0.00    -0.272 N 
HETATM    7  N   UNL     1      28.049  43.865  51.493  1.00  0.00    -0.174 NA
HETATM    8  H   UNL     1      26.925  43.925  49.795  1.00  0.00     0.189 HD
HETATM    9  C   UNL     1      27.731  44.164  52.762  1.00  0.00     0.089 A 
HETATM   10  C   UNL     1      26.358  44.535  52.849  1.00  0.00     0.071 A 
BRANCH   9  11
HETATM   11  C   UNL     1      28.716  44.087  53.846  1.00  0.00    -0.006 A 
HETATM   12  C   UNL     1      28.751  45.051  54.864  1.00  0.00     0.014 A 
HETATM   13  C   UNL     1      29.692  44.969  55.896  1.00  0.00     0.008 A 
HETATM   14  C   UNL     1      30.620  43.923  55.932  1.00  0.00    -0.059 A 
HETATM   15  C   UNL     1      30.587  42.957  54.920  1.00  0.00     0.008 A 
HETATM   16  C   UNL     1      29.649  43.042  53.887  1.00  0.00     0.014 A 
BRANCH  14  17
HETATM   17  C   UNL     1      31.621  43.827  57.054  1.00  0.00     0.034 C 
HETATM   18  C   UNL     1      31.300  44.793  58.184  1.00  0.00     0.010 C 
ENDBRANCH  14  17
ENDBRANCH   9  11
ENDBRANCH   1   5
BRANCH   2  19
HETATM   19  N   UNL     1      23.352  46.140  49.507  1.00  0.00    -0.176 NA
HETATM   20  C   UNL     1      23.178  47.336  49.018  1.00  0.00     0.064 C 
HETATM   21  C   UNL     1      24.166  48.470  49.202  1.00  0.00     0.073 C 
BRANCH  20  22
HETATM   22  C   UNL     1      21.919  47.589  48.238  1.00  0.00     0.023 A 
HETATM   23  C   UNL     1      21.618  46.825  47.098  1.00  0.00     0.077 A 
HETATM   24  C   UNL     1      20.444  47.049  46.378  1.00  0.00     0.037 A 
HETATM   25  C   UNL     1      19.561  48.049  46.776  1.00  0.00     0.003 A 
HETATM   26  C   UNL     1      19.855  48.831  47.891  1.00  0.00     0.001 A 
HETATM   27  C   UNL     1      21.031  48.608  48.616  1.00  0.00     0.016 A 
BRANCH  23  28
HETATM   28  O   UNL     1      22.425  45.829  46.616  1.00  0.00    -0.360 OA
HETATM   29  H   UNL     1      23.343  45.993  46.930  1.00  0.00     0.217 HD
ENDBRANCH  23  28
ENDBRANCH  20  22
ENDBRANCH   2  19
TORSDOF 6
ENDMDL
MODEL 5
REMARK VINA RESULT:      -8.4      1.641      2.010
REMARK  6 active torsions:
REMARK  status: ('A' for Active; 'I' for Inactive)
REMARK    1  A    between atoms: C_2  and  C_3 
REMARK    2  A    between atoms: C_6  and  C_7 
REMARK    3  A    between atoms: C_11  and  C_12 
REMARK       I    between atoms: C_12  and  N_13 
REMARK    4  A    between atoms: N_13  and  N_14 
REMARK    5  A    between atoms: C_15  and  C_16 
REMARK    6  A    between atoms: C_17  and  O_18 
ROOT
HETATM    1  C   UNL     1      22.848  46.630  48.762  1.00  0.00     0.289 C 
HETATM    2  N   UNL     1      22.298  47.625  49.556  1.00  0.00    -0.241 N 
HETATM    3  O   UNL     1      22.427  46.338  47.645  1.00  0.00    -0.264 OA
HETATM    4  H   UNL     1      22.676  47.806  50.474  1.00  0.00     0.192 HD
ENDROOT
BRANCH   1   5
HETATM    5  C   UNL     1      23.959  45.930  49.355  1.00  0.00     0.121 A 
HETATM    6  N   UNL     1      24.621  44.944  48.680  1.00  0.00    -0.272 N 
HETATM    7  N   UNL     1      25.622  44.380  49.371  1.00  0.00    -0.174 NA
HETATM    8  H   UNL     1      24.423  44.611  47.740  1.00  0.00     0.189 HD
HETATM    9  C   UNL     1      25.647  45.041  50.538  1.00  0.00     0.089 A 
HETATM   10  C   UNL     1      24.608  46.016  50.571  1.00  0.00     0.071 A 
BRANCH   9  11
HETATM   11  C   UNL     1      26.632  44.737  51.581  1.00  0.00    -0.006 A 
HETATM   12  C   UNL     1      27.694  43.854  51.341  1.00  0.00     0.014 A 
HETATM   13  C   UNL     1      28.631  43.571  52.341  1.00  0.00     0.008 A 
HETATM   14  C   UNL     1      28.524  44.163  53.604  1.00  0.00    -0.059 A 
HETATM   15  C   UNL     1      27.468  45.048  53.848  1.00  0.00     0.008 A 
HETATM   16  C   UNL     1      26.530  45.327  52.849  1.00  0.00     0.014 A 
BRANCH  14  17
HETATM   17  C   UNL     1      29.545  43.871  54.674  1.00  0.00     0.034 C 
HETATM   18  C   UNL     1      29.640  45.000  55.688  1.00  0.00     0.010 C 
ENDBRANCH  14  17
ENDBRANCH   9  11
ENDBRANCH   1   5
BRANCH   2  19
HETATM   19  N   UNL     1      21.287  48.397  49.073  1.00  0.00    -0.176 NA
HETATM   20  C   UNL     1      21.468  49.678  48.916  1.00  0.00     0.064 C 
HETATM   21  C   UNL     1      22.740  50.400  49.316  1.00  0.00     0.073 C 
BRANCH  20  22
HETATM   22  C   UNL     1      20.344  50.470  48.311  1.00  0.00     0.023 A 
HETATM   23  C   UNL     1      19.570  49.932  47.268  1.00  0.00     0.077 A 
HETATM   24  C   UNL     1      18.517  50.659  46.713  1.00  0.00     0.037 A 
HETATM   25  C   UNL     1      18.231  51.939  47.179  1.00  0.00     0.003 A 
HETATM   26  C   UNL     1      19.001  52.496  48.198  1.00  0.00     0.001 A 
HETATM   27  C   UNL     1      20.057  51.768  48.758  1.00  0.00     0.016 A 
BRANCH  23  28
HETATM   28  O   UNL     1      19.779  48.690  46.730  1.00  0.00    -0.360 OA
HETATM   29  H   UNL     1      20.747  48.510  46.731  1.00  0.00     0.217 HD
ENDBRANCH  23  28
ENDBRANCH  20  22
ENDBRANCH   2  19
TORSDOF 6
ENDMDL
MODEL 6
REMARK VINA RESULT:      -8.3      1.667      2.246
REMARK  6 active torsions:
REMARK  status: ('A' for Active; 'I' for Inactive)
REMARK    1  A    between atoms: C_2  and  C_3 
REMARK    2  A    between atoms: C_6  and  C_7 
REMARK    3  A    between atoms: C_11  and  C_12 
REMARK       I    between atoms: C_12  and  N_13 
REMARK    4  A    between atoms: N_13  and  N_14 
REMARK    5  A    between atoms: C_15  and  C_16 
REMARK    6  A    between atoms: C_17  and  O_18 
ROOT
HETATM    1  C   UNL     1      23.152  48.344  48.916  1.00  0.00     0.289 C 
HETATM    2  N   UNL     1      22.000  48.372  49.686  1.00  0.00    -0.241 N 
HETATM    3  O   UNL     1      23.215  48.771  47.765  1.00  0.00    -0.264 OA
HETATM    4  H   UNL     1      22.005  47.990  50.619  1.00  0.00     0.192 HD
ENDROOT
BRANCH   1   5
HETATM    5  C   UNL     1      24.295  47.749  49.562  1.00  0.00     0.121 A 
HETATM    6  N   UNL     1      25.536  48.313  49.473  1.00  0.00    -0.272 N 
HETATM    7  N   UNL     1      26.497  47.633  50.117  1.00  0.00    -0.174 NA
HETATM    8  H   UNL     1      25.784  49.163  48.975  1.00  0.00     0.189 HD
HETATM    9  C   UNL     1      25.861  46.596  50.683  1.00  0.00     0.089 A 
HETATM   10  C   UNL     1      24.477  46.628  50.347  1.00  0.00     0.071 A 
BRANCH   9  11
HETATM   11  C   UNL     1      26.567  45.612  51.511  1.00  0.00    -0.006 A 
HETATM   12  C   UNL     1      26.594  45.725  52.908  1.00  0.00     0.014 A 
HETATM   13  C   UNL     1      27.267  44.780  53.690  1.00  0.00     0.008 A 
HETATM   14  C   UNL     1      27.930  43.704  53.092  1.00  0.00    -0.059 A 
HETATM   15  C   UNL     1      27.903  43.584  51.698  1.00  0.00     0.008 A 
HETATM   16  C   UNL     1      27.233  44.531  50.917  1.00  0.00     0.014 A 
BRANCH  14  17
HETATM   17  C   UNL     1      28.640  42.677  53.937  1.00  0.00     0.034 C 
HETATM   18  C   UNL     1      29.895  43.245  54.582  1.00  0.00     0.010 C 
ENDBRANCH  14  17
ENDBRANCH   9  11
ENDBRANCH   1   5
BRANCH   2  19
HETATM   19  N   UNL     1      20.877  48.971  49.203  1.00  0.00    -0.176 NA
HETATM   20  C   UNL     1      20.560  50.171  49.602  1.00  0.00     0.064 C 
HETATM   21  C   UNL     1      21.339  50.938  50.652  1.00  0.00     0.073 C 
BRANCH  20  22
HETATM   22  C   UNL     1      19.351  50.812  48.982  1.00  0.00     0.023 A 
HETATM   23  C   UNL     1      18.132  50.118  48.908  1.00  0.00     0.077 A 
HETATM   24  C   UNL     1      17.004  50.715  48.346  1.00  0.00     0.037 A 
HETATM   25  C   UNL     1      17.079  52.008  47.835  1.00  0.00     0.003 A 
HETATM   26  C   UNL     1      18.286  52.702  47.880  1.00  0.00     0.001 A 
HETATM   27  C   UNL     1      19.419  52.107  48.445  1.00  0.00     0.016 A 
BRANCH  23  28
HETATM   28  O   UNL     1      17.956  48.840  49.368  1.00  0.00    -0.360 OA
HETATM   29  H   UNL     1      17.963  48.228  48.597  1.00  0.00     0.217 HD
ENDBRANCH  23  28
ENDBRANCH  20  22
ENDBRANCH   2  19
TORSDOF 6
ENDMDL
MODEL 7
REMARK VINA RESULT:      -8.3      1.894     10.479
REMARK  6 active torsions:
REMARK  status: ('A' for Active; 'I' for Inactive)
REMARK    1  A    between atoms: C_2  and  C_3 
REMARK    2  A    between atoms: C_6  and  C_7 
REMARK    3  A    between atoms: C_11  and  C_12 
REMARK       I    between atoms: C_12  and  N_13 
REMARK    4  A    between atoms: N_13  and  N_14 
REMARK    5  A    between atoms: C_15  and  C_16 
REMARK    6  A    between atoms: C_17  and  O_18 
ROOT
HETATM    1  C   UNL     1      25.524  47.102  50.815  1.00  0.00     0.289 C 
HETATM    2  N   UNL     1      25.586  45.935  51.561  1.00  0.00    -0.241 N 
HETATM    3  O   UNL     1      26.402  47.962  50.819  1.00  0.00    -0.264 OA
HETATM    4  H   UNL     1      24.824  45.274  51.530  1.00  0.00     0.192 HD
ENDROOT
BRANCH   1   5
HETATM    5  C   UNL     1      24.324  47.254  50.031  1.00  0.00     0.121 A 
HETATM    6  N   UNL     1      23.620  46.170  49.591  1.00  0.00    -0.272 N 
HETATM    7  N   UNL     1      22.536  46.476  48.863  1.00  0.00    -0.174 NA
HETATM    8  H   UNL     1      23.842  45.192  49.756  1.00  0.00     0.189 HD
HETATM    9  C   UNL     1      22.502  47.817  48.848  1.00  0.00     0.089 A 
HETATM   10  C   UNL     1      23.617  48.344  49.562  1.00  0.00     0.071 A 
BRANCH   9  11
HETATM   11  C   UNL     1      21.437  48.558  48.165  1.00  0.00    -0.006 A 
HETATM   12  C   UNL     1      21.333  49.952  48.280  1.00  0.00     0.014 A 
HETATM   13  C   UNL     1      20.315  50.652  47.623  1.00  0.00     0.008 A 
HETATM   14  C   UNL     1      19.376  49.973  46.839  1.00  0.00    -0.059 A 
HETATM   15  C   UNL     1      19.477  48.582  46.718  1.00  0.00     0.008 A 
HETATM   16  C   UNL     1      20.492  47.883  47.378  1.00  0.00     0.014 A 
BRANCH  14  17
HETATM   17  C   UNL     1      18.291  50.730  46.118  1.00  0.00     0.034 C 
HETATM   18  C   UNL     1      17.930  52.022  46.835  1.00  0.00     0.010 C 
ENDBRANCH  14  17
ENDBRANCH   9  11
ENDBRANCH   1   5
BRANCH   2  19
HETATM   19  N   UNL     1      26.702  45.653  52.288  1.00  0.00    -0.176 NA
HETATM   20  C   UNL     1      26.610  44.905  53.351  1.00  0.00     0.064 C 
HETATM   21  C   UNL     1      25.298  44.372  53.891  1.00  0.00     0.073 C 
BRANCH  20  22
HETATM   22  C   UNL     1      27.883  44.566  54.073  1.00  0.00     0.023 A 
HETATM   23  C   UNL     1      28.475  45.490  54.951  1.00  0.00     0.077 A 
HETATM   24  C   UNL     1      29.650  45.174  55.634  1.00  0.00     0.037 A 
HETATM   25  C   UNL     1      30.260  43.938  55.438  1.00  0.00     0.003 A 
HETATM   26  C   UNL     1      29.698  43.019  54.555  1.00  0.00     0.001 A 
HETATM   27  C   UNL     1      28.519  43.332  53.870  1.00  0.00     0.016 A 
BRANCH  23  28
HETATM   28  O   UNL     1      27.963  46.736  55.202  1.00  0.00    -0.360 OA
HETATM   29  H   UNL     1      27.029  46.755  54.894  1.00  0.00     0.217 HD
ENDBRANCH  23  28
ENDBRANCH  20  22
ENDBRANCH   2  19
TORSDOF 6
ENDMDL
MODEL 8
REMARK VINA RESULT:      -8.1      3.697      4.227
REMARK  6 active torsions:
REMARK  status: ('A' for Active; 'I' for Inactive)
REMARK    1  A    between atoms: C_2  and  C_3 
REMARK    2  A    between atoms: C_6  and  C_7 
REMARK    3  A    between atoms: C_11  and  C_12 
REMARK       I    between atoms: C_12  and  N_13 
REMARK    4  A    between atoms: N_13  and  N_14 
REMARK    5  A    between atoms: C_15  and  C_16 
REMARK    6  A    between atoms: C_17  and  O_18 
ROOT
HETATM    1  C   UNL     1      24.075  44.465  50.750  1.00  0.00     0.289 C 
HETATM    2  N   UNL     1      23.930  45.507  49.846  1.00  0.00    -0.241 N 
HETATM    3  O   UNL     1      23.170  43.693  51.053  1.00  0.00    -0.264 OA
HETATM    4  H   UNL     1      24.706  46.120  49.651  1.00  0.00     0.192 HD
ENDROOT
BRANCH   1   5
HETATM    5  C   UNL     1      25.386  44.359  51.341  1.00  0.00     0.121 A 
HETATM    6  N   UNL     1      26.488  44.081  50.583  1.00  0.00    -0.272 N 
HETATM    7  N   UNL     1      27.630  44.001  51.280  1.00  0.00    -0.174 NA
HETATM    8  H   UNL     1      26.512  43.930  49.578  1.00  0.00     0.189 HD
HETATM    9  C   UNL     1      27.277  44.269  52.546  1.00  0.00     0.089 A 
HETATM   10  C   UNL     1      25.871  44.488  52.627  1.00  0.00     0.071 A 
BRANCH   9  11
HETATM   11  C   UNL     1      28.259  44.306  53.634  1.00  0.00    -0.006 A 
HETATM   12  C   UNL     1      28.269  45.351  54.569  1.00  0.00     0.014 A 
HETATM   13  C   UNL     1      29.208  45.378  55.606  1.00  0.00     0.008 A 
HETATM   14  C   UNL     1      30.161  44.361  55.728  1.00  0.00    -0.059 A 
HETATM   15  C   UNL     1      30.154  43.313  54.800  1.00  0.00     0.008 A 
HETATM   16  C   UNL     1      29.217  43.290  53.763  1.00  0.00     0.014 A 
BRANCH  14  17
HETATM   17  C   UNL     1      31.161  44.382  56.856  1.00  0.00     0.034 C 
HETATM   18  C   UNL     1      31.788  43.015  57.082  1.00  0.00     0.010 C 
ENDBRANCH  14  17
ENDBRANCH   9  11
ENDBRANCH   1   5
BRANCH   2  19
HETATM   19  N   UNL     1      22.755  45.663  49.176  1.00  0.00    -0.176 NA
HETATM   20  C   UNL     1      22.541  44.992  48.080  1.00  0.00     0.064 C 
HETATM   21  C   UNL     1      23.569  44.078  47.441  1.00  0.00     0.073 C 
BRANCH  20  22
HETATM   22  C   UNL     1      21.200  45.147  47.421  1.00  0.00     0.023 A 
HETATM   23  C   UNL     1      20.022  45.159  48.188  1.00  0.00     0.077 A 
HETATM   24  C   UNL     1      18.777  45.317  47.581  1.00  0.00     0.037 A 
HETATM   25  C   UNL     1      18.686  45.449  46.198  1.00  0.00     0.003 A 
HETATM   26  C   UNL     1      19.841  45.418  45.420  1.00  0.00     0.001 A 
HETATM   27  C   UNL     1      21.092  45.262  46.026  1.00  0.00     0.016 A 
BRANCH  23  28
HETATM   28  O   UNL     1      20.002  45.023  49.551  1.00  0.00    -0.360 OA
HETATM   29  H   UNL     1      19.166  45.415  49.890  1.00  0.00     0.217 HD
ENDBRANCH  23  28
ENDBRANCH  20  22
ENDBRANCH   2  19
TORSDOF 6
ENDMDL
MODEL 9
REMARK VINA RESULT:      -7.9      3.328     10.343
REMARK  6 active torsions:
REMARK  status: ('A' for Active; 'I' for Inactive)
REMARK    1  A    between atoms: C_2  and  C_3 
REMARK    2  A    between atoms: C_6  and  C_7 
REMARK    3  A    between atoms: C_11  and  C_12 
REMARK       I    between atoms: C_12  and  N_13 
REMARK    4  A    between atoms: N_13  and  N_14 
REMARK    5  A    between atoms: C_15  and  C_16 
REMARK    6  A    between atoms: C_17  and  O_18 
ROOT
HETATM    1  C   UNL     1      26.396  45.052  50.328  1.00  0.00     0.289 C 
HETATM    2  N   UNL     1      26.269  45.263  51.693  1.00  0.00    -0.241 N 
HETATM    3  O   UNL     1      27.469  44.854  49.765  1.00  0.00    -0.264 OA
HETATM    4  H   UNL     1      25.360  45.438  52.095  1.00  0.00     0.192 HD
ENDROOT
BRANCH   1   5
HETATM    5  C   UNL     1      25.157  45.101  49.592  1.00  0.00     0.121 A 
HETATM    6  N   UNL     1      24.877  44.196  48.609  1.00  0.00    -0.272 N 
HETATM    7  N   UNL     1      23.692  44.383  48.009  1.00  0.00    -0.174 NA
HETATM    8  H   UNL     1      25.469  43.429  48.301  1.00  0.00     0.189 HD
HETATM    9  C   UNL     1      23.150  45.434  48.643  1.00  0.00     0.089 A 
HETATM   10  C   UNL     1      24.047  45.921  49.638  1.00  0.00     0.071 A 
BRANCH   9  11
HETATM   11  C   UNL     1      21.822  45.948  48.296  1.00  0.00    -0.006 A 
HETATM   12  C   UNL     1      20.659  45.245  48.638  1.00  0.00     0.014 A 
HETATM   13  C   UNL     1      19.394  45.744  48.306  1.00  0.00     0.008 A 
HETATM   14  C   UNL     1      19.266  46.957  47.620  1.00  0.00    -0.059 A 
HETATM   15  C   UNL     1      20.424  47.665  47.279  1.00  0.00     0.008 A 
HETATM   16  C   UNL     1      21.687  47.163  47.609  1.00  0.00     0.014 A 
BRANCH  14  17
HETATM   17  C   UNL     1      17.903  47.502  47.278  1.00  0.00     0.034 C 
HETATM   18  C   UNL     1      16.834  46.990  48.230  1.00  0.00     0.010 C 
ENDBRANCH  14  17
ENDBRANCH   9  11
ENDBRANCH   1   5
BRANCH   2  19
HETATM   19  N   UNL     1      27.363  45.173  52.497  1.00  0.00    -0.176 NA
HETATM   20  C   UNL     1      27.271  44.574  53.651  1.00  0.00     0.064 C 
HETATM   21  C   UNL     1      25.974  44.020  54.207  1.00  0.00     0.073 C 
BRANCH  20  22
HETATM   22  C   UNL     1      28.526  44.439  54.465  1.00  0.00     0.023 A 
HETATM   23  C   UNL     1      28.984  45.507  55.256  1.00  0.00     0.077 A 
HETATM   24  C   UNL     1      30.142  45.381  56.024  1.00  0.00     0.037 A 
HETATM   25  C   UNL     1      30.868  44.193  56.002  1.00  0.00     0.003 A 
HETATM   26  C   UNL     1      30.439  43.132  55.207  1.00  0.00     0.001 A 
HETATM   27  C   UNL     1      29.278  43.255  54.437  1.00  0.00     0.016 A 
BRANCH  23  28
HETATM   28  O   UNL     1      28.352  46.719  55.335  1.00  0.00    -0.360 OA
HETATM   29  H   UNL     1      29.035  47.419  55.451  1.00  0.00     0.217 HD
ENDBRANCH  23  28
ENDBRANCH  20  22
ENDBRANCH   2  19
TORSDOF 6
ENDMDL
MODEL 10
REMARK VINA RESULT:      -7.8      8.253     10.839
REMARK  6 active torsions:
REMARK  status: ('A' for Active; 'I' for Inactive)
REMARK    1  A    between atoms: C_2  and  C_3 
REMARK    2  A    between atoms: C_6  and  C_7 
REMARK    3  A    between atoms: C_11  and  C_12 
REMARK       I    between atoms: C_12  and  N_13 
REMARK    4  A    between atoms: N_13  and  N_14 
REMARK    5  A    between atoms: C_15  and  C_16 
REMARK    6  A    between atoms: C_17  and  O_18 
ROOT
HETATM    1  C   UNL     1      27.326  41.865  51.785  1.00  0.00     0.289 C 
HETATM    2  N   UNL     1      28.105  41.531  52.883  1.00  0.00    -0.241 N 
HETATM    3  O   UNL     1      26.684  42.908  51.696  1.00  0.00    -0.264 OA
HETATM    4  H   UNL     1      28.596  40.650  52.906  1.00  0.00     0.192 HD
ENDROOT
BRANCH   1   5
HETATM    5  C   UNL     1      27.304  40.874  50.738  1.00  0.00     0.121 A 
HETATM    6  N   UNL     1      26.448  39.810  50.783  1.00  0.00    -0.272 N 
HETATM    7  N   UNL     1      26.558  38.971  49.743  1.00  0.00    -0.174 NA
HETATM    8  H   UNL     1      25.770  39.606  51.512  1.00  0.00     0.189 HD
HETATM    9  C   UNL     1      27.500  39.519  48.960  1.00  0.00     0.089 A 
HETATM   10  C   UNL     1      28.002  40.711  49.558  1.00  0.00     0.071 A 
BRANCH   9  11
HETATM   11  C   UNL     1      27.902  38.909  47.688  1.00  0.00    -0.006 A 
HETATM   12  C   UNL     1      28.464  37.626  47.644  1.00  0.00     0.014 A 
HETATM   13  C   UNL     1      28.841  37.050  46.426  1.00  0.00     0.008 A 
HETATM   14  C   UNL     1      28.669  37.747  45.225  1.00  0.00    -0.059 A 
HETATM   15  C   UNL     1      28.105  39.027  45.263  1.00  0.00     0.008 A 
HETATM   16  C   UNL     1      27.731  39.603  46.481  1.00  0.00     0.014 A 
BRANCH  14  17
HETATM   17  C   UNL     1      29.060  37.119  43.913  1.00  0.00     0.034 C 
HETATM   18  C   UNL     1      29.782  38.103  43.006  1.00  0.00     0.010 C 
ENDBRANCH  14  17
ENDBRANCH   9  11
ENDBRANCH   1   5
BRANCH   2  19
HETATM   19  N   UNL     1      28.254  42.419  53.903  1.00  0.00    -0.176 NA
HETATM   20  C   UNL     1      29.376  43.069  54.036  1.00  0.00     0.064 C 
HETATM   21  C   UNL     1      30.586  42.843  53.152  1.00  0.00     0.073 C 
BRANCH  20  22
HETATM   22  C   UNL     1      29.461  44.090  55.135  1.00  0.00     0.023 A 
HETATM   23  C   UNL     1      28.478  45.086  55.264  1.00  0.00     0.077 A 
HETATM   24  C   UNL     1      28.546  46.027  56.291  1.00  0.00     0.037 A 
HETATM   25  C   UNL     1      29.605  45.998  57.195  1.00  0.00     0.003 A 
HETATM   26  C   UNL     1      30.600  45.031  57.068  1.00  0.00     0.001 A 
HETATM   27  C   UNL     1      30.533  44.085  56.040  1.00  0.00     0.016 A 
BRANCH  23  28
HETATM   28  O   UNL     1      27.406  45.209  54.421  1.00  0.00    -0.360 OA
HETATM   29  H   UNL     1      27.642  44.802  53.556  1.00  0.00     0.217 HD
ENDBRANCH  23  28
ENDBRANCH  20  22
ENDBRANCH   2  19
TORSDOF 6
ENDMDL
