MODEL 1
REMARK VINA RESULT:      -8.4      0.000      0.000
REMARK  5 active torsions:
REMARK  status: ('A' for Active; 'I' for Inactive)
REMARK    1  A    between atoms: C_2  and  O_3 
REMARK    2  A    between atoms: O_3  and  C_4 
REMARK    3  A    between atoms: C_7  and  C_8 
REMARK       I    between atoms: C_8  and  N_9 
REMARK    4  A    between atoms: N_9  and  N_10 
REMARK    5  A    between atoms: C_11  and  C_12 
ROOT
HETATM    1  C   UNL     1      28.127  40.921  51.532  1.00  0.00     0.271 C 
HETATM    2  N   UNL     1      29.176  41.249  52.382  1.00  0.00    -0.243 N 
HETATM    3  O   UNL     1      26.972  41.326  51.629  1.00  0.00    -0.266 OA
HETATM    4  H   UNL     1      30.127  41.107  52.058  1.00  0.00     0.192 HD
ENDROOT
BRANCH   2   5
HETATM    5  N   UNL     1      29.109  42.076  53.478  1.00  0.00    -0.183 NA
HETATM    6  C   UNL     1      29.225  43.355  53.310  1.00  0.00     0.153 C 
BRANCH   6   7
HETATM    7  C   UNL     1      29.190  44.251  54.455  1.00  0.00     0.018 A 
HETATM    8  C   UNL     1      30.065  44.183  55.591  1.00  0.00     0.004 A 
HETATM    9  C   UNL     1      29.712  45.216  56.457  1.00  0.00     0.043 A 
HETATM   10  C   UNL     1      31.126  43.329  55.967  1.00  0.00     0.014 A 
HETATM   11  C   UNL     1      30.364  45.445  57.675  1.00  0.00     0.030 A 
HETATM   12  N   UNL     1      28.663  45.886  55.876  1.00  0.00    -0.358 N 
HETATM   13  C   UNL     1      31.411  44.586  58.021  1.00  0.00     0.002 A 
HETATM   14  C   UNL     1      31.788  43.541  57.181  1.00  0.00     0.001 A 
HETATM   15  H   UNL     1      28.203  46.685  56.289  1.00  0.00     0.166 HD
HETATM   16  C   UNL     1      28.333  45.323  54.668  1.00  0.00     0.018 A 
HETATM   17  C   UNL     1      27.230  45.877  53.839  1.00  0.00     0.069 C 
ENDBRANCH   6   7
ENDBRANCH   2   5
BRANCH   1  18
HETATM   18  C   UNL     1      28.471  40.013  50.396  1.00  0.00     0.033 A 
HETATM   19  C   UNL     1      29.217  38.841  50.563  1.00  0.00     0.020 A 
HETATM   20  C   UNL     1      29.468  38.012  49.465  1.00  0.00     0.038 A 
HETATM   21  C   UNL     1      28.963  38.323  48.201  1.00  0.00     0.068 A 
HETATM   22  C   UNL     1      28.225  39.493  48.030  1.00  0.00     0.038 A 
HETATM   23  C   UNL     1      27.978  40.331  49.123  1.00  0.00     0.020 A 
BRANCH  21  24
HETATM   24  O   UNL     1      29.259  37.416  47.223  1.00  0.00    -0.352 OA
BRANCH  24  25
HETATM   25  C   UNL     1      28.517  37.524  46.007  1.00  0.00     0.171 C 
HETATM   26  C   UNL     1      28.052  36.133  45.616  1.00  0.00     0.034 C 
ENDBRANCH  24  25
ENDBRANCH  21  24
ENDBRANCH   1  18
TORSDOF 5
ENDMDL
MODEL 2
REMARK VINA RESULT:      -8.4      5.933     10.171
REMARK  5 active torsions:
REMARK  status: ('A' for Active; 'I' for Inactive)
REMARK    1  A    between atoms: C_2  and  O_3 
REMARK    2  A    between atoms: O_3  and  C_4 
REMARK    3  A    between atoms: C_7  and  C_8 
REMARK       I    between atoms: C_8  and  N_9 
REMARK    4  A    between atoms: N_9  and  N_10 
REMARK    5  A    between atoms: C_11  and  C_12 
ROOT
HETATM    1  C   UNL     1      25.968  46.782  53.174  1.00  0.00     0.271 C 
HETATM    2  N   UNL     1      25.603  45.989  52.093  1.00  0.00    -0.243 N 
HETATM    3  O   UNL     1      25.397  47.805  53.538  1.00  0.00    -0.266 OA
HETATM    4  H   UNL     1      25.944  45.034  52.051  1.00  0.00     0.192 HD
ENDROOT
BRANCH   2   5
HETATM    5  N   UNL     1      24.547  46.210  51.240  1.00  0.00    -0.183 NA
HETATM    6  C   UNL     1      24.718  46.983  50.215  1.00  0.00     0.153 C 
BRANCH   6   7
HETATM    7  C   UNL     1      23.611  47.261  49.313  1.00  0.00     0.018 A 
HETATM    8  C   UNL     1      23.103  48.566  48.997  1.00  0.00     0.004 A 
HETATM    9  C   UNL     1      22.052  48.402  48.097  1.00  0.00     0.043 A 
HETATM   10  C   UNL     1      23.438  49.877  49.402  1.00  0.00     0.014 A 
HETATM   11  C   UNL     1      21.322  49.478  47.576  1.00  0.00     0.030 A 
HETATM   12  N   UNL     1      21.921  47.053  47.873  1.00  0.00    -0.358 N 
HETATM   13  C   UNL     1      21.676  50.764  47.992  1.00  0.00     0.002 A 
HETATM   14  C   UNL     1      22.718  50.964  48.893  1.00  0.00     0.001 A 
HETATM   15  H   UNL     1      21.231  46.645  47.259  1.00  0.00     0.166 HD
HETATM   16  C   UNL     1      22.851  46.346  48.595  1.00  0.00     0.018 A 
HETATM   17  C   UNL     1      22.919  44.863  48.515  1.00  0.00     0.069 C 
ENDBRANCH   6   7
ENDBRANCH   2   5
BRANCH   1  18
HETATM   18  C   UNL     1      27.148  46.306  53.958  1.00  0.00     0.033 A 
HETATM   19  C   UNL     1      27.841  47.127  54.854  1.00  0.00     0.020 A 
HETATM   20  C   UNL     1      28.911  46.608  55.591  1.00  0.00     0.038 A 
HETATM   21  C   UNL     1      29.286  45.267  55.464  1.00  0.00     0.068 A 
HETATM   22  C   UNL     1      28.600  44.449  54.567  1.00  0.00     0.038 A 
HETATM   23  C   UNL     1      27.535  44.965  53.822  1.00  0.00     0.020 A 
BRANCH  21  24
HETATM   24  O   UNL     1      30.327  44.883  56.260  1.00  0.00    -0.352 OA
BRANCH  24  25
HETATM   25  C   UNL     1      30.951  43.639  55.938  1.00  0.00     0.171 C 
HETATM   26  C   UNL     1      31.707  43.162  57.165  1.00  0.00     0.034 C 
ENDBRANCH  24  25
ENDBRANCH  21  24
ENDBRANCH   1  18
TORSDOF 5
ENDMDL
MODEL 3
REMARK VINA RESULT:      -8.3      6.828     10.051
REMARK  5 active torsions:
REMARK  status: ('A' for Active; 'I' for Inactive)
REMARK    1  A    between atoms: C_2  and  O_3 
REMARK    2  A    between atoms: O_3  and  C_4 
REMARK    3  A    between atoms: C_7  and  C_8 
REMARK       I    between atoms: C_8  and  N_9 
REMARK    4  A    between atoms: N_9  and  N_10 
REMARK    5  A    between atoms: C_11  and  C_12 
ROOT
HETATM    1  C   UNL     1      24.041  48.115  49.602  1.00  0.00     0.271 C 
HETATM    2  N   UNL     1      23.766  46.787  49.908  1.00  0.00    -0.243 N 
HETATM    3  O   UNL     1      25.147  48.646  49.644  1.00  0.00    -0.266 OA
HETATM    4  H   UNL     1      22.902  46.379  49.568  1.00  0.00     0.192 HD
ENDROOT
BRANCH   2   5
HETATM    5  N   UNL     1      24.675  45.840  50.315  1.00  0.00    -0.183 NA
HETATM    6  C   UNL     1      24.649  45.430  51.543  1.00  0.00     0.153 C 
BRANCH   6   7
HETATM    7  C   UNL     1      25.619  44.452  52.010  1.00  0.00     0.018 A 
HETATM    8  C   UNL     1      26.620  44.686  53.012  1.00  0.00     0.004 A 
HETATM    9  C   UNL     1      27.338  43.503  53.176  1.00  0.00     0.043 A 
HETATM   10  C   UNL     1      26.988  45.804  53.794  1.00  0.00     0.014 A 
HETATM   11  C   UNL     1      28.399  43.374  54.081  1.00  0.00     0.030 A 
HETATM   12  N   UNL     1      26.800  42.584  52.308  1.00  0.00    -0.358 N 
HETATM   13  C   UNL     1      28.740  44.496  54.843  1.00  0.00     0.002 A 
HETATM   14  C   UNL     1      28.047  45.695  54.702  1.00  0.00     0.001 A 
HETATM   15  H   UNL     1      27.129  41.633  52.213  1.00  0.00     0.166 HD
HETATM   16  C   UNL     1      25.761  43.133  51.597  1.00  0.00     0.018 A 
HETATM   17  C   UNL     1      25.008  42.332  50.597  1.00  0.00     0.069 C 
ENDBRANCH   6   7
ENDBRANCH   2   5
BRANCH   1  18
HETATM   18  C   UNL     1      22.873  48.935  49.161  1.00  0.00     0.033 A 
HETATM   19  C   UNL     1      22.953  50.316  48.954  1.00  0.00     0.020 A 
HETATM   20  C   UNL     1      21.834  51.020  48.498  1.00  0.00     0.038 A 
HETATM   21  C   UNL     1      20.635  50.358  48.221  1.00  0.00     0.068 A 
HETATM   22  C   UNL     1      20.550  48.983  48.433  1.00  0.00     0.038 A 
HETATM   23  C   UNL     1      21.664  48.275  48.896  1.00  0.00     0.020 A 
BRANCH  21  24
HETATM   24  O   UNL     1      19.629  51.158  47.757  1.00  0.00    -0.352 OA
BRANCH  24  25
HETATM   25  C   UNL     1      19.353  52.338  48.513  1.00  0.00     0.171 C 
HETATM   26  C   UNL     1      18.549  51.934  49.736  1.00  0.00     0.034 C 
ENDBRANCH  24  25
ENDBRANCH  21  24
ENDBRANCH   1  18
TORSDOF 5
ENDMDL
MODEL 4
REMARK VINA RESULT:      -8.2      6.118      9.175
REMARK  5 active torsions:
REMARK  status: ('A' for Active; 'I' for Inactive)
REMARK    1  A    between atoms: C_2  and  O_3 
REMARK    2  A    between atoms: O_3  and  C_4 
REMARK    3  A    between atoms: C_7  and  C_8 
REMARK       I    between atoms: C_8  and  N_9 
REMARK    4  A    between atoms: N_9  and  N_10 
REMARK    5  A    between atoms: C_11  and  C_12 
ROOT
HETATM    1  C   UNL     1      25.442  48.192  49.684  1.00  0.00     0.271 C 
HETATM    2  N   UNL     1      25.260  47.302  50.735  1.00  0.00    -0.243 N 
HETATM    3  O   UNL     1      26.524  48.574  49.247  1.00  0.00    -0.266 OA
HETATM    4  H   UNL     1      24.364  46.833  50.826  1.00  0.00     0.192 HD
ENDROOT
BRANCH   2   5
HETATM    5  N   UNL     1      26.250  46.698  51.472  1.00  0.00    -0.183 NA
HETATM    6  C   UNL     1      26.028  46.423  52.718  1.00  0.00     0.153 C 
BRANCH   6   7
HETATM    7  C   UNL     1      27.069  45.813  53.531  1.00  0.00     0.018 A 
HETATM    8  C   UNL     1      27.761  44.594  53.219  1.00  0.00     0.004 A 
HETATM    9  C   UNL     1      28.680  44.359  54.239  1.00  0.00     0.043 A 
HETATM   10  C   UNL     1      27.684  43.662  52.160  1.00  0.00     0.014 A 
HETATM   11  C   UNL     1      29.530  43.246  54.257  1.00  0.00     0.030 A 
HETATM   12  N   UNL     1      28.554  45.389  55.139  1.00  0.00    -0.358 N 
HETATM   13  C   UNL     1      29.433  42.340  53.196  1.00  0.00     0.002 A 
HETATM   14  C   UNL     1      28.523  42.542  52.162  1.00  0.00     0.001 A 
HETATM   15  H   UNL     1      29.102  45.474  55.984  1.00  0.00     0.166 HD
HETATM   16  C   UNL     1      27.591  46.279  54.731  1.00  0.00     0.018 A 
HETATM   17  C   UNL     1      27.273  47.488  55.534  1.00  0.00     0.069 C 
ENDBRANCH   6   7
ENDBRANCH   2   5
BRANCH   1  18
HETATM   18  C   UNL     1      24.193  48.691  49.031  1.00  0.00     0.033 A 
HETATM   19  C   UNL     1      22.969  48.021  49.132  1.00  0.00     0.020 A 
HETATM   20  C   UNL     1      21.826  48.563  48.535  1.00  0.00     0.038 A 
HETATM   21  C   UNL     1      21.882  49.783  47.855  1.00  0.00     0.068 A 
HETATM   22  C   UNL     1      23.103  50.449  47.748  1.00  0.00     0.038 A 
HETATM   23  C   UNL     1      24.250  49.907  48.336  1.00  0.00     0.020 A 
BRANCH  21  24
HETATM   24  O   UNL     1      20.691  50.212  47.343  1.00  0.00    -0.352 OA
BRANCH  24  25
HETATM   25  C   UNL     1      19.660  50.507  48.286  1.00  0.00     0.171 C 
HETATM   26  C   UNL     1      19.744  51.983  48.628  1.00  0.00     0.034 C 
ENDBRANCH  24  25
ENDBRANCH  21  24
ENDBRANCH   1  18
TORSDOF 5
ENDMDL
MODEL 5
REMARK VINA RESULT:      -8.2      5.971      8.990
REMARK  5 active torsions:
REMARK  status: ('A' for Active; 'I' for Inactive)
REMARK    1  A    between atoms: C_2  and  O_3 
REMARK    2  A    between atoms: O_3  and  C_4 
REMARK    3  A    between atoms: C_7  and  C_8 
REMARK       I    between atoms: C_8  and  N_9 
REMARK    4  A    between atoms: N_9  and  N_10 
REMARK    5  A    between atoms: C_11  and  C_12 
ROOT
HETATM    1  C   UNL     1      25.761  47.918  49.730  1.00  0.00     0.271 C 
HETATM    2  N   UNL     1      25.549  46.682  50.328  1.00  0.00    -0.243 N 
HETATM    3  O   UNL     1      26.841  48.495  49.641  1.00  0.00    -0.266 OA
HETATM    4  H   UNL     1      24.706  46.168  50.097  1.00  0.00     0.192 HD
ENDROOT
BRANCH   2   5
HETATM    5  N   UNL     1      26.502  45.892  50.928  1.00  0.00    -0.183 NA
HETATM    6  C   UNL     1      26.210  45.283  52.032  1.00  0.00     0.153 C 
BRANCH   6   7
HETATM    7  C   UNL     1      27.208  44.467  52.706  1.00  0.00     0.018 A 
HETATM    8  C   UNL     1      28.016  44.888  53.815  1.00  0.00     0.004 A 
HETATM    9  C   UNL     1      28.835  43.819  54.170  1.00  0.00     0.043 A 
HETATM   10  C   UNL     1      28.132  46.091  54.548  1.00  0.00     0.014 A 
HETATM   11  C   UNL     1      29.759  43.883  55.221  1.00  0.00     0.030 A 
HETATM   12  N   UNL     1      28.542  42.786  53.313  1.00  0.00    -0.358 N 
HETATM   13  C   UNL     1      29.851  45.084  55.930  1.00  0.00     0.002 A 
HETATM   14  C   UNL     1      29.051  46.174  55.600  1.00  0.00     0.001 A 
HETATM   15  H   UNL     1      28.990  41.881  53.341  1.00  0.00     0.166 HD
HETATM   16  C   UNL     1      27.562  43.154  52.423  1.00  0.00     0.018 A 
HETATM   17  C   UNL     1      27.063  42.203  51.395  1.00  0.00     0.069 C 
ENDBRANCH   6   7
ENDBRANCH   2   5
BRANCH   1  18
HETATM   18  C   UNL     1      24.555  48.564  49.129  1.00  0.00     0.033 A 
HETATM   19  C   UNL     1      23.267  48.034  49.265  1.00  0.00     0.020 A 
HETATM   20  C   UNL     1      22.173  48.710  48.715  1.00  0.00     0.038 A 
HETATM   21  C   UNL     1      22.343  49.927  48.050  1.00  0.00     0.068 A 
HETATM   22  C   UNL     1      23.626  50.454  47.908  1.00  0.00     0.038 A 
HETATM   23  C   UNL     1      24.725  49.777  48.448  1.00  0.00     0.020 A 
BRANCH  21  24
HETATM   24  O   UNL     1      21.191  50.495  47.585  1.00  0.00    -0.352 OA
BRANCH  24  25
HETATM   25  C   UNL     1      20.118  50.617  48.521  1.00  0.00     0.171 C 
HETATM   26  C   UNL     1      19.739  52.085  48.611  1.00  0.00     0.034 C 
ENDBRANCH  24  25
ENDBRANCH  21  24
ENDBRANCH   1  18
TORSDOF 5
ENDMDL
MODEL 6
REMARK VINA RESULT:      -7.9      5.543      9.268
REMARK  5 active torsions:
REMARK  status: ('A' for Active; 'I' for Inactive)
REMARK    1  A    between atoms: C_2  and  O_3 
REMARK    2  A    between atoms: O_3  and  C_4 
REMARK    3  A    between atoms: C_7  and  C_8 
REMARK       I    between atoms: C_8  and  N_9 
REMARK    4  A    between atoms: N_9  and  N_10 
REMARK    5  A    between atoms: C_11  and  C_12 
ROOT
HETATM    1  C   UNL     1      26.570  43.977  51.505  1.00  0.00     0.271 C 
HETATM    2  N   UNL     1      25.725  45.031  51.827  1.00  0.00    -0.243 N 
HETATM    3  O   UNL     1      26.475  43.260  50.513  1.00  0.00    -0.266 OA
HETATM    4  H   UNL     1      26.049  45.730  52.488  1.00  0.00     0.192 HD
ENDROOT
BRANCH   2   5
HETATM    5  N   UNL     1      24.636  45.454  51.103  1.00  0.00    -0.183 NA
HETATM    6  C   UNL     1      24.825  46.173  50.042  1.00  0.00     0.153 C 
BRANCH   6   7
HETATM    7  C   UNL     1      23.690  46.661  49.275  1.00  0.00     0.018 A 
HETATM    8  C   UNL     1      23.472  48.026  48.890  1.00  0.00     0.004 A 
HETATM    9  C   UNL     1      22.284  48.075  48.164  1.00  0.00     0.043 A 
HETATM   10  C   UNL     1      24.176  49.233  49.101  1.00  0.00     0.014 A 
HETATM   11  C   UNL     1      21.764  49.262  47.632  1.00  0.00     0.030 A 
HETATM   12  N   UNL     1      21.795  46.792  48.108  1.00  0.00    -0.358 N 
HETATM   13  C   UNL     1      22.482  50.441  47.855  1.00  0.00     0.002 A 
HETATM   14  C   UNL     1      23.671  50.429  48.579  1.00  0.00     0.001 A 
HETATM   15  H   UNL     1      20.938  46.532  47.641  1.00  0.00     0.166 HD
HETATM   16  C   UNL     1      22.628  45.923  48.769  1.00  0.00     0.018 A 
HETATM   17  C   UNL     1      22.319  44.471  48.843  1.00  0.00     0.069 C 
ENDBRANCH   6   7
ENDBRANCH   2   5
BRANCH   1  18
HETATM   18  C   UNL     1      27.699  43.736  52.453  1.00  0.00     0.033 A 
HETATM   19  C   UNL     1      28.752  42.859  52.169  1.00  0.00     0.020 A 
HETATM   20  C   UNL     1      29.802  42.712  53.081  1.00  0.00     0.038 A 
HETATM   21  C   UNL     1      29.830  43.448  54.268  1.00  0.00     0.068 A 
HETATM   22  C   UNL     1      28.779  44.317  54.556  1.00  0.00     0.038 A 
HETATM   23  C   UNL     1      27.722  44.463  53.652  1.00  0.00     0.020 A 
BRANCH  21  24
HETATM   24  O   UNL     1      30.924  43.229  55.056  1.00  0.00    -0.352 OA
BRANCH  24  25
HETATM   25  C   UNL     1      31.069  44.077  56.196  1.00  0.00     0.171 C 
HETATM   26  C   UNL     1      31.876  43.326  57.240  1.00  0.00     0.034 C 
ENDBRANCH  24  25
ENDBRANCH  21  24
ENDBRANCH   1  18
TORSDOF 5
ENDMDL
MODEL 7
REMARK VINA RESULT:      -7.7     15.019     18.116
REMARK  5 active torsions:
REMARK  status: ('A' for Active; 'I' for Inactive)
REMARK    1  A    between atoms: C_2  and  O_3 
REMARK    2  A    between atoms: O_3  and  C_4 
REMARK    3  A    between atoms: C_7  and  C_8 
REMARK       I    between atoms: C_8  and  N_9 
REMARK    4  A    between atoms: N_9  and  N_10 
REMARK    5  A    between atoms: C_11  and  C_12 
ROOT
HETATM    1  C   UNL     1      39.297  40.538  62.969  1.00  0.00     0.271 C 
HETATM    2  N   UNL     1      39.742  39.927  64.136  1.00  0.00    -0.243 N 
HETATM    3  O   UNL     1      39.312  40.038  61.848  1.00  0.00    -0.266 OA
HETATM    4  H   UNL     1      39.425  40.293  65.027  1.00  0.00     0.192 HD
ENDROOT
BRANCH   2   5
HETATM    5  N   UNL     1      40.280  38.667  64.242  1.00  0.00    -0.183 NA
HETATM    6  C   UNL     1      40.466  38.158  65.418  1.00  0.00     0.153 C 
BRANCH   6   7
HETATM    7  C   UNL     1      41.063  36.840  65.561  1.00  0.00     0.018 A 
HETATM    8  C   UNL     1      40.396  35.677  66.075  1.00  0.00     0.004 A 
HETATM    9  C   UNL     1      41.305  34.621  66.042  1.00  0.00     0.043 A 
HETATM   10  C   UNL     1      39.099  35.426  66.575  1.00  0.00     0.014 A 
HETATM   11  C   UNL     1      40.987  33.328  66.475  1.00  0.00     0.030 A 
HETATM   12  N   UNL     1      42.480  35.118  65.531  1.00  0.00    -0.358 N 
HETATM   13  C   UNL     1      39.696  33.108  66.963  1.00  0.00     0.002 A 
HETATM   14  C   UNL     1      38.764  34.140  67.014  1.00  0.00     0.001 A 
HETATM   15  H   UNL     1      43.317  34.569  65.395  1.00  0.00     0.166 HD
HETATM   16  C   UNL     1      42.356  36.453  65.232  1.00  0.00     0.018 A 
HETATM   17  C   UNL     1      43.491  37.220  64.656  1.00  0.00     0.069 C 
ENDBRANCH   6   7
ENDBRANCH   2   5
BRANCH   1  18
HETATM   18  C   UNL     1      38.733  41.912  63.130  1.00  0.00     0.033 A 
HETATM   19  C   UNL     1      39.297  43.038  62.521  1.00  0.00     0.020 A 
HETATM   20  C   UNL     1      38.695  44.291  62.676  1.00  0.00     0.038 A 
HETATM   21  C   UNL     1      37.516  44.433  63.413  1.00  0.00     0.068 A 
HETATM   22  C   UNL     1      36.955  43.314  64.026  1.00  0.00     0.038 A 
HETATM   23  C   UNL     1      37.558  42.060  63.882  1.00  0.00     0.020 A 
BRANCH  21  24
HETATM   24  O   UNL     1      37.019  45.705  63.462  1.00  0.00    -0.352 OA
BRANCH  24  25
HETATM   25  C   UNL     1      36.266  46.050  64.626  1.00  0.00     0.171 C 
HETATM   26  C   UNL     1      36.485  47.526  64.905  1.00  0.00     0.034 C 
ENDBRANCH  24  25
ENDBRANCH  21  24
ENDBRANCH   1  18
TORSDOF 5
ENDMDL
MODEL 8
REMARK VINA RESULT:      -7.6      9.261     12.924
REMARK  5 active torsions:
REMARK  status: ('A' for Active; 'I' for Inactive)
REMARK    1  A    between atoms: C_2  and  O_3 
REMARK    2  A    between atoms: O_3  and  C_4 
REMARK    3  A    between atoms: C_7  and  C_8 
REMARK       I    between atoms: C_8  and  N_9 
REMARK    4  A    between atoms: N_9  and  N_10 
REMARK    5  A    between atoms: C_11  and  C_12 
ROOT
HETATM    1  C   UNL     1      21.755  50.867  49.181  1.00  0.00     0.271 C 
HETATM    2  N   UNL     1      22.030  49.732  49.934  1.00  0.00    -0.243 N 
HETATM    3  O   UNL     1      22.579  51.536  48.565  1.00  0.00    -0.266 OA
HETATM    4  H   UNL     1      21.270  49.097  50.154  1.00  0.00     0.192 HD
ENDROOT
BRANCH   2   5
HETATM    5  N   UNL     1      23.267  49.162  50.126  1.00  0.00    -0.183 NA
HETATM    6  C   UNL     1      23.724  48.336  49.240  1.00  0.00     0.153 C 
BRANCH   6   7
HETATM    7  C   UNL     1      25.015  47.694  49.433  1.00  0.00     0.018 A 
HETATM    8  C   UNL     1      25.214  46.356  49.915  1.00  0.00     0.004 A 
HETATM    9  C   UNL     1      26.587  46.121  49.949  1.00  0.00     0.043 A 
HETATM   10  C   UNL     1      24.348  45.321  50.334  1.00  0.00     0.014 A 
HETATM   11  C   UNL     1      27.141  44.907  50.374  1.00  0.00     0.030 A 
HETATM   12  N   UNL     1      27.202  47.267  49.509  1.00  0.00    -0.358 N 
HETATM   13  C   UNL     1      26.261  43.900  50.782  1.00  0.00     0.002 A 
HETATM   14  C   UNL     1      24.884  44.102  50.764  1.00  0.00     0.001 A 
HETATM   15  H   UNL     1      28.203  47.380  49.432  1.00  0.00     0.166 HD
HETATM   16  C   UNL     1      26.274  48.228  49.190  1.00  0.00     0.018 A 
HETATM   17  C   UNL     1      26.692  49.560  48.680  1.00  0.00     0.069 C 
ENDBRANCH   6   7
ENDBRANCH   2   5
BRANCH   1  18
HETATM   18  C   UNL     1      20.317  51.268  49.115  1.00  0.00     0.033 A 
HETATM   19  C   UNL     1      19.830  52.181  48.173  1.00  0.00     0.020 A 
HETATM   20  C   UNL     1      18.464  52.481  48.134  1.00  0.00     0.038 A 
HETATM   21  C   UNL     1      17.569  51.862  49.010  1.00  0.00     0.068 A 
HETATM   22  C   UNL     1      18.053  50.957  49.953  1.00  0.00     0.038 A 
HETATM   23  C   UNL     1      19.419  50.659  50.002  1.00  0.00     0.020 A 
BRANCH  21  24
HETATM   24  O   UNL     1      16.261  52.224  48.848  1.00  0.00    -0.352 OA
BRANCH  24  25
HETATM   25  C   UNL     1      15.519  52.482  50.041  1.00  0.00     0.171 C 
HETATM   26  C   UNL     1      15.695  53.948  50.394  1.00  0.00     0.034 C 
ENDBRANCH  24  25
ENDBRANCH  21  24
ENDBRANCH   1  18
TORSDOF 5
ENDMDL
MODEL 9
REMARK VINA RESULT:      -7.5      5.847      9.688
REMARK  5 active torsions:
REMARK  status: ('A' for Active; 'I' for Inactive)
REMARK    1  A    between atoms: C_2  and  O_3 
REMARK    2  A    between atoms: O_3  and  C_4 
REMARK    3  A    between atoms: C_7  and  C_8 
REMARK       I    between atoms: C_8  and  N_9 
REMARK    4  A    between atoms: N_9  and  N_10 
REMARK    5  A    between atoms: C_11  and  C_12 
ROOT
HETATM    1  C   UNL     1      25.748  44.828  52.312  1.00  0.00     0.271 C 
HETATM    2  N   UNL     1      25.723  46.103  51.758  1.00  0.00    -0.243 N 
HETATM    3  O   UNL     1      24.842  44.002  52.250  1.00  0.00    -0.266 OA
HETATM    4  H   UNL     1      26.603  46.586  51.610  1.00  0.00     0.192 HD
ENDROOT
BRANCH   2   5
HETATM    5  N   UNL     1      24.686  46.665  51.053  1.00  0.00    -0.183 NA
HETATM    6  C   UNL     1      24.807  46.824  49.774  1.00  0.00     0.153 C 
BRANCH   6   7
HETATM    7  C   UNL     1      23.738  47.446  49.008  1.00  0.00     0.018 A 
HETATM    8  C   UNL     1      22.547  46.785  48.554  1.00  0.00     0.004 A 
HETATM    9  C   UNL     1      21.780  47.724  47.867  1.00  0.00     0.043 A 
HETATM   10  C   UNL     1      22.053  45.466  48.659  1.00  0.00     0.014 A 
HETATM   11  C   UNL     1      20.544  47.418  47.285  1.00  0.00     0.030 A 
HETATM   12  N   UNL     1      22.474  48.909  47.898  1.00  0.00    -0.358 N 
HETATM   13  C   UNL     1      20.078  46.105  47.405  1.00  0.00     0.002 A 
HETATM   14  C   UNL     1      20.821  45.141  48.081  1.00  0.00     0.001 A 
HETATM   15  H   UNL     1      22.150  49.767  47.473  1.00  0.00     0.166 HD
HETATM   16  C   UNL     1      23.656  48.766  48.582  1.00  0.00     0.018 A 
HETATM   17  C   UNL     1      24.583  49.913  48.761  1.00  0.00     0.069 C 
ENDBRANCH   6   7
ENDBRANCH   2   5
BRANCH   1  18
HETATM   18  C   UNL     1      27.011  44.450  53.014  1.00  0.00     0.033 A 
HETATM   19  C   UNL     1      27.916  43.518  52.493  1.00  0.00     0.020 A 
HETATM   20  C   UNL     1      29.103  43.240  53.178  1.00  0.00     0.038 A 
HETATM   21  C   UNL     1      29.415  43.900  54.370  1.00  0.00     0.068 A 
HETATM   22  C   UNL     1      28.512  44.824  54.894  1.00  0.00     0.038 A 
HETATM   23  C   UNL     1      27.320  45.100  54.217  1.00  0.00     0.020 A 
BRANCH  21  24
HETATM   24  O   UNL     1      30.616  43.555  54.921  1.00  0.00    -0.352 OA
BRANCH  24  25
HETATM   25  C   UNL     1      31.015  44.281  56.085  1.00  0.00     0.171 C 
HETATM   26  C   UNL     1      31.785  43.335  56.988  1.00  0.00     0.034 C 
ENDBRANCH  24  25
ENDBRANCH  21  24
ENDBRANCH   1  18
TORSDOF 5
ENDMDL
MODEL 10
REMARK VINA RESULT:      -7.4      5.182      7.356
REMARK  5 active torsions:
REMARK  status: ('A' for Active; 'I' for Inactive)
REMARK    1  A    between atoms: C_2  and  O_3 
REMARK    2  A    between atoms: O_3  and  C_4 
REMARK    3  A    between atoms: C_7  and  C_8 
REMARK       I    between atoms: C_8  and  N_9 
REMARK    4  A    between atoms: N_9  and  N_10 
REMARK    5  A    between atoms: C_11  and  C_12 
ROOT
HETATM    1  C   UNL     1      25.132  46.539  51.228  1.00  0.00     0.271 C 
HETATM    2  N   UNL     1      25.537  45.237  51.497  1.00  0.00    -0.243 N 
HETATM    3  O   UNL     1      25.512  47.544  51.821  1.00  0.00    -0.266 OA
HETATM    4  H   UNL     1      25.401  44.528  50.784  1.00  0.00     0.192 HD
ENDROOT
BRANCH   2   5
HETATM    5  N   UNL     1      26.423  44.844  52.472  1.00  0.00    -0.183 NA
HETATM    6  C   UNL     1      27.470  44.161  52.133  1.00  0.00     0.153 C 
BRANCH   6   7
HETATM    7  C   UNL     1      28.408  43.705  53.147  1.00  0.00     0.018 A 
HETATM    8  C   UNL     1      28.871  44.482  54.262  1.00  0.00     0.004 A 
HETATM    9  C   UNL     1      29.747  43.686  54.996  1.00  0.00     0.043 A 
HETATM   10  C   UNL     1      28.629  45.800  54.711  1.00  0.00     0.014 A 
HETATM   11  C   UNL     1      30.390  44.132  56.157  1.00  0.00     0.030 A 
HETATM   12  N   UNL     1      29.818  42.472  54.356  1.00  0.00    -0.358 N 
HETATM   13  C   UNL     1      30.131  45.439  56.580  1.00  0.00     0.002 A 
HETATM   14  C   UNL     1      29.264  46.263  55.868  1.00  0.00     0.001 A 
HETATM   15  H   UNL     1      30.385  41.698  54.671  1.00  0.00     0.166 HD
HETATM   16  C   UNL     1      29.018  42.460  53.240  1.00  0.00     0.018 A 
HETATM   17  C   UNL     1      28.917  41.252  52.381  1.00  0.00     0.069 C 
ENDBRANCH   6   7
ENDBRANCH   2   5
BRANCH   1  18
HETATM   18  C   UNL     1      24.171  46.699  50.095  1.00  0.00     0.033 A 
HETATM   19  C   UNL     1      23.782  47.950  49.605  1.00  0.00     0.020 A 
HETATM   20  C   UNL     1      22.912  48.031  48.512  1.00  0.00     0.038 A 
HETATM   21  C   UNL     1      22.442  46.876  47.882  1.00  0.00     0.068 A 
HETATM   22  C   UNL     1      22.824  45.628  48.373  1.00  0.00     0.038 A 
HETATM   23  C   UNL     1      23.687  45.541  49.471  1.00  0.00     0.020 A 
BRANCH  21  24
HETATM   24  O   UNL     1      21.623  47.096  46.812  1.00  0.00    -0.352 OA
BRANCH  24  25
HETATM   25  C   UNL     1      20.400  47.785  47.077  1.00  0.00     0.171 C 
HETATM   26  C   UNL     1      19.333  46.749  47.378  1.00  0.00     0.034 C 
ENDBRANCH  24  25
ENDBRANCH  21  24
ENDBRANCH   1  18
TORSDOF 5
ENDMDL
