MODEL 1
REMARK VINA RESULT:      -9.3      0.000      0.000
REMARK  6 active torsions:
REMARK  status: ('A' for Active; 'I' for Inactive)
REMARK    1  A    between atoms: C_2  and  O_3 
REMARK    2  A    between atoms: C_2  and  C_4 
REMARK    3  A    between atoms: C_6  and  N_7 
REMARK       I    between atoms: N_7  and  C_8 
REMARK    4  A    between atoms: C_8  and  C_9 
REMARK    5  A    between atoms: C_12  and  C_13 
REMARK    6  A    between atoms: C_18  and  C_19 
ROOT
HETATM    1  C   UNL     1      25.517  45.274  51.387  1.00  0.00     0.096 C 
HETATM    2  C   UNL     1      26.404  44.698  52.278  1.00  0.00     0.138 C 
HETATM    3  N   UNL     1      26.423  43.355  51.975  1.00  0.00    -0.240 N 
HETATM    4  C   UNL     1      27.201  42.359  52.690  1.00  0.00     0.221 C 
HETATM    5  C   UNL     1      28.273  43.036  53.562  1.00  0.00     0.068 C 
HETATM    6  C   UNL     1      27.687  44.247  54.295  1.00  0.00     0.143 C 
HETATM    7  N   UNL     1      27.158  45.198  53.299  1.00  0.00    -0.363 N 
HETATM    8  N   UNL     1      25.487  42.999  51.083  1.00  0.00    -0.181 NA
HETATM    9  C   UNL     1      24.961  44.167  50.702  1.00  0.00     0.160 C 
HETATM   10  H   UNL     1      26.815  46.044  53.761  1.00  0.00     0.162 HD
ENDROOT
BRANCH   1  11
HETATM   11  C   UNL     1      25.166  46.671  51.191  1.00  0.00     0.261 C 
HETATM   12  N   UNL     1      24.545  46.917  49.981  1.00  0.00    -0.323 N 
HETATM   13  H   UNL     1      24.329  46.093  49.429  1.00  0.00     0.169 HD
HETATM   14  O   UNL     1      25.389  47.495  52.070  1.00  0.00    -0.267 OA
BRANCH  12  15
HETATM   15  C   UNL     1      24.081  48.150  49.483  1.00  0.00     0.035 A 
HETATM   16  C   UNL     1      22.754  48.579  49.578  1.00  0.00     0.039 A 
HETATM   17  C   UNL     1      22.352  49.819  49.048  1.00  0.00    -0.028 A 
HETATM   18  C   UNL     1      23.304  50.624  48.409  1.00  0.00     0.010 A 
HETATM   19  C   UNL     1      24.632  50.211  48.321  1.00  0.00     0.003 A 
HETATM   20  C   UNL     1      25.018  48.982  48.858  1.00  0.00     0.029 A 
BRANCH  17  21
HETATM   21  C   UNL     1      20.900  50.241  49.141  1.00  0.00     0.147 C 
HETATM   22  C   UNL     1      20.657  51.599  48.499  1.00  0.00     0.044 C 
BRANCH  21  23
HETATM   23  O   UNL     1      20.486  50.295  50.506  1.00  0.00    -0.391 OA
HETATM   24  H   UNL     1      19.872  49.552  50.640  1.00  0.00     0.210 HD
ENDBRANCH  21  23
ENDBRANCH  17  21
ENDBRANCH  12  15
ENDBRANCH   1  11
BRANCH   4  25
HETATM   25  C   UNL     1      27.860  41.377  51.747  1.00  0.00     0.409 C 
HETATM   26  F   UNL     1      27.038  40.396  51.324  1.00  0.00    -0.169 F 
HETATM   27  F   UNL     1      28.393  41.985  50.662  1.00  0.00    -0.169 F 
HETATM   28  F   UNL     1      28.889  40.756  52.386  1.00  0.00    -0.169 F 
ENDBRANCH   4  25
BRANCH   6  29
HETATM   29  C   UNL     1      28.720  44.847  55.193  1.00  0.00     0.075 A 
HETATM   30  O   UNL     1      29.882  44.146  55.332  1.00  0.00    -0.325 OA
HETATM   31  C   UNL     1      30.682  44.860  56.164  1.00  0.00     0.142 A 
HETATM   32  C   UNL     1      30.050  46.014  56.565  1.00  0.00     0.027 A 
HETATM   33  C   UNL     1      28.782  46.008  55.938  1.00  0.00     0.037 A 
ENDBRANCH   6  29
TORSDOF 6
ENDMDL
MODEL 2
REMARK VINA RESULT:      -9.0      1.164      1.561
REMARK  6 active torsions:
REMARK  status: ('A' for Active; 'I' for Inactive)
REMARK    1  A    between atoms: C_2  and  O_3 
REMARK    2  A    between atoms: C_2  and  C_4 
REMARK    3  A    between atoms: C_6  and  N_7 
REMARK       I    between atoms: N_7  and  C_8 
REMARK    4  A    between atoms: C_8  and  C_9 
REMARK    5  A    between atoms: C_12  and  C_13 
REMARK    6  A    between atoms: C_18  and  C_19 
ROOT
HETATM    1  C   UNL     1      24.938  45.563  50.389  1.00  0.00     0.096 C 
HETATM    2  C   UNL     1      25.794  44.888  51.240  1.00  0.00     0.138 C 
HETATM    3  N   UNL     1      25.823  43.587  50.788  1.00  0.00    -0.240 N 
HETATM    4  C   UNL     1      26.576  42.514  51.414  1.00  0.00     0.221 C 
HETATM    5  C   UNL     1      27.618  43.085  52.392  1.00  0.00     0.068 C 
HETATM    6  C   UNL     1      27.007  44.208  53.236  1.00  0.00     0.143 C 
HETATM    7  N   UNL     1      26.513  45.267  52.335  1.00  0.00    -0.363 N 
HETATM    8  N   UNL     1      24.918  43.337  49.831  1.00  0.00    -0.181 NA
HETATM    9  C   UNL     1      24.406  44.542  49.566  1.00  0.00     0.160 C 
HETATM   10  H   UNL     1      26.154  46.058  52.877  1.00  0.00     0.162 HD
ENDROOT
BRANCH   1  11
HETATM   11  C   UNL     1      24.594  46.975  50.339  1.00  0.00     0.261 C 
HETATM   12  N   UNL     1      23.726  47.293  49.312  1.00  0.00    -0.323 N 
HETATM   13  H   UNL     1      23.368  46.502  48.786  1.00  0.00     0.169 HD
HETATM   14  O   UNL     1      25.032  47.749  51.182  1.00  0.00    -0.267 OA
BRANCH  12  15
HETATM   15  C   UNL     1      23.200  48.558  48.985  1.00  0.00     0.035 A 
HETATM   16  C   UNL     1      21.870  48.929  49.205  1.00  0.00     0.039 A 
HETATM   17  C   UNL     1      21.403  50.207  48.845  1.00  0.00    -0.028 A 
HETATM   18  C   UNL     1      22.293  51.110  48.249  1.00  0.00     0.010 A 
HETATM   19  C   UNL     1      23.623  50.754  48.037  1.00  0.00     0.003 A 
HETATM   20  C   UNL     1      24.074  49.486  48.406  1.00  0.00     0.029 A 
BRANCH  17  21
HETATM   21  C   UNL     1      19.949  50.566  49.070  1.00  0.00     0.147 C 
HETATM   22  C   UNL     1      19.647  52.003  48.669  1.00  0.00     0.044 C 
BRANCH  21  23
HETATM   23  O   UNL     1      19.600  50.387  50.442  1.00  0.00    -0.391 OA
HETATM   24  H   UNL     1      20.369  50.674  50.964  1.00  0.00     0.210 HD
ENDBRANCH  21  23
ENDBRANCH  17  21
ENDBRANCH  12  15
ENDBRANCH   1  11
BRANCH   4  25
HETATM   25  C   UNL     1      27.266  41.641  50.390  1.00  0.00     0.409 C 
HETATM   26  F   UNL     1      27.523  42.269  49.225  1.00  0.00    -0.169 F 
HETATM   27  F   UNL     1      28.424  41.119  50.857  1.00  0.00    -0.169 F 
HETATM   28  F   UNL     1      26.465  40.585  50.080  1.00  0.00    -0.169 F 
ENDBRANCH   4  25
BRANCH   6  29
HETATM   29  C   UNL     1      28.009  44.700  54.230  1.00  0.00     0.075 A 
HETATM   30  O   UNL     1      27.746  45.908  54.808  1.00  0.00    -0.325 OA
HETATM   31  C   UNL     1      28.755  46.160  55.680  1.00  0.00     0.142 A 
HETATM   32  C   UNL     1      29.667  45.131  55.672  1.00  0.00     0.027 A 
HETATM   33  C   UNL     1      29.186  44.185  54.736  1.00  0.00     0.037 A 
ENDBRANCH   6  29
TORSDOF 6
ENDMDL
MODEL 3
REMARK VINA RESULT:      -8.8      4.566      7.419
REMARK  6 active torsions:
REMARK  status: ('A' for Active; 'I' for Inactive)
REMARK    1  A    between atoms: C_2  and  O_3 
REMARK    2  A    between atoms: C_2  and  C_4 
REMARK    3  A    between atoms: C_6  and  N_7 
REMARK       I    between atoms: N_7  and  C_8 
REMARK    4  A    between atoms: C_8  and  C_9 
REMARK    5  A    between atoms: C_12  and  C_13 
REMARK    6  A    between atoms: C_18  and  C_19 
ROOT
HETATM    1  C   UNL     1      26.070  45.242  52.526  1.00  0.00     0.096 C 
HETATM    2  C   UNL     1      26.995  45.564  53.501  1.00  0.00     0.138 C 
HETATM    3  N   UNL     1      26.752  46.879  53.831  1.00  0.00    -0.240 N 
HETATM    4  C   UNL     1      27.519  47.643  54.799  1.00  0.00     0.221 C 
HETATM    5  C   UNL     1      28.372  46.706  55.671  1.00  0.00     0.068 C 
HETATM    6  C   UNL     1      29.045  45.631  54.810  1.00  0.00     0.143 C 
HETATM    7  N   UNL     1      28.002  44.866  54.101  1.00  0.00    -0.363 N 
HETATM    8  N   UNL     1      25.865  47.474  53.019  1.00  0.00    -0.181 NA
HETATM    9  C   UNL     1      25.427  46.473  52.250  1.00  0.00     0.160 C 
HETATM   10  H   UNL     1      28.423  44.102  53.565  1.00  0.00     0.162 HD
ENDROOT
BRANCH   1  11
HETATM   11  C   UNL     1      25.809  43.970  51.872  1.00  0.00     0.261 C 
HETATM   12  N   UNL     1      26.850  43.540  51.071  1.00  0.00    -0.323 N 
HETATM   13  H   UNL     1      27.690  44.108  51.110  1.00  0.00     0.169 HD
HETATM   14  O   UNL     1      24.764  43.366  52.087  1.00  0.00    -0.267 OA
BRANCH  12  15
HETATM   15  C   UNL     1      26.920  42.360  50.304  1.00  0.00     0.035 A 
HETATM   16  C   UNL     1      27.825  41.323  50.551  1.00  0.00     0.039 A 
HETATM   17  C   UNL     1      27.852  40.175  49.739  1.00  0.00    -0.028 A 
HETATM   18  C   UNL     1      26.959  40.084  48.663  1.00  0.00     0.010 A 
HETATM   19  C   UNL     1      26.045  41.106  48.416  1.00  0.00     0.003 A 
HETATM   20  C   UNL     1      26.025  42.237  49.235  1.00  0.00     0.029 A 
BRANCH  17  21
HETATM   21  C   UNL     1      28.864  39.083  50.015  1.00  0.00     0.147 C 
HETATM   22  C   UNL     1      28.303  37.698  49.730  1.00  0.00     0.044 C 
BRANCH  21  23
HETATM   23  O   UNL     1      29.292  39.136  51.376  1.00  0.00    -0.391 OA
HETATM   24  H   UNL     1      30.252  38.975  51.372  1.00  0.00     0.210 HD
ENDBRANCH  21  23
ENDBRANCH  17  21
ENDBRANCH  12  15
ENDBRANCH   1  11
BRANCH   4  25
HETATM   25  C   UNL     1      26.628  48.487  55.683  1.00  0.00     0.409 C 
HETATM   26  F   UNL     1      25.337  48.505  55.294  1.00  0.00    -0.169 F 
HETATM   27  F   UNL     1      26.678  48.102  56.979  1.00  0.00    -0.169 F 
HETATM   28  F   UNL     1      27.049  49.780  55.649  1.00  0.00    -0.169 F 
ENDBRANCH   4  25
BRANCH   6  29
HETATM   29  C   UNL     1      29.928  44.776  55.661  1.00  0.00     0.075 A 
HETATM   30  O   UNL     1      30.231  45.264  56.899  1.00  0.00    -0.325 OA
HETATM   31  C   UNL     1      31.019  44.341  57.508  1.00  0.00     0.142 A 
HETATM   32  C   UNL     1      31.227  43.264  56.679  1.00  0.00     0.027 A 
HETATM   33  C   UNL     1      30.523  43.543  55.484  1.00  0.00     0.037 A 
ENDBRANCH   6  29
TORSDOF 6
ENDMDL
MODEL 4
REMARK VINA RESULT:      -8.5      3.551      8.965
REMARK  6 active torsions:
REMARK  status: ('A' for Active; 'I' for Inactive)
REMARK    1  A    between atoms: C_2  and  O_3 
REMARK    2  A    between atoms: C_2  and  C_4 
REMARK    3  A    between atoms: C_6  and  N_7 
REMARK       I    between atoms: N_7  and  C_8 
REMARK    4  A    between atoms: C_8  and  C_9 
REMARK    5  A    between atoms: C_12  and  C_13 
REMARK    6  A    between atoms: C_18  and  C_19 
ROOT
HETATM    1  C   UNL     1      24.072  46.440  49.769  1.00  0.00     0.096 C 
HETATM    2  C   UNL     1      22.943  47.034  49.236  1.00  0.00     0.138 C 
HETATM    3  N   UNL     1      22.378  46.089  48.408  1.00  0.00    -0.240 N 
HETATM    4  C   UNL     1      21.182  46.302  47.611  1.00  0.00     0.221 C 
HETATM    5  C   UNL     1      20.427  47.552  48.093  1.00  0.00     0.068 C 
HETATM    6  C   UNL     1      21.404  48.703  48.361  1.00  0.00     0.143 C 
HETATM    7  N   UNL     1      22.383  48.269  49.377  1.00  0.00    -0.363 N 
HETATM    8  N   UNL     1      23.150  45.008  48.231  1.00  0.00    -0.181 NA
HETATM    9  C   UNL     1      24.161  45.206  49.083  1.00  0.00     0.160 C 
HETATM   10  H   UNL     1      23.011  49.041  49.618  1.00  0.00     0.162 HD
ENDROOT
BRANCH   1  11
HETATM   11  C   UNL     1      25.007  46.939  50.765  1.00  0.00     0.261 C 
HETATM   12  N   UNL     1      25.177  46.083  51.837  1.00  0.00    -0.323 N 
HETATM   13  H   UNL     1      24.710  45.186  51.753  1.00  0.00     0.169 HD
HETATM   14  O   UNL     1      25.587  48.004  50.591  1.00  0.00    -0.267 OA
BRANCH  12  15
HETATM   15  C   UNL     1      26.003  46.262  52.964  1.00  0.00     0.035 A 
HETATM   16  C   UNL     1      26.979  45.346  53.368  1.00  0.00     0.039 A 
HETATM   17  C   UNL     1      27.764  45.580  54.512  1.00  0.00    -0.028 A 
HETATM   18  C   UNL     1      27.549  46.748  55.255  1.00  0.00     0.010 A 
HETATM   19  C   UNL     1      26.589  47.673  54.852  1.00  0.00     0.003 A 
HETATM   20  C   UNL     1      25.822  47.432  53.711  1.00  0.00     0.029 A 
BRANCH  17  21
HETATM   21  C   UNL     1      28.792  44.552  54.940  1.00  0.00     0.147 C 
HETATM   22  C   UNL     1      29.871  45.159  55.824  1.00  0.00     0.044 C 
BRANCH  21  23
HETATM   23  O   UNL     1      29.409  43.962  53.797  1.00  0.00    -0.391 OA
HETATM   24  H   UNL     1      29.690  44.695  53.223  1.00  0.00     0.210 HD
ENDBRANCH  21  23
ENDBRANCH  17  21
ENDBRANCH  12  15
ENDBRANCH   1  11
BRANCH   4  25
HETATM   25  C   UNL     1      20.259  45.104  47.654  1.00  0.00     0.409 C 
HETATM   26  F   UNL     1      20.703  44.050  46.941  1.00  0.00    -0.169 F 
HETATM   27  F   UNL     1      20.011  44.691  48.918  1.00  0.00    -0.169 F 
HETATM   28  F   UNL     1      19.054  45.441  47.116  1.00  0.00    -0.169 F 
ENDBRANCH   4  25
BRANCH   6  29
HETATM   29  C   UNL     1      20.648  49.930  48.756  1.00  0.00     0.075 A 
HETATM   30  O   UNL     1      19.714  49.776  49.739  1.00  0.00    -0.325 OA
HETATM   31  C   UNL     1      19.161  50.996  49.957  1.00  0.00     0.142 A 
HETATM   32  C   UNL     1      19.726  51.936  49.128  1.00  0.00     0.027 A 
HETATM   33  C   UNL     1      20.689  51.250  48.351  1.00  0.00     0.037 A 
ENDBRANCH   6  29
TORSDOF 6
ENDMDL
MODEL 5
REMARK VINA RESULT:      -8.3      2.416      3.385
REMARK  6 active torsions:
REMARK  status: ('A' for Active; 'I' for Inactive)
REMARK    1  A    between atoms: C_2  and  O_3 
REMARK    2  A    between atoms: C_2  and  C_4 
REMARK    3  A    between atoms: C_6  and  N_7 
REMARK       I    between atoms: N_7  and  C_8 
REMARK    4  A    between atoms: C_8  and  C_9 
REMARK    5  A    between atoms: C_12  and  C_13 
REMARK    6  A    between atoms: C_18  and  C_19 
ROOT
HETATM    1  C   UNL     1      23.868  46.509  49.579  1.00  0.00     0.096 C 
HETATM    2  C   UNL     1      24.619  46.091  50.662  1.00  0.00     0.138 C 
HETATM    3  N   UNL     1      24.857  44.750  50.460  1.00  0.00    -0.240 N 
HETATM    4  C   UNL     1      25.587  43.894  51.379  1.00  0.00     0.221 C 
HETATM    5  C   UNL     1      26.375  44.740  52.394  1.00  0.00     0.068 C 
HETATM    6  C   UNL     1      25.514  45.896  52.916  1.00  0.00     0.143 C 
HETATM    7  N   UNL     1      25.089  46.727  51.774  1.00  0.00    -0.363 N 
HETATM    8  N   UNL     1      24.168  44.238  49.429  1.00  0.00    -0.181 NA
HETATM    9  C   UNL     1      23.596  45.311  48.876  1.00  0.00     0.160 C 
HETATM   10  H   UNL     1      24.563  47.542  52.103  1.00  0.00     0.162 HD
ENDROOT
BRANCH   1  11
HETATM   11  C   UNL     1      23.402  47.840  49.225  1.00  0.00     0.261 C 
HETATM   12  N   UNL     1      22.025  47.955  49.213  1.00  0.00    -0.323 N 
HETATM   13  H   UNL     1      21.519  47.137  49.539  1.00  0.00     0.169 HD
HETATM   14  O   UNL     1      24.205  48.740  49.011  1.00  0.00    -0.267 OA
BRANCH  12  15
HETATM   15  C   UNL     1      21.255  49.096  48.915  1.00  0.00     0.035 A 
HETATM   16  C   UNL     1      20.476  49.231  47.762  1.00  0.00     0.039 A 
HETATM   17  C   UNL     1      19.738  50.403  47.516  1.00  0.00    -0.028 A 
HETATM   18  C   UNL     1      19.800  51.450  48.446  1.00  0.00     0.010 A 
HETATM   19  C   UNL     1      20.564  51.320  49.604  1.00  0.00     0.003 A 
HETATM   20  C   UNL     1      21.285  50.148  49.838  1.00  0.00     0.029 A 
BRANCH  17  21
HETATM   21  C   UNL     1      18.928  50.529  46.243  1.00  0.00     0.147 C 
HETATM   22  C   UNL     1      17.893  51.640  46.331  1.00  0.00     0.044 C 
BRANCH  21  23
HETATM   23  O   UNL     1      18.262  49.300  45.955  1.00  0.00    -0.391 OA
HETATM   24  H   UNL     1      17.810  49.422  45.103  1.00  0.00     0.210 HD
ENDBRANCH  21  23
ENDBRANCH  17  21
ENDBRANCH  12  15
ENDBRANCH   1  11
BRANCH   4  25
HETATM   25  C   UNL     1      26.533  42.965  50.650  1.00  0.00     0.409 C 
HETATM   26  F   UNL     1      26.995  43.464  49.487  1.00  0.00    -0.169 F 
HETATM   27  F   UNL     1      27.592  42.610  51.413  1.00  0.00    -0.169 F 
HETATM   28  F   UNL     1      25.882  41.813  50.333  1.00  0.00    -0.169 F 
ENDBRANCH   4  25
BRANCH   6  29
HETATM   29  C   UNL     1      26.268  46.662  53.955  1.00  0.00     0.075 A 
HETATM   30  O   UNL     1      25.628  47.739  54.496  1.00  0.00    -0.325 OA
HETATM   31  C   UNL     1      26.467  48.279  55.417  1.00  0.00     0.142 A 
HETATM   32  C   UNL     1      27.639  47.564  55.478  1.00  0.00     0.027 A 
HETATM   33  C   UNL     1      27.513  46.517  54.534  1.00  0.00     0.037 A 
ENDBRANCH   6  29
TORSDOF 6
ENDMDL
MODEL 6
REMARK VINA RESULT:      -8.3      2.593      4.384
REMARK  6 active torsions:
REMARK  status: ('A' for Active; 'I' for Inactive)
REMARK    1  A    between atoms: C_2  and  O_3 
REMARK    2  A    between atoms: C_2  and  C_4 
REMARK    3  A    between atoms: C_6  and  N_7 
REMARK       I    between atoms: N_7  and  C_8 
REMARK    4  A    between atoms: C_8  and  C_9 
REMARK    5  A    between atoms: C_12  and  C_13 
REMARK    6  A    between atoms: C_18  and  C_19 
ROOT
HETATM    1  C   UNL     1      25.159  46.188  51.024  1.00  0.00     0.096 C 
HETATM    2  C   UNL     1      25.838  44.986  51.084  1.00  0.00     0.138 C 
HETATM    3  N   UNL     1      26.452  44.962  52.316  1.00  0.00    -0.240 N 
HETATM    4  C   UNL     1      27.306  43.888  52.791  1.00  0.00     0.221 C 
HETATM    5  C   UNL     1      27.131  42.633  51.919  1.00  0.00     0.068 C 
HETATM    6  C   UNL     1      27.098  43.008  50.434  1.00  0.00     0.143 C 
HETATM    7  N   UNL     1      25.987  43.953  50.205  1.00  0.00    -0.363 N 
HETATM    8  N   UNL     1      26.366  46.127  52.974  1.00  0.00    -0.181 NA
HETATM    9  C   UNL     1      25.554  46.859  52.206  1.00  0.00     0.160 C 
HETATM   10  H   UNL     1      25.906  44.172  49.209  1.00  0.00     0.162 HD
ENDROOT
BRANCH   1  11
HETATM   11  C   UNL     1      24.274  46.710  49.994  1.00  0.00     0.261 C 
HETATM   12  N   UNL     1      23.994  48.055  50.140  1.00  0.00    -0.323 N 
HETATM   13  H   UNL     1      24.506  48.527  50.879  1.00  0.00     0.169 HD
HETATM   14  O   UNL     1      23.883  45.984  49.088  1.00  0.00    -0.267 OA
BRANCH  12  15
HETATM   15  C   UNL     1      23.179  48.862  49.322  1.00  0.00     0.035 A 
HETATM   16  C   UNL     1      21.807  48.658  49.145  1.00  0.00     0.039 A 
HETATM   17  C   UNL     1      21.051  49.494  48.304  1.00  0.00    -0.028 A 
HETATM   18  C   UNL     1      21.696  50.541  47.631  1.00  0.00     0.010 A 
HETATM   19  C   UNL     1      23.060  50.760  47.811  1.00  0.00     0.003 A 
HETATM   20  C   UNL     1      23.796  49.927  48.654  1.00  0.00     0.029 A 
BRANCH  17  21
HETATM   21  C   UNL     1      19.573  49.227  48.111  1.00  0.00     0.147 C 
HETATM   22  C   UNL     1      19.003  49.996  46.928  1.00  0.00     0.044 C 
BRANCH  21  23
HETATM   23  O   UNL     1      18.846  49.583  49.287  1.00  0.00    -0.391 OA
HETATM   24  H   UNL     1      19.278  49.126  50.029  1.00  0.00     0.210 HD
ENDBRANCH  21  23
ENDBRANCH  17  21
ENDBRANCH  12  15
ENDBRANCH   1  11
BRANCH   4  25
HETATM   25  C   UNL     1      27.025  43.544  54.237  1.00  0.00     0.409 C 
HETATM   26  F   UNL     1      27.726  44.284  55.118  1.00  0.00    -0.169 F 
HETATM   27  F   UNL     1      25.711  43.647  54.543  1.00  0.00    -0.169 F 
HETATM   28  F   UNL     1      27.375  42.249  54.472  1.00  0.00    -0.169 F 
ENDBRANCH   4  25
BRANCH   6  29
HETATM   29  C   UNL     1      27.002  41.772  49.598  1.00  0.00     0.075 A 
HETATM   30  O   UNL     1      27.540  41.845  48.346  1.00  0.00    -0.325 OA
HETATM   31  C   UNL     1      27.365  40.629  47.767  1.00  0.00     0.142 A 
HETATM   32  C   UNL     1      26.722  39.773  48.630  1.00  0.00     0.027 A 
HETATM   33  C   UNL     1      26.487  40.510  49.815  1.00  0.00     0.037 A 
ENDBRANCH   6  29
TORSDOF 6
ENDMDL
MODEL 7
REMARK VINA RESULT:      -8.0      6.365     11.234
REMARK  6 active torsions:
REMARK  status: ('A' for Active; 'I' for Inactive)
REMARK    1  A    between atoms: C_2  and  O_3 
REMARK    2  A    between atoms: C_2  and  C_4 
REMARK    3  A    between atoms: C_6  and  N_7 
REMARK       I    between atoms: N_7  and  C_8 
REMARK    4  A    between atoms: C_8  and  C_9 
REMARK    5  A    between atoms: C_12  and  C_13 
REMARK    6  A    between atoms: C_18  and  C_19 
ROOT
HETATM    1  C   UNL     1      21.354  49.559  49.113  1.00  0.00     0.096 C 
HETATM    2  C   UNL     1      20.037  49.495  48.696  1.00  0.00     0.138 C 
HETATM    3  N   UNL     1      19.391  50.532  49.331  1.00  0.00    -0.240 N 
HETATM    4  C   UNL     1      17.973  50.820  49.207  1.00  0.00     0.221 C 
HETATM    5  C   UNL     1      17.374  50.074  48.003  1.00  0.00     0.068 C 
HETATM    6  C   UNL     1      17.887  48.630  47.953  1.00  0.00     0.143 C 
HETATM    7  N   UNL     1      19.360  48.651  47.865  1.00  0.00    -0.363 N 
HETATM    8  N   UNL     1      20.148  51.142  50.256  1.00  0.00    -0.181 NA
HETATM    9  C   UNL     1      21.347  50.574  50.099  1.00  0.00     0.160 C 
HETATM   10  H   UNL     1      19.724  47.699  47.769  1.00  0.00     0.162 HD
ENDROOT
BRANCH   1  11
HETATM   11  C   UNL     1      22.501  48.765  48.702  1.00  0.00     0.261 C 
HETATM   12  N   UNL     1      23.212  48.237  49.764  1.00  0.00    -0.323 N 
HETATM   13  H   UNL     1      22.799  48.387  50.679  1.00  0.00     0.169 HD
HETATM   14  O   UNL     1      22.736  48.585  47.513  1.00  0.00    -0.267 OA
BRANCH  12  15
HETATM   15  C   UNL     1      24.365  47.429  49.715  1.00  0.00     0.035 A 
HETATM   16  C   UNL     1      24.336  46.035  49.622  1.00  0.00     0.039 A 
HETATM   17  C   UNL     1      25.526  45.285  49.589  1.00  0.00    -0.028 A 
HETATM   18  C   UNL     1      26.754  45.957  49.662  1.00  0.00     0.010 A 
HETATM   19  C   UNL     1      26.793  47.347  49.743  1.00  0.00     0.003 A 
HETATM   20  C   UNL     1      25.604  48.079  49.766  1.00  0.00     0.029 A 
BRANCH  17  21
HETATM   21  C   UNL     1      25.460  43.773  49.518  1.00  0.00     0.147 C 
HETATM   22  C   UNL     1      25.246  43.145  50.887  1.00  0.00     0.044 C 
BRANCH  21  23
HETATM   23  O   UNL     1      26.661  43.250  48.952  1.00  0.00    -0.391 OA
HETATM   24  H   UNL     1      26.400  42.498  48.393  1.00  0.00     0.210 HD
ENDBRANCH  21  23
ENDBRANCH  17  21
ENDBRANCH  12  15
ENDBRANCH   1  11
BRANCH   4  25
HETATM   25  C   UNL     1      17.711  52.304  49.065  1.00  0.00     0.409 C 
HETATM   26  F   UNL     1      17.492  52.931  50.238  1.00  0.00    -0.169 F 
HETATM   27  F   UNL     1      18.714  52.943  48.420  1.00  0.00    -0.169 F 
HETATM   28  F   UNL     1      16.589  52.496  48.320  1.00  0.00    -0.169 F 
ENDBRANCH   4  25
BRANCH   6  29
HETATM   29  C   UNL     1      17.239  47.898  46.823  1.00  0.00     0.075 A 
HETATM   30  O   UNL     1      16.208  48.539  46.199  1.00  0.00    -0.325 OA
HETATM   31  C   UNL     1      15.775  47.722  45.205  1.00  0.00     0.142 A 
HETATM   32  C   UNL     1      16.514  46.562  45.179  1.00  0.00     0.027 A 
HETATM   33  C   UNL     1      17.461  46.674  46.224  1.00  0.00     0.037 A 
ENDBRANCH   6  29
TORSDOF 6
ENDMDL
MODEL 8
REMARK VINA RESULT:      -7.8      4.190      8.440
REMARK  6 active torsions:
REMARK  status: ('A' for Active; 'I' for Inactive)
REMARK    1  A    between atoms: C_2  and  O_3 
REMARK    2  A    between atoms: C_2  and  C_4 
REMARK    3  A    between atoms: C_6  and  N_7 
REMARK       I    between atoms: N_7  and  C_8 
REMARK    4  A    between atoms: C_8  and  C_9 
REMARK    5  A    between atoms: C_12  and  C_13 
REMARK    6  A    between atoms: C_18  and  C_19 
ROOT
HETATM    1  C   UNL     1      27.327  42.672  51.567  1.00  0.00     0.096 C 
HETATM    2  C   UNL     1      26.909  43.976  51.755  1.00  0.00     0.138 C 
HETATM    3  N   UNL     1      27.087  44.238  53.095  1.00  0.00    -0.240 N 
HETATM    4  C   UNL     1      26.742  45.492  53.743  1.00  0.00     0.221 C 
HETATM    5  C   UNL     1      26.519  46.597  52.696  1.00  0.00     0.068 C 
HETATM    6  C   UNL     1      25.689  46.068  51.521  1.00  0.00     0.143 C 
HETATM    7  N   UNL     1      26.394  44.921  50.917  1.00  0.00    -0.363 N 
HETATM    8  N   UNL     1      27.415  43.152  53.809  1.00  0.00    -0.181 NA
HETATM    9  C   UNL     1      27.594  42.211  52.879  1.00  0.00     0.160 C 
HETATM   10  H   UNL     1      25.889  44.587  50.091  1.00  0.00     0.162 HD
ENDROOT
BRANCH   1  11
HETATM   11  C   UNL     1      27.441  41.895  50.343  1.00  0.00     0.261 C 
HETATM   12  N   UNL     1      27.640  40.546  50.564  1.00  0.00    -0.323 N 
HETATM   13  H   UNL     1      27.589  40.254  51.535  1.00  0.00     0.169 HD
HETATM   14  O   UNL     1      27.320  42.439  49.252  1.00  0.00    -0.267 OA
BRANCH  12  15
HETATM   15  C   UNL     1      27.790  39.525  49.605  1.00  0.00     0.035 A 
HETATM   16  C   UNL     1      26.724  38.948  48.908  1.00  0.00     0.039 A 
HETATM   17  C   UNL     1      26.941  37.923  47.969  1.00  0.00    -0.028 A 
HETATM   18  C   UNL     1      28.249  37.474  47.745  1.00  0.00     0.010 A 
HETATM   19  C   UNL     1      29.319  38.052  48.424  1.00  0.00     0.003 A 
HETATM   20  C   UNL     1      29.090  39.074  49.348  1.00  0.00     0.029 A 
BRANCH  17  21
HETATM   21  C   UNL     1      25.761  37.298  47.254  1.00  0.00     0.147 C 
HETATM   22  C   UNL     1      24.840  38.346  46.648  1.00  0.00     0.044 C 
BRANCH  21  23
HETATM   23  O   UNL     1      25.007  36.486  48.154  1.00  0.00    -0.391 OA
HETATM   24  H   UNL     1      25.063  35.575  47.819  1.00  0.00     0.210 HD
ENDBRANCH  21  23
ENDBRANCH  17  21
ENDBRANCH  12  15
ENDBRANCH   1  11
BRANCH   4  25
HETATM   25  C   UNL     1      27.808  45.930  54.723  1.00  0.00     0.409 C 
HETATM   26  F   UNL     1      27.573  45.538  55.991  1.00  0.00    -0.169 F 
HETATM   27  F   UNL     1      29.041  45.503  54.365  1.00  0.00    -0.169 F 
HETATM   28  F   UNL     1      27.865  47.289  54.753  1.00  0.00    -0.169 F 
ENDBRANCH   4  25
BRANCH   6  29
HETATM   29  C   UNL     1      25.419  47.172  50.551  1.00  0.00     0.075 A 
HETATM   30  O   UNL     1      26.507  47.856  50.093  1.00  0.00    -0.325 OA
HETATM   31  C   UNL     1      26.052  48.793  49.223  1.00  0.00     0.142 A 
HETATM   32  C   UNL     1      24.684  48.722  49.112  1.00  0.00     0.027 A 
HETATM   33  C   UNL     1      24.272  47.674  49.969  1.00  0.00     0.037 A 
ENDBRANCH   6  29
TORSDOF 6
ENDMDL
MODEL 9
REMARK VINA RESULT:      -7.7      4.704      6.190
REMARK  6 active torsions:
REMARK  status: ('A' for Active; 'I' for Inactive)
REMARK    1  A    between atoms: C_2  and  O_3 
REMARK    2  A    between atoms: C_2  and  C_4 
REMARK    3  A    between atoms: C_6  and  N_7 
REMARK       I    between atoms: N_7  and  C_8 
REMARK    4  A    between atoms: C_8  and  C_9 
REMARK    5  A    between atoms: C_12  and  C_13 
REMARK    6  A    between atoms: C_18  and  C_19 
ROOT
HETATM    1  C   UNL     1      20.903  46.590  48.374  1.00  0.00     0.096 C 
HETATM    2  C   UNL     1      22.235  46.453  48.719  1.00  0.00     0.138 C 
HETATM    3  N   UNL     1      22.408  45.122  49.029  1.00  0.00    -0.240 N 
HETATM    4  C   UNL     1      23.658  44.537  49.480  1.00  0.00     0.221 C 
HETATM    5  C   UNL     1      24.832  45.492  49.205  1.00  0.00     0.068 C 
HETATM    6  C   UNL     1      24.458  46.930  49.584  1.00  0.00     0.143 C 
HETATM    7  N   UNL     1      23.272  47.335  48.805  1.00  0.00    -0.363 N 
HETATM    8  N   UNL     1      21.257  44.436  49.082  1.00  0.00    -0.181 NA
HETATM    9  C   UNL     1      20.350  45.317  48.652  1.00  0.00     0.160 C 
HETATM   10  H   UNL     1      23.039  48.313  48.996  1.00  0.00     0.162 HD
ENDROOT
BRANCH   1  11
HETATM   11  C   UNL     1      20.181  47.753  47.882  1.00  0.00     0.261 C 
HETATM   12  N   UNL     1      19.955  48.710  48.853  1.00  0.00    -0.323 N 
HETATM   13  H   UNL     1      20.394  48.530  49.750  1.00  0.00     0.169 HD
HETATM   14  O   UNL     1      19.870  47.833  46.700  1.00  0.00    -0.267 OA
BRANCH  12  15
HETATM   15  C   UNL     1      19.291  49.945  48.711  1.00  0.00     0.035 A 
HETATM   16  C   UNL     1      17.901  50.080  48.661  1.00  0.00     0.039 A 
HETATM   17  C   UNL     1      17.299  51.343  48.507  1.00  0.00    -0.028 A 
HETATM   18  C   UNL     1      18.118  52.474  48.393  1.00  0.00     0.010 A 
HETATM   19  C   UNL     1      19.505  52.351  48.454  1.00  0.00     0.003 A 
HETATM   20  C   UNL     1      20.087  51.092  48.615  1.00  0.00     0.029 A 
BRANCH  17  21
HETATM   21  C   UNL     1      15.791  51.451  48.426  1.00  0.00     0.147 C 
HETATM   22  C   UNL     1      15.344  52.365  47.295  1.00  0.00     0.044 C 
BRANCH  21  23
HETATM   23  O   UNL     1      15.263  51.947  49.656  1.00  0.00    -0.391 OA
HETATM   24  H   UNL     1      14.375  51.561  49.752  1.00  0.00     0.210 HD
ENDBRANCH  21  23
ENDBRANCH  17  21
ENDBRANCH  12  15
ENDBRANCH   1  11
BRANCH   4  25
HETATM   25  C   UNL     1      23.924  43.202  48.820  1.00  0.00     0.409 C 
HETATM   26  F   UNL     1      25.226  42.854  48.805  1.00  0.00    -0.169 F 
HETATM   27  F   UNL     1      23.220  42.198  49.389  1.00  0.00    -0.169 F 
HETATM   28  F   UNL     1      23.535  43.256  47.517  1.00  0.00    -0.169 F 
ENDBRANCH   4  25
BRANCH   6  29
HETATM   29  C   UNL     1      25.633  47.831  49.381  1.00  0.00     0.075 A 
HETATM   30  O   UNL     1      25.377  49.038  48.797  1.00  0.00    -0.325 OA
HETATM   31  C   UNL     1      26.559  49.701  48.719  1.00  0.00     0.142 A 
HETATM   32  C   UNL     1      27.574  48.939  49.246  1.00  0.00     0.027 A 
HETATM   33  C   UNL     1      26.979  47.729  49.674  1.00  0.00     0.037 A 
ENDBRANCH   6  29
TORSDOF 6
ENDMDL
MODEL 10
REMARK VINA RESULT:      -7.6     14.982     17.730
REMARK  6 active torsions:
REMARK  status: ('A' for Active; 'I' for Inactive)
REMARK    1  A    between atoms: C_2  and  O_3 
REMARK    2  A    between atoms: C_2  and  C_4 
REMARK    3  A    between atoms: C_6  and  N_7 
REMARK       I    between atoms: N_7  and  C_8 
REMARK    4  A    between atoms: C_8  and  C_9 
REMARK    5  A    between atoms: C_12  and  C_13 
REMARK    6  A    between atoms: C_18  and  C_19 
ROOT
HETATM    1  C   UNL     1      34.738  52.524  39.529  1.00  0.00     0.096 C 
HETATM    2  C   UNL     1      35.430  53.712  39.377  1.00  0.00     0.138 C 
HETATM    3  N   UNL     1      36.759  53.398  39.555  1.00  0.00    -0.240 N 
HETATM    4  C   UNL     1      37.846  54.360  39.515  1.00  0.00     0.221 C 
HETATM    5  C   UNL     1      37.375  55.679  38.879  1.00  0.00     0.068 C 
HETATM    6  C   UNL     1      35.997  56.077  39.419  1.00  0.00     0.143 C 
HETATM    7  N   UNL     1      35.039  54.994  39.125  1.00  0.00    -0.363 N 
HETATM    8  N   UNL     1      36.954  52.143  39.985  1.00  0.00    -0.181 NA
HETATM    9  C   UNL     1      35.733  51.604  39.936  1.00  0.00     0.160 C 
HETATM   10  H   UNL     1      34.097  55.262  39.422  1.00  0.00     0.162 HD
ENDROOT
BRANCH   1  11
HETATM   11  C   UNL     1      33.320  52.243  39.367  1.00  0.00     0.261 C 
HETATM   12  N   UNL     1      32.582  52.464  40.515  1.00  0.00    -0.323 N 
HETATM   13  H   UNL     1      33.095  52.877  41.287  1.00  0.00     0.169 HD
HETATM   14  O   UNL     1      32.880  51.890  38.280  1.00  0.00    -0.267 OA
BRANCH  12  15
HETATM   15  C   UNL     1      31.196  52.291  40.697  1.00  0.00     0.035 A 
HETATM   16  C   UNL     1      30.602  51.076  41.052  1.00  0.00     0.039 A 
HETATM   17  C   UNL     1      29.208  50.967  41.208  1.00  0.00    -0.028 A 
HETATM   18  C   UNL     1      28.411  52.100  40.992  1.00  0.00     0.010 A 
HETATM   19  C   UNL     1      28.995  53.318  40.652  1.00  0.00     0.003 A 
HETATM   20  C   UNL     1      30.380  53.413  40.508  1.00  0.00     0.029 A 
BRANCH  17  21
HETATM   21  C   UNL     1      28.594  49.629  41.563  1.00  0.00     0.147 C 
HETATM   22  C   UNL     1      28.377  48.756  40.335  1.00  0.00     0.044 C 
BRANCH  21  23
HETATM   23  O   UNL     1      27.343  49.816  42.224  1.00  0.00    -0.391 OA
HETATM   24  H   UNL     1      26.655  49.512  41.607  1.00  0.00     0.210 HD
ENDBRANCH  21  23
ENDBRANCH  17  21
ENDBRANCH  12  15
ENDBRANCH   1  11
BRANCH   4  25
HETATM   25  C   UNL     1      39.039  53.827  38.753  1.00  0.00     0.409 C 
HETATM   26  F   UNL     1      39.852  53.047  39.492  1.00  0.00    -0.169 F 
HETATM   27  F   UNL     1      38.676  53.138  37.646  1.00  0.00    -0.169 F 
HETATM   28  F   UNL     1      39.805  54.868  38.325  1.00  0.00    -0.169 F 
ENDBRANCH   4  25
BRANCH   6  29
HETATM   29  C   UNL     1      35.589  57.397  38.849  1.00  0.00     0.075 A 
HETATM   30  O   UNL     1      36.526  58.049  38.101  1.00  0.00    -0.325 OA
HETATM   31  C   UNL     1      35.957  59.204  37.669  1.00  0.00     0.142 A 
HETATM   32  C   UNL     1      34.665  59.305  38.128  1.00  0.00     0.027 A 
HETATM   33  C   UNL     1      34.424  58.138  38.891  1.00  0.00     0.037 A 
ENDBRANCH   6  29
TORSDOF 6
ENDMDL
