MODEL 1
REMARK VINA RESULT:      -9.1      0.000      0.000
REMARK  6 active torsions:
REMARK  status: ('A' for Active; 'I' for Inactive)
REMARK       I    between atoms: C_2  and  N_3 
REMARK    1  A    between atoms: N_3  and  C_4 
REMARK    2  A    between atoms: C_4  and  C_5 
REMARK    3  A    between atoms: C_4  and  C_11 
REMARK    4  A    between atoms: C_11  and  C_12 
REMARK       I    between atoms: C_12  and  N_13 
REMARK    5  A    between atoms: N_13  and  C_14 
REMARK    6  A    between atoms: C_16  and  C_17 
ROOT
HETATM    1  C   UNL     1      25.673  46.566  52.266  1.00  0.00     0.224 C 
HETATM    2  N   UNL     1      25.665  46.536  50.894  1.00  0.00    -0.327 N 
HETATM    3  O   UNL     1      25.430  47.551  52.965  1.00  0.00    -0.273 OA
HETATM    4  H   UNL     1      25.760  45.620  50.449  1.00  0.00     0.169 HD
ENDROOT
BRANCH   1   5
HETATM    5  C   UNL     1      26.095  45.269  52.938  1.00  0.00     0.133 C 
BRANCH   5   6
HETATM    6  C   UNL     1      27.271  44.463  52.352  1.00  0.00     0.126 C 
BRANCH   6   7
HETATM    7  N   UNL     1      26.827  43.369  51.478  1.00  0.00    -0.352 N 
HETATM    8  C   UNL     1      26.851  43.392  50.108  1.00  0.00     0.214 C 
HETATM    9  C   UNL     1      26.429  42.109  49.446  1.00  0.00     0.117 C 
HETATM   10  O   UNL     1      27.187  44.375  49.456  1.00  0.00    -0.274 OA
HETATM   11  H   UNL     1      26.462  42.545  51.939  1.00  0.00     0.163 HD
ENDBRANCH   6   7
BRANCH   6  12
HETATM   12  C   UNL     1      28.436  44.128  53.272  1.00  0.00    -0.035 A 
HETATM   13  C   UNL     1      28.603  44.715  54.537  1.00  0.00     0.009 A 
HETATM   14  C   UNL     1      29.669  44.355  55.367  1.00  0.00     0.001 A 
HETATM   15  C   UNL     1      30.586  43.396  54.951  1.00  0.00     0.000 A 
HETATM   16  C   UNL     1      30.436  42.793  53.707  1.00  0.00     0.001 A 
HETATM   17  C   UNL     1      29.368  43.150  52.879  1.00  0.00     0.009 A 
ENDBRANCH   6  12
ENDBRANCH   5   6
ENDBRANCH   1   5
BRANCH   2  18
HETATM   18  C   UNL     1      25.516  47.621  50.008  1.00  0.00     0.035 A 
HETATM   19  C   UNL     1      24.277  48.155  49.638  1.00  0.00     0.042 A 
HETATM   20  C   UNL     1      24.198  49.291  48.816  1.00  0.00    -0.021 A 
HETATM   21  C   UNL     1      25.384  49.863  48.336  1.00  0.00     0.012 A 
HETATM   22  C   UNL     1      26.622  49.329  48.691  1.00  0.00     0.003 A 
HETATM   23  C   UNL     1      26.686  48.223  49.537  1.00  0.00     0.029 A 
BRANCH  20  24
HETATM   24  C   UNL     1      22.916  49.906  48.503  1.00  0.00     0.010 A 
HETATM   25  C   UNL     1      22.356  51.138  48.919  1.00  0.00     0.152 A 
HETATM   26  N   UNL     1      21.132  51.347  48.426  1.00  0.00    -0.187 NA
HETATM   27  N   UNL     1      20.899  50.245  47.696  1.00  0.00    -0.289 N 
HETATM   28  H   UNL     1      20.008  50.163  47.217  1.00  0.00     0.188 HD
HETATM   29  C   UNL     1      21.934  49.357  47.705  1.00  0.00     0.123 A 
ENDBRANCH  20  24
ENDBRANCH   2  18
TORSDOF 6
ENDMDL
MODEL 2
REMARK VINA RESULT:      -9.0      2.949      8.702
REMARK  6 active torsions:
REMARK  status: ('A' for Active; 'I' for Inactive)
REMARK       I    between atoms: C_2  and  N_3 
REMARK    1  A    between atoms: N_3  and  C_4 
REMARK    2  A    between atoms: C_4  and  C_5 
REMARK    3  A    between atoms: C_4  and  C_11 
REMARK    4  A    between atoms: C_11  and  C_12 
REMARK       I    between atoms: C_12  and  N_13 
REMARK    5  A    between atoms: N_13  and  C_14 
REMARK    6  A    between atoms: C_16  and  C_17 
ROOT
HETATM    1  C   UNL     1      26.426  45.314  51.886  1.00  0.00     0.224 C 
HETATM    2  N   UNL     1      26.944  45.220  53.154  1.00  0.00    -0.327 N 
HETATM    3  O   UNL     1      26.859  44.735  50.889  1.00  0.00    -0.273 OA
HETATM    4  H   UNL     1      26.407  45.655  53.908  1.00  0.00     0.169 HD
ENDROOT
BRANCH   1   5
HETATM    5  C   UNL     1      25.266  46.284  51.734  1.00  0.00     0.133 C 
BRANCH   5   6
HETATM    6  C   UNL     1      24.780  46.666  50.321  1.00  0.00     0.126 C 
BRANCH   6   7
HETATM    7  N   UNL     1      24.542  45.493  49.470  1.00  0.00    -0.352 N 
HETATM    8  C   UNL     1      23.399  45.256  48.751  1.00  0.00     0.214 C 
HETATM    9  C   UNL     1      23.438  44.029  47.883  1.00  0.00     0.117 C 
HETATM   10  O   UNL     1      22.410  45.981  48.800  1.00  0.00    -0.274 OA
HETATM   11  H   UNL     1      25.283  44.804  49.434  1.00  0.00     0.163 HD
ENDBRANCH   6   7
BRANCH   6  12
HETATM   12  C   UNL     1      25.449  47.845  49.631  1.00  0.00    -0.035 A 
HETATM   13  C   UNL     1      24.727  48.854  48.974  1.00  0.00     0.009 A 
HETATM   14  C   UNL     1      25.378  49.940  48.380  1.00  0.00     0.001 A 
HETATM   15  C   UNL     1      26.764  50.042  48.439  1.00  0.00     0.000 A 
HETATM   16  C   UNL     1      27.500  49.060  49.094  1.00  0.00     0.001 A 
HETATM   17  C   UNL     1      26.849  47.976  49.690  1.00  0.00     0.009 A 
ENDBRANCH   6  12
ENDBRANCH   5   6
ENDBRANCH   1   5
BRANCH   2  18
HETATM   18  C   UNL     1      28.127  44.570  53.557  1.00  0.00     0.035 A 
HETATM   19  C   UNL     1      28.807  44.863  54.743  1.00  0.00     0.042 A 
HETATM   20  C   UNL     1      29.937  44.121  55.130  1.00  0.00    -0.021 A 
HETATM   21  C   UNL     1      30.398  43.103  54.286  1.00  0.00     0.012 A 
HETATM   22  C   UNL     1      29.731  42.813  53.095  1.00  0.00     0.003 A 
HETATM   23  C   UNL     1      28.592  43.533  52.743  1.00  0.00     0.029 A 
BRANCH  20  24
HETATM   24  C   UNL     1      30.593  44.361  56.406  1.00  0.00     0.010 A 
HETATM   25  C   UNL     1      31.616  43.639  57.069  1.00  0.00     0.152 A 
HETATM   26  N   UNL     1      31.947  44.170  58.249  1.00  0.00    -0.187 NA
HETATM   27  N   UNL     1      31.133  45.232  58.351  1.00  0.00    -0.289 N 
HETATM   28  H   UNL     1      31.191  45.806  59.186  1.00  0.00     0.188 HD
HETATM   29  C   UNL     1      30.310  45.393  57.276  1.00  0.00     0.123 A 
ENDBRANCH  20  24
ENDBRANCH   2  18
TORSDOF 6
ENDMDL
MODEL 3
REMARK VINA RESULT:      -8.7      2.158      3.184
REMARK  6 active torsions:
REMARK  status: ('A' for Active; 'I' for Inactive)
REMARK       I    between atoms: C_2  and  N_3 
REMARK    1  A    between atoms: N_3  and  C_4 
REMARK    2  A    between atoms: C_4  and  C_5 
REMARK    3  A    between atoms: C_4  and  C_11 
REMARK    4  A    between atoms: C_11  and  C_12 
REMARK       I    between atoms: C_12  and  N_13 
REMARK    5  A    between atoms: N_13  and  C_14 
REMARK    6  A    between atoms: C_16  and  C_17 
ROOT
HETATM    1  C   UNL     1      26.429  45.875  53.832  1.00  0.00     0.224 C 
HETATM    2  N   UNL     1      26.574  46.046  52.478  1.00  0.00    -0.327 N 
HETATM    3  O   UNL     1      25.376  45.614  54.414  1.00  0.00    -0.273 OA
HETATM    4  H   UNL     1      27.529  46.132  52.120  1.00  0.00     0.169 HD
ENDROOT
BRANCH   1   5
HETATM    5  C   UNL     1      27.689  46.107  54.651  1.00  0.00     0.133 C 
BRANCH   5   6
HETATM    6  C   UNL     1      28.735  44.981  54.765  1.00  0.00     0.126 C 
BRANCH   6   7
HETATM    7  N   UNL     1      28.198  43.670  54.377  1.00  0.00    -0.352 N 
HETATM    8  C   UNL     1      28.625  42.925  53.308  1.00  0.00     0.214 C 
HETATM    9  C   UNL     1      27.978  41.574  53.179  1.00  0.00     0.117 C 
HETATM   10  O   UNL     1      29.469  43.316  52.509  1.00  0.00    -0.274 OA
HETATM   11  H   UNL     1      27.441  43.307  54.943  1.00  0.00     0.163 HD
ENDBRANCH   6   7
BRANCH   6  12
HETATM   12  C   UNL     1      29.647  44.975  55.982  1.00  0.00    -0.035 A 
HETATM   13  C   UNL     1      29.518  45.891  57.038  1.00  0.00     0.009 A 
HETATM   14  C   UNL     1      30.356  45.831  58.156  1.00  0.00     0.001 A 
HETATM   15  C   UNL     1      31.336  44.848  58.242  1.00  0.00     0.000 A 
HETATM   16  C   UNL     1      31.477  43.923  57.214  1.00  0.00     0.001 A 
HETATM   17  C   UNL     1      30.637  43.981  56.098  1.00  0.00     0.009 A 
ENDBRANCH   6  12
ENDBRANCH   5   6
ENDBRANCH   1   5
BRANCH   2  18
HETATM   18  C   UNL     1      25.561  46.095  51.501  1.00  0.00     0.035 A 
HETATM   19  C   UNL     1      25.254  47.240  50.760  1.00  0.00     0.042 A 
HETATM   20  C   UNL     1      24.287  47.203  49.740  1.00  0.00    -0.021 A 
HETATM   21  C   UNL     1      23.602  46.004  49.502  1.00  0.00     0.012 A 
HETATM   22  C   UNL     1      23.894  44.861  50.246  1.00  0.00     0.003 A 
HETATM   23  C   UNL     1      24.881  44.904  51.229  1.00  0.00     0.029 A 
BRANCH  20  24
HETATM   24  C   UNL     1      24.029  48.366  48.904  1.00  0.00     0.010 A 
HETATM   25  C   UNL     1      24.907  49.361  48.409  1.00  0.00     0.152 A 
HETATM   26  N   UNL     1      24.283  50.290  47.680  1.00  0.00    -0.187 NA
HETATM   27  N   UNL     1      22.999  49.898  47.710  1.00  0.00    -0.289 N 
HETATM   28  H   UNL     1      22.311  50.462  47.221  1.00  0.00     0.188 HD
HETATM   29  C   UNL     1      22.796  48.753  48.423  1.00  0.00     0.123 A 
ENDBRANCH  20  24
ENDBRANCH   2  18
TORSDOF 6
ENDMDL
MODEL 4
REMARK VINA RESULT:      -8.6      2.467      4.245
REMARK  6 active torsions:
REMARK  status: ('A' for Active; 'I' for Inactive)
REMARK       I    between atoms: C_2  and  N_3 
REMARK    1  A    between atoms: N_3  and  C_4 
REMARK    2  A    between atoms: C_4  and  C_5 
REMARK    3  A    between atoms: C_4  and  C_11 
REMARK    4  A    between atoms: C_11  and  C_12 
REMARK       I    between atoms: C_12  and  N_13 
REMARK    5  A    between atoms: N_13  and  C_14 
REMARK    6  A    between atoms: C_16  and  C_17 
ROOT
HETATM    1  C   UNL     1      26.653  46.396  53.894  1.00  0.00     0.224 C 
HETATM    2  N   UNL     1      26.745  46.102  52.557  1.00  0.00    -0.327 N 
HETATM    3  O   UNL     1      25.615  46.661  54.502  1.00  0.00    -0.273 OA
HETATM    4  H   UNL     1      27.653  45.777  52.214  1.00  0.00     0.169 HD
ENDROOT
BRANCH   1   5
HETATM    5  C   UNL     1      27.980  46.461  54.633  1.00  0.00     0.133 C 
BRANCH   5   6
HETATM    6  C   UNL     1      28.509  45.202  55.349  1.00  0.00     0.126 C 
BRANCH   6   7
HETATM    7  N   UNL     1      29.617  45.496  56.267  1.00  0.00    -0.352 N 
HETATM    8  C   UNL     1      29.480  45.935  57.558  1.00  0.00     0.214 C 
HETATM    9  C   UNL     1      30.768  46.074  58.320  1.00  0.00     0.117 C 
HETATM   10  O   UNL     1      28.396  46.197  58.068  1.00  0.00    -0.274 OA
HETATM   11  H   UNL     1      30.552  45.378  55.896  1.00  0.00     0.163 HD
ENDBRANCH   6   7
BRANCH   6  12
HETATM   12  C   UNL     1      28.662  43.928  54.532  1.00  0.00    -0.035 A 
HETATM   13  C   UNL     1      27.599  43.043  54.290  1.00  0.00     0.009 A 
HETATM   14  C   UNL     1      27.773  41.899  53.505  1.00  0.00     0.001 A 
HETATM   15  C   UNL     1      29.013  41.622  52.940  1.00  0.00     0.000 A 
HETATM   16  C   UNL     1      30.079  42.489  53.155  1.00  0.00     0.001 A 
HETATM   17  C   UNL     1      29.904  43.634  53.937  1.00  0.00     0.009 A 
ENDBRANCH   6  12
ENDBRANCH   5   6
ENDBRANCH   1   5
BRANCH   2  18
HETATM   18  C   UNL     1      25.726  46.168  51.587  1.00  0.00     0.035 A 
HETATM   19  C   UNL     1      25.445  47.314  50.835  1.00  0.00     0.042 A 
HETATM   20  C   UNL     1      24.470  47.292  49.823  1.00  0.00    -0.021 A 
HETATM   21  C   UNL     1      23.751  46.110  49.603  1.00  0.00     0.012 A 
HETATM   22  C   UNL     1      24.017  44.967  50.356  1.00  0.00     0.003 A 
HETATM   23  C   UNL     1      25.012  44.993  51.332  1.00  0.00     0.029 A 
BRANCH  20  24
HETATM   24  C   UNL     1      24.237  48.453  48.977  1.00  0.00     0.010 A 
HETATM   25  C   UNL     1      25.123  49.464  48.531  1.00  0.00     0.152 A 
HETATM   26  N   UNL     1      24.523  50.385  47.772  1.00  0.00    -0.187 NA
HETATM   27  N   UNL     1      23.247  49.972  47.733  1.00  0.00    -0.289 N 
HETATM   28  H   UNL     1      22.576  50.525  47.210  1.00  0.00     0.188 HD
HETATM   29  C   UNL     1      23.025  48.821  48.432  1.00  0.00     0.123 A 
ENDBRANCH  20  24
ENDBRANCH   2  18
TORSDOF 6
ENDMDL
MODEL 5
REMARK VINA RESULT:      -8.5      2.935      8.511
REMARK  6 active torsions:
REMARK  status: ('A' for Active; 'I' for Inactive)
REMARK       I    between atoms: C_2  and  N_3 
REMARK    1  A    between atoms: N_3  and  C_4 
REMARK    2  A    between atoms: C_4  and  C_5 
REMARK    3  A    between atoms: C_4  and  C_11 
REMARK    4  A    between atoms: C_11  and  C_12 
REMARK       I    between atoms: C_12  and  N_13 
REMARK    5  A    between atoms: N_13  and  C_14 
REMARK    6  A    between atoms: C_16  and  C_17 
ROOT
HETATM    1  C   UNL     1      25.801  44.535  53.472  1.00  0.00     0.224 C 
HETATM    2  N   UNL     1      27.066  44.795  53.007  1.00  0.00    -0.327 N 
HETATM    3  O   UNL     1      25.527  43.906  54.495  1.00  0.00    -0.273 OA
HETATM    4  H   UNL     1      27.147  45.437  52.215  1.00  0.00     0.169 HD
ENDROOT
BRANCH   1   5
HETATM    5  C   UNL     1      24.673  45.022  52.577  1.00  0.00     0.133 C 
BRANCH   5   6
HETATM    6  C   UNL     1      24.867  45.023  51.048  1.00  0.00     0.126 C 
BRANCH   6   7
HETATM    7  N   UNL     1      24.136  46.112  50.386  1.00  0.00    -0.352 N 
HETATM    8  C   UNL     1      24.590  47.398  50.245  1.00  0.00     0.214 C 
HETATM    9  C   UNL     1      23.694  48.302  49.445  1.00  0.00     0.117 C 
HETATM   10  O   UNL     1      25.644  47.797  50.728  1.00  0.00    -0.274 OA
HETATM   11  H   UNL     1      23.219  45.884  50.024  1.00  0.00     0.163 HD
ENDBRANCH   6   7
BRANCH   6  12
HETATM   12  C   UNL     1      24.836  43.685  50.325  1.00  0.00    -0.035 A 
HETATM   13  C   UNL     1      25.907  42.777  50.352  1.00  0.00     0.009 A 
HETATM   14  C   UNL     1      25.826  41.542  49.701  1.00  0.00     0.001 A 
HETATM   15  C   UNL     1      24.670  41.188  49.016  1.00  0.00     0.000 A 
HETATM   16  C   UNL     1      23.591  42.066  48.982  1.00  0.00     0.001 A 
HETATM   17  C   UNL     1      23.671  43.299  49.636  1.00  0.00     0.009 A 
ENDBRANCH   6  12
ENDBRANCH   5   6
ENDBRANCH   1   5
BRANCH   2  18
HETATM   18  C   UNL     1      28.287  44.300  53.505  1.00  0.00     0.035 A 
HETATM   19  C   UNL     1      28.853  44.709  54.717  1.00  0.00     0.042 A 
HETATM   20  C   UNL     1      30.032  44.116  55.200  1.00  0.00    -0.021 A 
HETATM   21  C   UNL     1      30.659  43.130  54.427  1.00  0.00     0.012 A 
HETATM   22  C   UNL     1      30.107  42.725  53.212  1.00  0.00     0.003 A 
HETATM   23  C   UNL     1      28.918  43.296  52.763  1.00  0.00     0.029 A 
BRANCH  20  24
HETATM   24  C   UNL     1      30.575  44.473  56.503  1.00  0.00     0.010 A 
HETATM   25  C   UNL     1      31.533  43.819  57.315  1.00  0.00     0.152 A 
HETATM   26  N   UNL     1      31.761  44.455  58.467  1.00  0.00    -0.187 NA
HETATM   27  N   UNL     1      30.944  45.518  58.401  1.00  0.00    -0.289 N 
HETATM   28  H   UNL     1      30.931  46.165  59.183  1.00  0.00     0.188 HD
HETATM   29  C   UNL     1      30.219  45.577  57.247  1.00  0.00     0.123 A 
ENDBRANCH  20  24
ENDBRANCH   2  18
TORSDOF 6
ENDMDL
MODEL 6
REMARK VINA RESULT:      -8.5      1.218      1.494
REMARK  6 active torsions:
REMARK  status: ('A' for Active; 'I' for Inactive)
REMARK       I    between atoms: C_2  and  N_3 
REMARK    1  A    between atoms: N_3  and  C_4 
REMARK    2  A    between atoms: C_4  and  C_5 
REMARK    3  A    between atoms: C_4  and  C_11 
REMARK    4  A    between atoms: C_11  and  C_12 
REMARK       I    between atoms: C_12  and  N_13 
REMARK    5  A    between atoms: N_13  and  C_14 
REMARK    6  A    between atoms: C_16  and  C_17 
ROOT
HETATM    1  C   UNL     1      26.176  45.534  50.422  1.00  0.00     0.224 C 
HETATM    2  N   UNL     1      26.198  46.883  50.672  1.00  0.00    -0.327 N 
HETATM    3  O   UNL     1      25.986  45.010  49.323  1.00  0.00    -0.273 OA
HETATM    4  H   UNL     1      26.493  47.178  51.606  1.00  0.00     0.169 HD
ENDROOT
BRANCH   1   5
HETATM    5  C   UNL     1      26.333  44.648  51.647  1.00  0.00     0.133 C 
BRANCH   5   6
HETATM    6  C   UNL     1      27.423  43.557  51.656  1.00  0.00     0.126 C 
BRANCH   6   7
HETATM    7  N   UNL     1      26.895  42.229  51.318  1.00  0.00    -0.352 N 
HETATM    8  C   UNL     1      26.961  41.644  50.080  1.00  0.00     0.214 C 
HETATM    9  C   UNL     1      26.431  40.238  50.014  1.00  0.00     0.117 C 
HETATM   10  O   UNL     1      27.415  42.209  49.091  1.00  0.00    -0.274 OA
HETATM   11  H   UNL     1      26.434  41.724  52.064  1.00  0.00     0.163 HD
ENDBRANCH   6   7
BRANCH   6  12
HETATM   12  C   UNL     1      28.449  43.583  52.779  1.00  0.00    -0.035 A 
HETATM   13  C   UNL     1      28.310  44.387  53.922  1.00  0.00     0.009 A 
HETATM   14  C   UNL     1      29.259  44.356  54.948  1.00  0.00     0.001 A 
HETATM   15  C   UNL     1      30.362  43.515  54.855  1.00  0.00     0.000 A 
HETATM   16  C   UNL     1      30.516  42.700  53.738  1.00  0.00     0.001 A 
HETATM   17  C   UNL     1      29.566  42.729  52.714  1.00  0.00     0.009 A 
ENDBRANCH   6  12
ENDBRANCH   5   6
ENDBRANCH   1   5
BRANCH   2  18
HETATM   18  C   UNL     1      25.882  47.930  49.784  1.00  0.00     0.035 A 
HETATM   19  C   UNL     1      24.574  48.305  49.462  1.00  0.00     0.042 A 
HETATM   20  C   UNL     1      24.323  49.413  48.634  1.00  0.00    -0.021 A 
HETATM   21  C   UNL     1      25.410  50.117  48.099  1.00  0.00     0.012 A 
HETATM   22  C   UNL     1      26.718  49.741  48.406  1.00  0.00     0.003 A 
HETATM   23  C   UNL     1      26.950  48.663  49.258  1.00  0.00     0.029 A 
BRANCH  20  24
HETATM   24  C   UNL     1      22.965  49.864  48.370  1.00  0.00     0.010 A 
HETATM   25  C   UNL     1      21.863  49.189  47.790  1.00  0.00     0.152 A 
HETATM   26  N   UNL     1      20.772  49.953  47.699  1.00  0.00    -0.187 NA
HETATM   27  N   UNL     1      21.171  51.126  48.216  1.00  0.00    -0.289 N 
HETATM   28  H   UNL     1      20.504  51.890  48.251  1.00  0.00     0.188 HD
HETATM   29  C   UNL     1      22.469  51.123  48.635  1.00  0.00     0.123 A 
ENDBRANCH  20  24
ENDBRANCH   2  18
TORSDOF 6
ENDMDL
MODEL 7
REMARK VINA RESULT:      -8.3      3.311      4.542
REMARK  6 active torsions:
REMARK  status: ('A' for Active; 'I' for Inactive)
REMARK       I    between atoms: C_2  and  N_3 
REMARK    1  A    between atoms: N_3  and  C_4 
REMARK    2  A    between atoms: C_4  and  C_5 
REMARK    3  A    between atoms: C_4  and  C_11 
REMARK    4  A    between atoms: C_11  and  C_12 
REMARK       I    between atoms: C_12  and  N_13 
REMARK    5  A    between atoms: N_13  and  C_14 
REMARK    6  A    between atoms: C_16  and  C_17 
ROOT
HETATM    1  C   UNL     1      26.500  45.555  53.904  1.00  0.00     0.224 C 
HETATM    2  N   UNL     1      26.753  45.749  52.569  1.00  0.00    -0.327 N 
HETATM    3  O   UNL     1      25.399  45.305  54.397  1.00  0.00    -0.273 OA
HETATM    4  H   UNL     1      27.734  45.822  52.288  1.00  0.00     0.169 HD
ENDROOT
BRANCH   1   5
HETATM    5  C   UNL     1      27.697  45.744  54.822  1.00  0.00     0.133 C 
BRANCH   5   6
HETATM    6  C   UNL     1      28.821  44.689  54.826  1.00  0.00     0.126 C 
BRANCH   6   7
HETATM    7  N   UNL     1      28.350  43.360  54.414  1.00  0.00    -0.352 N 
HETATM    8  C   UNL     1      28.520  42.811  53.170  1.00  0.00     0.214 C 
HETATM    9  C   UNL     1      28.028  41.397  53.029  1.00  0.00     0.117 C 
HETATM   10  O   UNL     1      29.033  43.412  52.233  1.00  0.00    -0.274 OA
HETATM   11  H   UNL     1      27.846  42.826  55.111  1.00  0.00     0.163 HD
ENDBRANCH   6   7
BRANCH   6  12
HETATM   12  C   UNL     1      29.806  44.700  55.985  1.00  0.00    -0.035 A 
HETATM   13  C   UNL     1      29.755  45.647  57.021  1.00  0.00     0.009 A 
HETATM   14  C   UNL     1      30.659  45.602  58.087  1.00  0.00     0.001 A 
HETATM   15  C   UNL     1      31.627  44.605  58.141  1.00  0.00     0.000 A 
HETATM   16  C   UNL     1      31.690  43.650  57.132  1.00  0.00     0.001 A 
HETATM   17  C   UNL     1      30.785  43.692  56.069  1.00  0.00     0.009 A 
ENDBRANCH   6  12
ENDBRANCH   5   6
ENDBRANCH   1   5
BRANCH   2  18
HETATM   18  C   UNL     1      25.819  45.840  51.518  1.00  0.00     0.035 A 
HETATM   19  C   UNL     1      25.263  44.728  50.877  1.00  0.00     0.042 A 
HETATM   20  C   UNL     1      24.274  44.883  49.891  1.00  0.00    -0.021 A 
HETATM   21  C   UNL     1      23.878  46.177  49.529  1.00  0.00     0.012 A 
HETATM   22  C   UNL     1      24.437  47.291  50.155  1.00  0.00     0.003 A 
HETATM   23  C   UNL     1      25.391  47.121  51.156  1.00  0.00     0.029 A 
BRANCH  20  24
HETATM   24  C   UNL     1      23.625  43.728  49.287  1.00  0.00     0.010 A 
HETATM   25  C   UNL     1      22.526  43.645  48.398  1.00  0.00     0.152 A 
HETATM   26  N   UNL     1      22.209  42.389  48.077  1.00  0.00    -0.187 NA
HETATM   27  N   UNL     1      23.102  41.658  48.764  1.00  0.00    -0.289 N 
HETATM   28  H   UNL     1      23.059  40.647  48.688  1.00  0.00     0.188 HD
HETATM   29  C   UNL     1      23.972  42.410  49.498  1.00  0.00     0.123 A 
ENDBRANCH  20  24
ENDBRANCH   2  18
TORSDOF 6
ENDMDL
MODEL 8
REMARK VINA RESULT:      -8.1      4.608      7.567
REMARK  6 active torsions:
REMARK  status: ('A' for Active; 'I' for Inactive)
REMARK       I    between atoms: C_2  and  N_3 
REMARK    1  A    between atoms: N_3  and  C_4 
REMARK    2  A    between atoms: C_4  and  C_5 
REMARK    3  A    between atoms: C_4  and  C_11 
REMARK    4  A    between atoms: C_11  and  C_12 
REMARK       I    between atoms: C_12  and  N_13 
REMARK    5  A    between atoms: N_13  and  C_14 
REMARK    6  A    between atoms: C_16  and  C_17 
ROOT
HETATM    1  C   UNL     1      28.090  40.839  51.597  1.00  0.00     0.224 C 
HETATM    2  N   UNL     1      28.976  40.230  50.744  1.00  0.00    -0.327 N 
HETATM    3  O   UNL     1      26.865  40.858  51.467  1.00  0.00    -0.273 OA
HETATM    4  H   UNL     1      29.953  40.185  51.044  1.00  0.00     0.169 HD
ENDROOT
BRANCH   1   5
HETATM    5  C   UNL     1      28.724  41.606  52.746  1.00  0.00     0.133 C 
BRANCH   5   6
HETATM    6  C   UNL     1      28.328  43.077  52.983  1.00  0.00     0.126 C 
BRANCH   6   7
HETATM    7  N   UNL     1      28.148  43.823  51.731  1.00  0.00    -0.352 N 
HETATM    8  C   UNL     1      26.959  44.335  51.279  1.00  0.00     0.214 C 
HETATM    9  C   UNL     1      27.057  45.140  50.012  1.00  0.00     0.117 C 
HETATM   10  O   UNL     1      25.889  44.160  51.851  1.00  0.00    -0.274 OA
HETATM   11  H   UNL     1      28.973  43.946  51.158  1.00  0.00     0.163 HD
ENDBRANCH   6   7
BRANCH   6  12
HETATM   12  C   UNL     1      29.034  43.836  54.096  1.00  0.00    -0.035 A 
HETATM   13  C   UNL     1      28.559  45.053  54.611  1.00  0.00     0.009 A 
HETATM   14  C   UNL     1      29.219  45.703  55.659  1.00  0.00     0.001 A 
HETATM   15  C   UNL     1      30.364  45.144  56.217  1.00  0.00     0.000 A 
HETATM   16  C   UNL     1      30.848  43.933  55.731  1.00  0.00     0.001 A 
HETATM   17  C   UNL     1      30.186  43.282  54.687  1.00  0.00     0.009 A 
ENDBRANCH   6  12
ENDBRANCH   5   6
ENDBRANCH   1   5
BRANCH   2  18
HETATM   18  C   UNL     1      28.702  39.628  49.501  1.00  0.00     0.035 A 
HETATM   19  C   UNL     1      28.139  40.308  48.417  1.00  0.00     0.042 A 
HETATM   20  C   UNL     1      27.966  39.673  47.175  1.00  0.00    -0.021 A 
HETATM   21  C   UNL     1      28.333  38.327  47.049  1.00  0.00     0.012 A 
HETATM   22  C   UNL     1      28.884  37.637  48.129  1.00  0.00     0.003 A 
HETATM   23  C   UNL     1      29.082  38.291  49.343  1.00  0.00     0.029 A 
BRANCH  20  24
HETATM   24  C   UNL     1      27.467  40.402  46.019  1.00  0.00     0.010 A 
HETATM   25  C   UNL     1      28.127  40.838  44.845  1.00  0.00     0.152 A 
HETATM   26  N   UNL     1      27.324  41.502  44.010  1.00  0.00    -0.187 NA
HETATM   27  N   UNL     1      26.143  41.501  44.649  1.00  0.00    -0.289 N 
HETATM   28  H   UNL     1      25.355  41.963  44.208  1.00  0.00     0.188 HD
HETATM   29  C   UNL     1      26.175  40.853  45.850  1.00  0.00     0.123 A 
ENDBRANCH  20  24
ENDBRANCH   2  18
TORSDOF 6
ENDMDL
MODEL 9
REMARK VINA RESULT:      -8.1      3.126      5.298
REMARK  6 active torsions:
REMARK  status: ('A' for Active; 'I' for Inactive)
REMARK       I    between atoms: C_2  and  N_3 
REMARK    1  A    between atoms: N_3  and  C_4 
REMARK    2  A    between atoms: C_4  and  C_5 
REMARK    3  A    between atoms: C_4  and  C_11 
REMARK    4  A    between atoms: C_11  and  C_12 
REMARK       I    between atoms: C_12  and  N_13 
REMARK    5  A    between atoms: N_13  and  C_14 
REMARK    6  A    between atoms: C_16  and  C_17 
ROOT
HETATM    1  C   UNL     1      22.949  47.188  48.735  1.00  0.00     0.224 C 
HETATM    2  N   UNL     1      22.490  48.291  49.410  1.00  0.00    -0.327 N 
HETATM    3  O   UNL     1      22.569  46.817  47.623  1.00  0.00    -0.273 OA
HETATM    4  H   UNL     1      22.985  48.550  50.267  1.00  0.00     0.169 HD
ENDROOT
BRANCH   1   5
HETATM    5  C   UNL     1      23.958  46.340  49.493  1.00  0.00     0.133 C 
BRANCH   5   6
HETATM    6  C   UNL     1      24.913  47.019  50.494  1.00  0.00     0.126 C 
BRANCH   6   7
HETATM    7  N   UNL     1      26.108  47.577  49.846  1.00  0.00    -0.352 N 
HETATM    8  C   UNL     1      26.201  48.833  49.306  1.00  0.00     0.214 C 
HETATM    9  C   UNL     1      27.562  49.199  48.784  1.00  0.00     0.117 C 
HETATM   10  O   UNL     1      25.255  49.611  49.244  1.00  0.00    -0.274 OA
HETATM   11  H   UNL     1      26.914  46.967  49.786  1.00  0.00     0.163 HD
ENDBRANCH   6   7
BRANCH   6  12
HETATM   12  C   UNL     1      25.160  46.327  51.827  1.00  0.00    -0.035 A 
HETATM   13  C   UNL     1      24.930  44.957  52.030  1.00  0.00     0.009 A 
HETATM   14  C   UNL     1      25.201  44.352  53.261  1.00  0.00     0.001 A 
HETATM   15  C   UNL     1      25.715  45.106  54.311  1.00  0.00     0.000 A 
HETATM   16  C   UNL     1      25.961  46.463  54.131  1.00  0.00     0.001 A 
HETATM   17  C   UNL     1      25.693  47.066  52.900  1.00  0.00     0.009 A 
ENDBRANCH   6  12
ENDBRANCH   5   6
ENDBRANCH   1   5
BRANCH   2  18
HETATM   18  C   UNL     1      21.423  49.139  49.053  1.00  0.00     0.035 A 
HETATM   19  C   UNL     1      20.113  48.693  48.853  1.00  0.00     0.042 A 
HETATM   20  C   UNL     1      19.075  49.601  48.581  1.00  0.00    -0.021 A 
HETATM   21  C   UNL     1      19.380  50.964  48.473  1.00  0.00     0.012 A 
HETATM   22  C   UNL     1      20.687  51.415  48.659  1.00  0.00     0.003 A 
HETATM   23  C   UNL     1      21.699  50.507  48.964  1.00  0.00     0.029 A 
BRANCH  20  24
HETATM   24  C   UNL     1      17.695  49.153  48.463  1.00  0.00     0.010 A 
HETATM   25  C   UNL     1      17.127  47.863  48.596  1.00  0.00     0.152 A 
HETATM   26  N   UNL     1      15.807  47.851  48.396  1.00  0.00    -0.187 NA
HETATM   27  N   UNL     1      15.522  49.135  48.127  1.00  0.00    -0.289 N 
HETATM   28  H   UNL     1      14.559  49.384  47.928  1.00  0.00     0.188 HD
HETATM   29  C   UNL     1      16.613  49.953  48.159  1.00  0.00     0.123 A 
ENDBRANCH  20  24
ENDBRANCH   2  18
TORSDOF 6
ENDMDL
MODEL 10
REMARK VINA RESULT:      -8.0      4.975      8.038
REMARK  6 active torsions:
REMARK  status: ('A' for Active; 'I' for Inactive)
REMARK       I    between atoms: C_2  and  N_3 
REMARK    1  A    between atoms: N_3  and  C_4 
REMARK    2  A    between atoms: C_4  and  C_5 
REMARK    3  A    between atoms: C_4  and  C_11 
REMARK    4  A    between atoms: C_11  and  C_12 
REMARK       I    between atoms: C_12  and  N_13 
REMARK    5  A    between atoms: N_13  and  C_14 
REMARK    6  A    between atoms: C_16  and  C_17 
ROOT
HETATM    1  C   UNL     1      28.446  43.159  52.045  1.00  0.00     0.224 C 
HETATM    2  N   UNL     1      28.155  41.837  51.817  1.00  0.00    -0.327 N 
HETATM    3  O   UNL     1      28.052  44.109  51.366  1.00  0.00    -0.273 OA
HETATM    4  H   UNL     1      28.444  41.167  52.534  1.00  0.00     0.169 HD
ENDROOT
BRANCH   1   5
HETATM    5  C   UNL     1      29.396  43.420  53.203  1.00  0.00     0.133 C 
BRANCH   5   6
HETATM    6  C   UNL     1      28.871  44.132  54.465  1.00  0.00     0.126 C 
BRANCH   6   7
HETATM    7  N   UNL     1      28.076  45.327  54.151  1.00  0.00    -0.352 N 
HETATM    8  C   UNL     1      26.717  45.432  54.295  1.00  0.00     0.214 C 
HETATM    9  C   UNL     1      26.151  46.793  53.994  1.00  0.00     0.117 C 
HETATM   10  O   UNL     1      26.001  44.499  54.642  1.00  0.00    -0.274 OA
HETATM   11  H   UNL     1      28.583  46.122  53.785  1.00  0.00     0.163 HD
ENDBRANCH   6   7
BRANCH   6  12
HETATM   12  C   UNL     1      29.815  44.273  55.650  1.00  0.00    -0.035 A 
HETATM   13  C   UNL     1      29.738  45.334  56.566  1.00  0.00     0.009 A 
HETATM   14  C   UNL     1      30.604  45.409  57.662  1.00  0.00     0.001 A 
HETATM   15  C   UNL     1      31.558  44.419  57.867  1.00  0.00     0.000 A 
HETATM   16  C   UNL     1      31.647  43.351  56.980  1.00  0.00     0.001 A 
HETATM   17  C   UNL     1      30.780  43.275  55.886  1.00  0.00     0.009 A 
ENDBRANCH   6  12
ENDBRANCH   5   6
ENDBRANCH   1   5
BRANCH   2  18
HETATM   18  C   UNL     1      27.479  41.280  50.714  1.00  0.00     0.035 A 
HETATM   19  C   UNL     1      28.086  40.439  49.777  1.00  0.00     0.042 A 
HETATM   20  C   UNL     1      27.337  39.848  48.745  1.00  0.00    -0.021 A 
HETATM   21  C   UNL     1      25.972  40.148  48.643  1.00  0.00     0.012 A 
HETATM   22  C   UNL     1      25.362  40.996  49.567  1.00  0.00     0.003 A 
HETATM   23  C   UNL     1      26.110  41.545  50.607  1.00  0.00     0.029 A 
BRANCH  20  24
HETATM   24  C   UNL     1      27.943  38.899  47.822  1.00  0.00     0.010 A 
HETATM   25  C   UNL     1      27.887  38.818  46.410  1.00  0.00     0.152 A 
HETATM   26  N   UNL     1      28.569  37.781  45.919  1.00  0.00    -0.187 NA
HETATM   27  N   UNL     1      29.062  37.186  47.017  1.00  0.00    -0.289 N 
HETATM   28  H   UNL     1      29.624  36.349  46.902  1.00  0.00     0.188 HD
HETATM   29  C   UNL     1      28.722  37.818  48.177  1.00  0.00     0.123 A 
ENDBRANCH  20  24
ENDBRANCH   2  18
TORSDOF 6
ENDMDL
