MODEL 1
REMARK VINA RESULT:      -9.1      0.000      0.000
REMARK  6 active torsions:
REMARK  status: ('A' for Active; 'I' for Inactive)
REMARK    1  A    between atoms: C_4  and  C_5 
REMARK    2  A    between atoms: C_5  and  N_6 
REMARK    3  A    between atoms: C_5  and  C_20 
REMARK       I    between atoms: N_6  and  C_7 
REMARK    4  A    between atoms: C_7  and  C_8 
REMARK    5  A    between atoms: C_8  and  N_9 
REMARK    6  A    between atoms: C_21  and  O_22 
ROOT
HETATM    1  C   UNL     1      25.308  46.384  50.628  1.00  0.00     0.154 C 
ENDROOT
BRANCH   1   2
HETATM    2  C   UNL     1      25.814  47.609  49.859  1.00  0.00    -0.031 A 
HETATM    3  C   UNL     1      24.854  48.451  49.256  1.00  0.00     0.009 A 
HETATM    4  C   UNL     1      25.231  49.587  48.539  1.00  0.00     0.001 A 
HETATM    5  C   UNL     1      26.578  49.910  48.409  1.00  0.00     0.000 A 
HETATM    6  C   UNL     1      27.543  49.095  48.992  1.00  0.00     0.001 A 
HETATM    7  C   UNL     1      27.166  47.952  49.707  1.00  0.00     0.009 A 
ENDBRANCH   1   2
BRANCH   1   8
HETATM    8  N   UNL     1      24.417  45.499  49.902  1.00  0.00    -0.347 N 
HETATM    9  C   UNL     1      23.675  44.537  50.558  1.00  0.00     0.236 C 
HETATM   10  O   UNL     1      23.708  44.380  51.779  1.00  0.00    -0.272 OA
HETATM   11  H   UNL     1      24.079  45.786  48.986  1.00  0.00     0.163 HD
BRANCH   9  12
HETATM   12  C   UNL     1      22.847  43.647  49.627  1.00  0.00     0.236 C 
BRANCH  12  13
HETATM   13  N   UNL     1      23.670  42.829  48.770  1.00  0.00    -0.289 N 
HETATM   14  C   UNL     1      23.812  43.030  47.384  1.00  0.00     0.328 A 
HETATM   15  O   UNL     1      23.166  43.799  46.689  1.00  0.00    -0.247 OA
HETATM   16  N   UNL     1      24.849  42.198  46.954  1.00  0.00    -0.306 N 
HETATM   17  C   UNL     1      25.398  41.559  48.061  1.00  0.00     0.063 A 
HETATM   18  H   UNL     1      25.177  42.148  46.003  1.00  0.00     0.171 HD
HETATM   19  C   UNL     1      24.681  41.952  49.194  1.00  0.00     0.066 A 
HETATM   20  C   UNL     1      26.485  40.718  48.121  1.00  0.00     0.032 A 
HETATM   21  C   UNL     1      25.036  41.511  50.450  1.00  0.00     0.032 A 
HETATM   22  C   UNL     1      26.145  40.659  50.540  1.00  0.00     0.002 A 
HETATM   23  C   UNL     1      26.860  40.266  49.389  1.00  0.00     0.002 A 
ENDBRANCH  12  13
ENDBRANCH   9  12
ENDBRANCH   1   8
BRANCH   1  24
HETATM   24  C   UNL     1      26.429  45.589  51.312  1.00  0.00     0.013 C 
HETATM   25  C   UNL     1      27.088  44.588  50.572  1.00  0.00     0.075 C 
HETATM   26  C   UNL     1      27.980  43.702  51.159  1.00  0.00     0.038 C 
HETATM   27  C   UNL     1      28.293  43.841  52.505  1.00  0.00     0.015 C 
HETATM   28  C   UNL     1      27.752  44.886  53.261  1.00  0.00    -0.025 A 
HETATM   29  C   UNL     1      26.819  45.788  52.675  1.00  0.00    -0.015 A 
HETATM   30  C   UNL     1      28.147  45.042  54.601  1.00  0.00     0.012 A 
HETATM   31  C   UNL     1      26.362  46.845  53.496  1.00  0.00     0.013 A 
HETATM   32  C   UNL     1      26.774  46.998  54.822  1.00  0.00     0.001 A 
HETATM   33  C   UNL     1      27.662  46.091  55.378  1.00  0.00     0.001 A 
BRANCH  25  34
HETATM   34  O   UNL     1      26.927  44.471  49.217  1.00  0.00    -0.360 OA
HETATM   35  H   UNL     1      26.056  44.030  49.087  1.00  0.00     0.217 HD
ENDBRANCH  25  34
ENDBRANCH   1  24
TORSDOF 6
ENDMDL
MODEL 2
REMARK VINA RESULT:      -9.0      2.537      6.728
REMARK  6 active torsions:
REMARK  status: ('A' for Active; 'I' for Inactive)
REMARK    1  A    between atoms: C_4  and  C_5 
REMARK    2  A    between atoms: C_5  and  N_6 
REMARK    3  A    between atoms: C_5  and  C_20 
REMARK       I    between atoms: N_6  and  C_7 
REMARK    4  A    between atoms: C_7  and  C_8 
REMARK    5  A    between atoms: C_8  and  N_9 
REMARK    6  A    between atoms: C_21  and  O_22 
ROOT
HETATM    1  C   UNL     1      25.113  46.783  50.728  1.00  0.00     0.154 C 
ENDROOT
BRANCH   1   2
HETATM    2  C   UNL     1      24.896  45.402  50.100  1.00  0.00    -0.031 A 
HETATM    3  C   UNL     1      23.582  44.888  50.077  1.00  0.00     0.009 A 
HETATM    4  C   UNL     1      23.299  43.638  49.523  1.00  0.00     0.001 A 
HETATM    5  C   UNL     1      24.324  42.874  48.975  1.00  0.00     0.000 A 
HETATM    6  C   UNL     1      25.629  43.359  48.987  1.00  0.00     0.001 A 
HETATM    7  C   UNL     1      25.914  44.609  49.549  1.00  0.00     0.009 A 
ENDBRANCH   1   2
BRANCH   1   8
HETATM    8  N   UNL     1      26.149  46.867  51.740  1.00  0.00    -0.347 N 
HETATM    9  C   UNL     1      26.014  46.229  52.956  1.00  0.00     0.236 C 
HETATM   10  O   UNL     1      25.032  45.547  53.251  1.00  0.00    -0.272 OA
HETATM   11  H   UNL     1      27.097  47.101  51.453  1.00  0.00     0.163 HD
BRANCH   9  12
HETATM   12  C   UNL     1      27.169  46.488  53.928  1.00  0.00     0.236 C 
BRANCH  12  13
HETATM   13  N   UNL     1      27.979  45.315  54.145  1.00  0.00    -0.289 N 
HETATM   14  C   UNL     1      28.203  44.317  53.177  1.00  0.00     0.328 A 
HETATM   15  O   UNL     1      27.643  44.211  52.098  1.00  0.00    -0.247 OA
HETATM   16  N   UNL     1      29.205  43.480  53.677  1.00  0.00    -0.306 N 
HETATM   17  C   UNL     1      29.655  43.994  54.888  1.00  0.00     0.063 A 
HETATM   18  H   UNL     1      29.575  42.685  53.182  1.00  0.00     0.171 HD
HETATM   19  C   UNL     1      28.909  45.139  55.182  1.00  0.00     0.066 A 
HETATM   20  C   UNL     1      30.681  43.547  55.687  1.00  0.00     0.032 A 
HETATM   21  C   UNL     1      29.173  45.891  56.307  1.00  0.00     0.032 A 
HETATM   22  C   UNL     1      30.218  45.461  57.134  1.00  0.00     0.002 A 
HETATM   23  C   UNL     1      30.963  44.301  56.829  1.00  0.00     0.002 A 
ENDBRANCH  12  13
ENDBRANCH   9  12
ENDBRANCH   1   8
BRANCH   1  24
HETATM   24  C   UNL     1      25.268  47.906  49.693  1.00  0.00     0.013 C 
HETATM   25  C   UNL     1      26.566  48.259  49.277  1.00  0.00     0.075 C 
HETATM   26  C   UNL     1      26.812  49.375  48.491  1.00  0.00     0.038 C 
HETATM   27  C   UNL     1      25.743  50.137  48.035  1.00  0.00     0.015 C 
HETATM   28  C   UNL     1      24.426  49.768  48.327  1.00  0.00    -0.025 A 
HETATM   29  C   UNL     1      24.163  48.637  49.150  1.00  0.00    -0.015 A 
HETATM   30  C   UNL     1      23.366  50.518  47.788  1.00  0.00     0.012 A 
HETATM   31  C   UNL     1      22.803  48.304  49.351  1.00  0.00     0.013 A 
HETATM   32  C   UNL     1      21.758  49.050  48.798  1.00  0.00     0.001 A 
HETATM   33  C   UNL     1      22.040  50.162  48.021  1.00  0.00     0.001 A 
BRANCH  25  34
HETATM   34  O   UNL     1      27.654  47.485  49.581  1.00  0.00    -0.360 OA
HETATM   35  H   UNL     1      28.425  47.922  49.150  1.00  0.00     0.217 HD
ENDBRANCH  25  34
ENDBRANCH   1  24
TORSDOF 6
ENDMDL
MODEL 3
REMARK VINA RESULT:      -8.7      2.440      6.262
REMARK  6 active torsions:
REMARK  status: ('A' for Active; 'I' for Inactive)
REMARK    1  A    between atoms: C_4  and  C_5 
REMARK    2  A    between atoms: C_5  and  N_6 
REMARK    3  A    between atoms: C_5  and  C_20 
REMARK       I    between atoms: N_6  and  C_7 
REMARK    4  A    between atoms: C_7  and  C_8 
REMARK    5  A    between atoms: C_8  and  N_9 
REMARK    6  A    between atoms: C_21  and  O_22 
ROOT
HETATM    1  C   UNL     1      24.479  45.749  50.559  1.00  0.00     0.154 C 
ENDROOT
BRANCH   1   2
HETATM    2  C   UNL     1      23.875  44.688  49.634  1.00  0.00    -0.031 A 
HETATM    3  C   UNL     1      23.692  43.388  50.153  1.00  0.00     0.009 A 
HETATM    4  C   UNL     1      23.147  42.364  49.375  1.00  0.00     0.001 A 
HETATM    5  C   UNL     1      22.770  42.617  48.061  1.00  0.00     0.000 A 
HETATM    6  C   UNL     1      22.942  43.891  47.526  1.00  0.00     0.001 A 
HETATM    7  C   UNL     1      23.494  44.915  48.302  1.00  0.00     0.009 A 
ENDBRANCH   1   2
BRANCH   1   8
HETATM    8  N   UNL     1      24.838  45.302  51.892  1.00  0.00    -0.347 N 
HETATM    9  C   UNL     1      25.212  46.201  52.871  1.00  0.00     0.236 C 
HETATM   10  O   UNL     1      25.248  47.418  52.686  1.00  0.00    -0.272 OA
HETATM   11  H   UNL     1      24.505  44.395  52.212  1.00  0.00     0.163 HD
BRANCH   9  12
HETATM   12  C   UNL     1      25.628  45.548  54.192  1.00  0.00     0.236 C 
BRANCH  12  13
HETATM   13  N   UNL     1      27.045  45.657  54.438  1.00  0.00    -0.289 N 
HETATM   14  C   UNL     1      27.654  46.750  55.084  1.00  0.00     0.328 A 
HETATM   15  O   UNL     1      27.121  47.806  55.385  1.00  0.00    -0.247 OA
HETATM   16  N   UNL     1      28.980  46.389  55.335  1.00  0.00    -0.306 N 
HETATM   17  C   UNL     1      29.170  45.071  54.933  1.00  0.00     0.063 A 
HETATM   18  H   UNL     1      29.648  46.981  55.803  1.00  0.00     0.171 HD
HETATM   19  C   UNL     1      27.972  44.604  54.386  1.00  0.00     0.066 A 
HETATM   20  C   UNL     1      30.288  44.281  55.065  1.00  0.00     0.032 A 
HETATM   21  C   UNL     1      27.849  43.303  53.947  1.00  0.00     0.032 A 
HETATM   22  C   UNL     1      28.972  42.475  54.076  1.00  0.00     0.002 A 
HETATM   23  C   UNL     1      30.178  42.959  54.628  1.00  0.00     0.002 A 
ENDBRANCH  12  13
ENDBRANCH   9  12
ENDBRANCH   1   8
BRANCH   1  24
HETATM   24  C   UNL     1      25.632  46.533  49.917  1.00  0.00     0.013 C 
HETATM   25  C   UNL     1      26.912  45.945  49.895  1.00  0.00     0.075 C 
HETATM   26  C   UNL     1      28.041  46.649  49.504  1.00  0.00     0.038 C 
HETATM   27  C   UNL     1      27.908  47.956  49.051  1.00  0.00     0.015 C 
HETATM   28  C   UNL     1      26.646  48.552  48.949  1.00  0.00    -0.025 A 
HETATM   29  C   UNL     1      25.483  47.846  49.367  1.00  0.00    -0.015 A 
HETATM   30  C   UNL     1      26.540  49.849  48.417  1.00  0.00     0.012 A 
HETATM   31  C   UNL     1      24.244  48.503  49.179  1.00  0.00     0.013 A 
HETATM   32  C   UNL     1      24.151  49.787  48.636  1.00  0.00     0.001 A 
HETATM   33  C   UNL     1      25.300  50.464  48.261  1.00  0.00     0.001 A 
BRANCH  25  34
HETATM   34  O   UNL     1      27.102  44.625  50.205  1.00  0.00    -0.360 OA
HETATM   35  H   UNL     1      26.201  44.236  50.292  1.00  0.00     0.217 HD
ENDBRANCH  25  34
ENDBRANCH   1  24
TORSDOF 6
ENDMDL
MODEL 4
REMARK VINA RESULT:      -8.7      1.668      3.047
REMARK  6 active torsions:
REMARK  status: ('A' for Active; 'I' for Inactive)
REMARK    1  A    between atoms: C_4  and  C_5 
REMARK    2  A    between atoms: C_5  and  N_6 
REMARK    3  A    between atoms: C_5  and  C_20 
REMARK       I    between atoms: N_6  and  C_7 
REMARK    4  A    between atoms: C_7  and  C_8 
REMARK    5  A    between atoms: C_8  and  N_9 
REMARK    6  A    between atoms: C_21  and  O_22 
ROOT
HETATM    1  C   UNL     1      25.128  46.499  50.498  1.00  0.00     0.154 C 
ENDROOT
BRANCH   1   2
HETATM    2  C   UNL     1      25.680  47.724  49.761  1.00  0.00    -0.031 A 
HETATM    3  C   UNL     1      24.757  48.581  49.125  1.00  0.00     0.009 A 
HETATM    4  C   UNL     1      25.178  49.719  48.433  1.00  0.00     0.001 A 
HETATM    5  C   UNL     1      26.533  50.027  48.365  1.00  0.00     0.000 A 
HETATM    6  C   UNL     1      27.462  49.196  48.983  1.00  0.00     0.001 A 
HETATM    7  C   UNL     1      27.042  48.052  49.670  1.00  0.00     0.009 A 
ENDBRANCH   1   2
BRANCH   1   8
HETATM    8  N   UNL     1      24.174  45.690  49.763  1.00  0.00    -0.347 N 
HETATM    9  C   UNL     1      23.471  44.675  50.381  1.00  0.00     0.236 C 
HETATM   10  O   UNL     1      23.593  44.405  51.576  1.00  0.00    -0.272 OA
HETATM   11  H   UNL     1      23.772  46.063  48.905  1.00  0.00     0.163 HD
BRANCH   9  12
HETATM   12  C   UNL     1      22.565  43.879  49.437  1.00  0.00     0.236 C 
BRANCH  12  13
HETATM   13  N   UNL     1      22.991  43.965  48.062  1.00  0.00    -0.289 N 
HETATM   14  C   UNL     1      23.924  43.094  47.467  1.00  0.00     0.328 A 
HETATM   15  O   UNL     1      24.611  42.262  48.039  1.00  0.00    -0.247 OA
HETATM   16  N   UNL     1      23.903  43.348  46.093  1.00  0.00    -0.306 N 
HETATM   17  C   UNL     1      22.917  44.293  45.828  1.00  0.00     0.063 A 
HETATM   18  H   UNL     1      24.466  42.856  45.418  1.00  0.00     0.171 HD
HETATM   19  C   UNL     1      22.338  44.674  47.041  1.00  0.00     0.066 A 
HETATM   20  C   UNL     1      22.492  44.779  44.613  1.00  0.00     0.032 A 
HETATM   21  C   UNL     1      21.290  45.568  47.080  1.00  0.00     0.032 A 
HETATM   22  C   UNL     1      20.832  46.072  45.856  1.00  0.00     0.002 A 
HETATM   23  C   UNL     1      21.427  45.683  44.637  1.00  0.00     0.002 A 
ENDBRANCH  12  13
ENDBRANCH   9  12
ENDBRANCH   1   8
BRANCH   1  24
HETATM   24  C   UNL     1      26.220  45.621  51.124  1.00  0.00     0.013 C 
HETATM   25  C   UNL     1      26.810  44.618  50.331  1.00  0.00     0.075 C 
HETATM   26  C   UNL     1      27.667  43.665  50.863  1.00  0.00     0.038 C 
HETATM   27  C   UNL     1      28.015  43.734  52.205  1.00  0.00     0.015 C 
HETATM   28  C   UNL     1      27.545  44.775  53.014  1.00  0.00    -0.025 A 
HETATM   29  C   UNL     1      26.648  45.745  52.485  1.00  0.00    -0.015 A 
HETATM   30  C   UNL     1      27.976  44.856  54.349  1.00  0.00     0.012 A 
HETATM   31  C   UNL     1      26.264  46.791  53.356  1.00  0.00     0.013 A 
HETATM   32  C   UNL     1      26.711  46.870  54.678  1.00  0.00     0.001 A 
HETATM   33  C   UNL     1      27.562  45.897  55.177  1.00  0.00     0.001 A 
BRANCH  25  34
HETATM   34  O   UNL     1      26.615  44.564  48.977  1.00  0.00    -0.360 OA
HETATM   35  H   UNL     1      27.220  45.238  48.590  1.00  0.00     0.217 HD
ENDBRANCH  25  34
ENDBRANCH   1  24
TORSDOF 6
ENDMDL
MODEL 5
REMARK VINA RESULT:      -8.6      2.311      3.751
REMARK  6 active torsions:
REMARK  status: ('A' for Active; 'I' for Inactive)
REMARK    1  A    between atoms: C_4  and  C_5 
REMARK    2  A    between atoms: C_5  and  N_6 
REMARK    3  A    between atoms: C_5  and  C_20 
REMARK       I    between atoms: N_6  and  C_7 
REMARK    4  A    between atoms: C_7  and  C_8 
REMARK    5  A    between atoms: C_8  and  N_9 
REMARK    6  A    between atoms: C_21  and  O_22 
ROOT
HETATM    1  C   UNL     1      26.943  43.561  52.455  1.00  0.00     0.154 C 
ENDROOT
BRANCH   1   2
HETATM    2  C   UNL     1      26.656  44.825  51.638  1.00  0.00    -0.031 A 
HETATM    3  C   UNL     1      27.327  44.981  50.407  1.00  0.00     0.009 A 
HETATM    4  C   UNL     1      27.120  46.103  49.602  1.00  0.00     0.001 A 
HETATM    5  C   UNL     1      26.235  47.095  50.009  1.00  0.00     0.000 A 
HETATM    6  C   UNL     1      25.562  46.965  51.221  1.00  0.00     0.001 A 
HETATM    7  C   UNL     1      25.774  45.844  52.031  1.00  0.00     0.009 A 
ENDBRANCH   1   2
BRANCH   1   8
HETATM    8  N   UNL     1      26.869  42.306  51.733  1.00  0.00    -0.347 N 
HETATM    9  C   UNL     1      25.717  41.927  51.073  1.00  0.00     0.236 C 
HETATM   10  O   UNL     1      24.702  42.624  51.041  1.00  0.00    -0.272 OA
HETATM   11  H   UNL     1      27.733  41.864  51.426  1.00  0.00     0.163 HD
BRANCH   9  12
HETATM   12  C   UNL     1      25.794  40.540  50.429  1.00  0.00     0.236 C 
BRANCH  12  13
HETATM   13  N   UNL     1      26.770  40.478  49.369  1.00  0.00    -0.289 N 
HETATM   14  C   UNL     1      28.070  39.959  49.521  1.00  0.00     0.328 A 
HETATM   15  O   UNL     1      28.608  39.638  50.568  1.00  0.00    -0.247 OA
HETATM   16  N   UNL     1      28.623  39.862  48.241  1.00  0.00    -0.306 N 
HETATM   17  C   UNL     1      27.659  40.229  47.308  1.00  0.00     0.063 A 
HETATM   18  H   UNL     1      29.546  39.506  48.049  1.00  0.00     0.171 HD
HETATM   19  C   UNL     1      26.502  40.602  47.996  1.00  0.00     0.066 A 
HETATM   20  C   UNL     1      27.735  40.206  45.934  1.00  0.00     0.032 A 
HETATM   21  C   UNL     1      25.358  40.968  47.321  1.00  0.00     0.032 A 
HETATM   22  C   UNL     1      25.406  40.946  45.921  1.00  0.00     0.002 A 
HETATM   23  C   UNL     1      26.581  40.570  45.235  1.00  0.00     0.002 A 
ENDBRANCH  12  13
ENDBRANCH   9  12
ENDBRANCH   1   8
BRANCH   1  24
HETATM   24  C   UNL     1      28.240  43.645  53.272  1.00  0.00     0.013 C 
HETATM   25  C   UNL     1      29.299  42.779  52.939  1.00  0.00     0.075 C 
HETATM   26  C   UNL     1      30.431  42.657  53.732  1.00  0.00     0.038 C 
HETATM   27  C   UNL     1      30.566  43.462  54.856  1.00  0.00     0.015 C 
HETATM   28  C   UNL     1      29.595  44.418  55.172  1.00  0.00    -0.025 A 
HETATM   29  C   UNL     1      28.420  44.537  54.378  1.00  0.00    -0.015 A 
HETATM   30  C   UNL     1      29.798  45.266  56.274  1.00  0.00     0.012 A 
HETATM   31  C   UNL     1      27.515  45.563  54.738  1.00  0.00     0.013 A 
HETATM   32  C   UNL     1      27.736  46.410  55.827  1.00  0.00     0.001 A 
HETATM   33  C   UNL     1      28.876  46.257  56.601  1.00  0.00     0.001 A 
BRANCH  25  34
HETATM   34  O   UNL     1      29.294  42.049  51.780  1.00  0.00    -0.360 OA
HETATM   35  H   UNL     1      29.958  41.334  51.910  1.00  0.00     0.217 HD
ENDBRANCH  25  34
ENDBRANCH   1  24
TORSDOF 6
ENDMDL
MODEL 6
REMARK VINA RESULT:      -8.5      2.140      5.147
REMARK  6 active torsions:
REMARK  status: ('A' for Active; 'I' for Inactive)
REMARK    1  A    between atoms: C_4  and  C_5 
REMARK    2  A    between atoms: C_5  and  N_6 
REMARK    3  A    between atoms: C_5  and  C_20 
REMARK       I    between atoms: N_6  and  C_7 
REMARK    4  A    between atoms: C_7  and  C_8 
REMARK    5  A    between atoms: C_8  and  N_9 
REMARK    6  A    between atoms: C_21  and  O_22 
ROOT
HETATM    1  C   UNL     1      26.500  45.536  51.436  1.00  0.00     0.154 C 
ENDROOT
BRANCH   1   2
HETATM    2  C   UNL     1      26.696  46.072  52.858  1.00  0.00    -0.031 A 
HETATM    3  C   UNL     1      25.979  47.229  53.230  1.00  0.00     0.009 A 
HETATM    4  C   UNL     1      26.100  47.780  54.507  1.00  0.00     0.001 A 
HETATM    5  C   UNL     1      26.940  47.185  55.443  1.00  0.00     0.000 A 
HETATM    6  C   UNL     1      27.659  46.044  55.098  1.00  0.00     0.001 A 
HETATM    7  C   UNL     1      27.543  45.495  53.817  1.00  0.00     0.009 A 
ENDBRANCH   1   2
BRANCH   1   8
HETATM    8  N   UNL     1      26.238  44.114  51.321  1.00  0.00    -0.347 N 
HETATM    9  C   UNL     1      26.680  43.391  50.231  1.00  0.00     0.236 C 
HETATM   10  O   UNL     1      27.327  43.892  49.311  1.00  0.00    -0.272 OA
HETATM   11  H   UNL     1      26.033  43.583  52.165  1.00  0.00     0.163 HD
BRANCH   9  12
HETATM   12  C   UNL     1      26.249  41.922  50.241  1.00  0.00     0.236 C 
BRANCH  12  13
HETATM   13  N   UNL     1      27.370  41.019  50.329  1.00  0.00    -0.289 N 
HETATM   14  C   UNL     1      28.033  40.695  51.529  1.00  0.00     0.328 A 
HETATM   15  O   UNL     1      27.871  41.225  52.616  1.00  0.00    -0.247 OA
HETATM   16  N   UNL     1      28.899  39.635  51.244  1.00  0.00    -0.306 N 
HETATM   17  C   UNL     1      28.716  39.251  49.920  1.00  0.00     0.063 A 
HETATM   18  H   UNL     1      29.491  39.191  51.927  1.00  0.00     0.171 HD
HETATM   19  C   UNL     1      27.762  40.096  49.347  1.00  0.00     0.066 A 
HETATM   20  C   UNL     1      29.293  38.205  49.238  1.00  0.00     0.032 A 
HETATM   21  C   UNL     1      27.342  39.916  48.047  1.00  0.00     0.032 A 
HETATM   22  C   UNL     1      27.908  38.853  47.332  1.00  0.00     0.002 A 
HETATM   23  C   UNL     1      28.873  38.008  47.920  1.00  0.00     0.002 A 
ENDBRANCH  12  13
ENDBRANCH   9  12
ENDBRANCH   1   8
BRANCH   1  24
HETATM   24  C   UNL     1      25.489  46.346  50.613  1.00  0.00     0.013 C 
HETATM   25  C   UNL     1      24.157  45.891  50.552  1.00  0.00     0.075 C 
HETATM   26  C   UNL     1      23.224  46.451  49.691  1.00  0.00     0.038 C 
HETATM   27  C   UNL     1      23.585  47.542  48.910  1.00  0.00     0.015 C 
HETATM   28  C   UNL     1      24.862  48.104  49.013  1.00  0.00    -0.025 A 
HETATM   29  C   UNL     1      25.834  47.524  49.876  1.00  0.00    -0.015 A 
HETATM   30  C   UNL     1      25.170  49.252  48.263  1.00  0.00     0.012 A 
HETATM   31  C   UNL     1      27.081  48.187  49.958  1.00  0.00     0.013 A 
HETATM   32  C   UNL     1      27.370  49.337  49.219  1.00  0.00     0.001 A 
HETATM   33  C   UNL     1      26.416  49.866  48.365  1.00  0.00     0.001 A 
BRANCH  25  34
HETATM   34  O   UNL     1      23.696  44.905  51.382  1.00  0.00    -0.360 OA
HETATM   35  H   UNL     1      22.713  44.943  51.325  1.00  0.00     0.217 HD
ENDBRANCH  25  34
ENDBRANCH   1  24
TORSDOF 6
ENDMDL
MODEL 7
REMARK VINA RESULT:      -8.4      1.682      2.580
REMARK  6 active torsions:
REMARK  status: ('A' for Active; 'I' for Inactive)
REMARK    1  A    between atoms: C_4  and  C_5 
REMARK    2  A    between atoms: C_5  and  N_6 
REMARK    3  A    between atoms: C_5  and  C_20 
REMARK       I    between atoms: N_6  and  C_7 
REMARK    4  A    between atoms: C_7  and  C_8 
REMARK    5  A    between atoms: C_8  and  N_9 
REMARK    6  A    between atoms: C_21  and  O_22 
ROOT
HETATM    1  C   UNL     1      26.520  44.070  52.231  1.00  0.00     0.154 C 
ENDROOT
BRANCH   1   2
HETATM    2  C   UNL     1      26.490  45.367  51.417  1.00  0.00    -0.031 A 
HETATM    3  C   UNL     1      27.185  45.390  50.188  1.00  0.00     0.009 A 
HETATM    4  C   UNL     1      27.207  46.533  49.386  1.00  0.00     0.001 A 
HETATM    5  C   UNL     1      26.530  47.678  49.792  1.00  0.00     0.000 A 
HETATM    6  C   UNL     1      25.839  47.680  51.000  1.00  0.00     0.001 A 
HETATM    7  C   UNL     1      25.822  46.538  51.808  1.00  0.00     0.009 A 
ENDBRANCH   1   2
BRANCH   1   8
HETATM    8  N   UNL     1      26.043  42.880  51.552  1.00  0.00    -0.347 N 
HETATM    9  C   UNL     1      24.759  42.809  51.051  1.00  0.00     0.236 C 
HETATM   10  O   UNL     1      23.955  43.738  51.131  1.00  0.00    -0.272 OA
HETATM   11  H   UNL     1      26.723  42.239  51.149  1.00  0.00     0.163 HD
BRANCH   9  12
HETATM   12  C   UNL     1      24.404  41.453  50.433  1.00  0.00     0.236 C 
BRANCH  12  13
HETATM   13  N   UNL     1      25.099  41.215  49.191  1.00  0.00    -0.289 N 
HETATM   14  C   UNL     1      24.951  42.009  48.037  1.00  0.00     0.328 A 
HETATM   15  O   UNL     1      24.128  42.893  47.862  1.00  0.00    -0.247 OA
HETATM   16  N   UNL     1      25.940  41.606  47.135  1.00  0.00    -0.306 N 
HETATM   17  C   UNL     1      26.739  40.645  47.746  1.00  0.00     0.063 A 
HETATM   18  H   UNL     1      26.077  42.017  46.226  1.00  0.00     0.171 HD
HETATM   19  C   UNL     1      26.232  40.404  49.026  1.00  0.00     0.066 A 
HETATM   20  C   UNL     1      27.873  40.033  47.265  1.00  0.00     0.032 A 
HETATM   21  C   UNL     1      26.858  39.527  49.886  1.00  0.00     0.032 A 
HETATM   22  C   UNL     1      28.020  38.896  49.423  1.00  0.00     0.002 A 
HETATM   23  C   UNL     1      28.521  39.145  48.127  1.00  0.00     0.002 A 
ENDBRANCH  12  13
ENDBRANCH   9  12
ENDBRANCH   1   8
BRANCH   1  24
HETATM   24  C   UNL     1      27.872  43.806  52.908  1.00  0.00     0.013 C 
HETATM   25  C   UNL     1      28.695  42.789  52.388  1.00  0.00     0.075 C 
HETATM   26  C   UNL     1      29.842  42.360  53.042  1.00  0.00     0.038 C 
HETATM   27  C   UNL     1      30.238  42.996  54.211  1.00  0.00     0.015 C 
HETATM   28  C   UNL     1      29.518  44.086  54.713  1.00  0.00    -0.025 A 
HETATM   29  C   UNL     1      28.329  44.520  54.063  1.00  0.00    -0.015 A 
HETATM   30  C   UNL     1      29.988  44.753  55.857  1.00  0.00     0.012 A 
HETATM   31  C   UNL     1      27.692  45.660  54.607  1.00  0.00     0.013 A 
HETATM   32  C   UNL     1      28.177  46.323  55.737  1.00  0.00     0.001 A 
HETATM   33  C   UNL     1      29.323  45.865  56.367  1.00  0.00     0.001 A 
BRANCH  25  34
HETATM   34  O   UNL     1      28.438  42.204  51.177  1.00  0.00    -0.360 OA
HETATM   35  H   UNL     1      28.910  41.340  51.190  1.00  0.00     0.217 HD
ENDBRANCH  25  34
ENDBRANCH   1  24
TORSDOF 6
ENDMDL
MODEL 8
REMARK VINA RESULT:      -8.4      9.044     12.260
REMARK  6 active torsions:
REMARK  status: ('A' for Active; 'I' for Inactive)
REMARK    1  A    between atoms: C_4  and  C_5 
REMARK    2  A    between atoms: C_5  and  N_6 
REMARK    3  A    between atoms: C_5  and  C_20 
REMARK       I    between atoms: N_6  and  C_7 
REMARK    4  A    between atoms: C_7  and  C_8 
REMARK    5  A    between atoms: C_8  and  N_9 
REMARK    6  A    between atoms: C_21  and  O_22 
ROOT
HETATM    1  C   UNL     1      16.613  52.288  48.132  1.00  0.00     0.154 C 
ENDROOT
BRANCH   1   2
HETATM    2  C   UNL     1      15.363  52.956  48.716  1.00  0.00    -0.031 A 
HETATM    3  C   UNL     1      15.068  52.726  50.077  1.00  0.00     0.009 A 
HETATM    4  C   UNL     1      13.949  53.298  50.685  1.00  0.00     0.001 A 
HETATM    5  C   UNL     1      13.101  54.116  49.947  1.00  0.00     0.000 A 
HETATM    6  C   UNL     1      13.370  54.356  48.603  1.00  0.00     0.001 A 
HETATM    7  C   UNL     1      14.487  53.778  47.991  1.00  0.00     0.009 A 
ENDBRANCH   1   2
BRANCH   1   8
HETATM    8  N   UNL     1      17.486  51.628  49.084  1.00  0.00    -0.347 N 
HETATM    9  C   UNL     1      18.838  51.904  49.125  1.00  0.00     0.236 C 
HETATM   10  O   UNL     1      19.379  52.724  48.382  1.00  0.00    -0.272 OA
HETATM   11  H   UNL     1      17.079  51.226  49.926  1.00  0.00     0.163 HD
BRANCH   9  12
HETATM   12  C   UNL     1      19.616  51.062  50.140  1.00  0.00     0.236 C 
BRANCH  12  13
HETATM   13  N   UNL     1      19.380  49.648  49.979  1.00  0.00    -0.289 N 
HETATM   14  C   UNL     1      18.844  48.816  50.981  1.00  0.00     0.328 A 
HETATM   15  O   UNL     1      18.649  49.115  52.148  1.00  0.00    -0.247 OA
HETATM   16  N   UNL     1      18.558  47.587  50.381  1.00  0.00    -0.306 N 
HETATM   17  C   UNL     1      18.828  47.678  49.020  1.00  0.00     0.063 A 
HETATM   18  H   UNL     1      18.150  46.803  50.865  1.00  0.00     0.171 HD
HETATM   19  C   UNL     1      19.328  48.957  48.758  1.00  0.00     0.066 A 
HETATM   20  C   UNL     1      18.617  46.743  48.034  1.00  0.00     0.032 A 
HETATM   21  C   UNL     1      19.637  49.351  47.474  1.00  0.00     0.032 A 
HETATM   22  C   UNL     1      19.425  48.420  46.450  1.00  0.00     0.002 A 
HETATM   23  C   UNL     1      18.922  47.130  46.726  1.00  0.00     0.002 A 
ENDBRANCH  12  13
ENDBRANCH   9  12
ENDBRANCH   1   8
BRANCH   1  24
HETATM   24  C   UNL     1      16.313  51.370  46.939  1.00  0.00     0.013 C 
HETATM   25  C   UNL     1      15.898  50.049  47.198  1.00  0.00     0.075 C 
HETATM   26  C   UNL     1      15.783  49.101  46.192  1.00  0.00     0.038 C 
HETATM   27  C   UNL     1      16.014  49.474  44.874  1.00  0.00     0.015 C 
HETATM   28  C   UNL     1      16.321  50.799  44.548  1.00  0.00    -0.025 A 
HETATM   29  C   UNL     1      16.463  51.775  45.574  1.00  0.00    -0.015 A 
HETATM   30  C   UNL     1      16.476  51.158  43.198  1.00  0.00     0.012 A 
HETATM   31  C   UNL     1      16.723  53.101  45.154  1.00  0.00     0.013 A 
HETATM   32  C   UNL     1      16.860  53.447  43.807  1.00  0.00     0.001 A 
HETATM   33  C   UNL     1      16.744  52.473  42.828  1.00  0.00     0.001 A 
BRANCH  25  34
HETATM   34  O   UNL     1      15.530  49.644  48.453  1.00  0.00    -0.360 OA
HETATM   35  H   UNL     1      14.749  50.193  48.695  1.00  0.00     0.217 HD
ENDBRANCH  25  34
ENDBRANCH   1  24
TORSDOF 6
ENDMDL
MODEL 9
REMARK VINA RESULT:      -8.4      4.700      7.411
REMARK  6 active torsions:
REMARK  status: ('A' for Active; 'I' for Inactive)
REMARK    1  A    between atoms: C_4  and  C_5 
REMARK    2  A    between atoms: C_5  and  N_6 
REMARK    3  A    between atoms: C_5  and  C_20 
REMARK       I    between atoms: N_6  and  C_7 
REMARK    4  A    between atoms: C_7  and  C_8 
REMARK    5  A    between atoms: C_8  and  N_9 
REMARK    6  A    between atoms: C_21  and  O_22 
ROOT
HETATM    1  C   UNL     1      19.555  47.322  47.396  1.00  0.00     0.154 C 
ENDROOT
BRANCH   1   2
HETATM    2  C   UNL     1      19.058  47.947  46.088  1.00  0.00    -0.031 A 
HETATM    3  C   UNL     1      19.098  47.153  44.922  1.00  0.00     0.009 A 
HETATM    4  C   UNL     1      18.663  47.647  43.691  1.00  0.00     0.001 A 
HETATM    5  C   UNL     1      18.176  48.947  43.598  1.00  0.00     0.000 A 
HETATM    6  C   UNL     1      18.130  49.750  44.734  1.00  0.00     0.001 A 
HETATM    7  C   UNL     1      18.571  49.258  45.967  1.00  0.00     0.009 A 
ENDBRANCH   1   2
BRANCH   1   8
HETATM    8  N   UNL     1      20.704  46.443  47.287  1.00  0.00    -0.347 N 
HETATM    9  C   UNL     1      20.729  45.216  47.917  1.00  0.00     0.236 C 
HETATM   10  O   UNL     1      19.789  44.787  48.588  1.00  0.00    -0.272 OA
HETATM   11  H   UNL     1      21.339  46.562  46.500  1.00  0.00     0.163 HD
BRANCH   9  12
HETATM   12  C   UNL     1      22.048  44.457  47.754  1.00  0.00     0.236 C 
BRANCH  12  13
HETATM   13  N   UNL     1      22.740  44.277  49.007  1.00  0.00    -0.289 N 
HETATM   14  C   UNL     1      23.004  43.024  49.592  1.00  0.00     0.328 A 
HETATM   15  O   UNL     1      22.570  41.943  49.226  1.00  0.00    -0.247 OA
HETATM   16  N   UNL     1      23.875  43.248  50.662  1.00  0.00    -0.306 N 
HETATM   17  C   UNL     1      24.215  44.596  50.688  1.00  0.00     0.063 A 
HETATM   18  H   UNL     1      24.243  42.520  51.253  1.00  0.00     0.171 HD
HETATM   19  C   UNL     1      23.524  45.242  49.659  1.00  0.00     0.066 A 
HETATM   20  C   UNL     1      25.103  45.247  51.513  1.00  0.00     0.032 A 
HETATM   21  C   UNL     1      23.706  46.585  49.412  1.00  0.00     0.032 A 
HETATM   22  C   UNL     1      24.612  47.270  50.233  1.00  0.00     0.002 A 
HETATM   23  C   UNL     1      25.301  46.609  51.272  1.00  0.00     0.002 A 
ENDBRANCH  12  13
ENDBRANCH   9  12
ENDBRANCH   1   8
BRANCH   1  24
HETATM   24  C   UNL     1      19.755  48.344  48.523  1.00  0.00     0.013 C 
HETATM   25  C   UNL     1      18.787  48.414  49.544  1.00  0.00     0.075 C 
HETATM   26  C   UNL     1      18.790  49.424  50.496  1.00  0.00     0.038 C 
HETATM   27  C   UNL     1      19.815  50.361  50.494  1.00  0.00     0.015 C 
HETATM   28  C   UNL     1      20.862  50.273  49.570  1.00  0.00    -0.025 A 
HETATM   29  C   UNL     1      20.859  49.255  48.576  1.00  0.00    -0.015 A 
HETATM   30  C   UNL     1      21.922  51.194  49.642  1.00  0.00     0.012 A 
HETATM   31  C   UNL     1      21.981  49.208  47.716  1.00  0.00     0.013 A 
HETATM   32  C   UNL     1      23.035  50.120  47.807  1.00  0.00     0.001 A 
HETATM   33  C   UNL     1      23.003  51.119  48.767  1.00  0.00     0.001 A 
BRANCH  25  34
HETATM   34  O   UNL     1      17.822  47.454  49.687  1.00  0.00    -0.360 OA
HETATM   35  H   UNL     1      17.250  47.755  50.431  1.00  0.00     0.217 HD
ENDBRANCH  25  34
ENDBRANCH   1  24
TORSDOF 6
ENDMDL
MODEL 10
REMARK VINA RESULT:      -8.3     17.725     19.777
REMARK  6 active torsions:
REMARK  status: ('A' for Active; 'I' for Inactive)
REMARK    1  A    between atoms: C_4  and  C_5 
REMARK    2  A    between atoms: C_5  and  N_6 
REMARK    3  A    between atoms: C_5  and  C_20 
REMARK       I    between atoms: N_6  and  C_7 
REMARK    4  A    between atoms: C_7  and  C_8 
REMARK    5  A    between atoms: C_8  and  N_9 
REMARK    6  A    between atoms: C_21  and  O_22 
ROOT
HETATM    1  C   UNL     1      37.325  44.605  66.174  1.00  0.00     0.154 C 
ENDROOT
BRANCH   1   2
HETATM    2  C   UNL     1      36.026  43.805  66.315  1.00  0.00    -0.031 A 
HETATM    3  C   UNL     1      35.843  42.692  65.466  1.00  0.00     0.009 A 
HETATM    4  C   UNL     1      34.688  41.910  65.531  1.00  0.00     0.001 A 
HETATM    5  C   UNL     1      33.690  42.221  66.449  1.00  0.00     0.000 A 
HETATM    6  C   UNL     1      33.847  43.315  67.295  1.00  0.00     0.001 A 
HETATM    7  C   UNL     1      35.001  44.103  67.226  1.00  0.00     0.009 A 
ENDBRANCH   1   2
BRANCH   1   8
HETATM    8  N   UNL     1      38.382  43.974  65.406  1.00  0.00    -0.347 N 
HETATM    9  C   UNL     1      39.711  44.166  65.726  1.00  0.00     0.236 C 
HETATM   10  O   UNL     1      40.079  44.859  66.675  1.00  0.00    -0.272 OA
HETATM   11  H   UNL     1      38.163  43.145  64.858  1.00  0.00     0.163 HD
BRANCH   9  12
HETATM   12  C   UNL     1      40.689  43.486  64.764  1.00  0.00     0.236 C 
BRANCH  12  13
HETATM   13  N   UNL     1      40.083  42.393  64.045  1.00  0.00    -0.289 N 
HETATM   14  C   UNL     1      39.351  42.540  62.851  1.00  0.00     0.328 A 
HETATM   15  O   UNL     1      38.993  43.590  62.341  1.00  0.00    -0.247 OA
HETATM   16  N   UNL     1      39.127  41.256  62.347  1.00  0.00    -0.306 N 
HETATM   17  C   UNL     1      39.779  40.336  63.161  1.00  0.00     0.063 A 
HETATM   18  H   UNL     1      38.636  41.063  61.489  1.00  0.00     0.171 HD
HETATM   19  C   UNL     1      40.385  41.032  64.210  1.00  0.00     0.066 A 
HETATM   20  C   UNL     1      39.900  38.975  63.000  1.00  0.00     0.032 A 
HETATM   21  C   UNL     1      41.150  40.377  65.151  1.00  0.00     0.032 A 
HETATM   22  C   UNL     1      41.294  38.991  65.007  1.00  0.00     0.002 A 
HETATM   23  C   UNL     1      40.675  38.298  63.944  1.00  0.00     0.002 A 
ENDBRANCH  12  13
ENDBRANCH   9  12
ENDBRANCH   1   8
BRANCH   1  24
HETATM   24  C   UNL     1      37.103  46.052  65.712  1.00  0.00     0.013 C 
HETATM   25  C   UNL     1      36.846  46.287  64.347  1.00  0.00     0.075 C 
HETATM   26  C   UNL     1      36.815  47.566  63.811  1.00  0.00     0.038 C 
HETATM   27  C   UNL     1      36.972  48.662  64.651  1.00  0.00     0.015 C 
HETATM   28  C   UNL     1      37.121  48.489  66.032  1.00  0.00    -0.025 A 
HETATM   29  C   UNL     1      37.175  47.181  66.589  1.00  0.00    -0.015 A 
HETATM   30  C   UNL     1      37.204  49.621  66.861  1.00  0.00     0.012 A 
HETATM   31  C   UNL     1      37.275  47.098  67.998  1.00  0.00     0.013 A 
HETATM   32  C   UNL     1      37.341  48.231  68.813  1.00  0.00     0.001 A 
HETATM   33  C   UNL     1      37.313  49.494  68.244  1.00  0.00     0.001 A 
BRANCH  25  34
HETATM   34  O   UNL     1      36.554  45.265  63.484  1.00  0.00    -0.360 OA
HETATM   35  H   UNL     1      36.085  45.680  62.723  1.00  0.00     0.217 HD
ENDBRANCH  25  34
ENDBRANCH   1  24
TORSDOF 6
ENDMDL
