MODEL 1
REMARK VINA RESULT:     -10.1      0.000      0.000
REMARK  5 active torsions:
REMARK  status: ('A' for Active; 'I' for Inactive)
REMARK    1  A    between atoms: C_6  and  N_7 
REMARK       I    between atoms: N_7  and  C_8 
REMARK    2  A    between atoms: C_8  and  C_9 
REMARK    3  A    between atoms: C_9  and  C_10 
REMARK    4  A    between atoms: C_12  and  N_13 
REMARK       I    between atoms: N_13  and  C_14 
REMARK       I    between atoms: C_14  and  N_15 
REMARK    5  A    between atoms: N_15  and  C_16 
ROOT
HETATM    1  C   UNL     1      25.547  46.367  52.091  1.00  0.00     0.052 A 
HETATM    2  N   UNL     1      25.397  47.592  51.443  1.00  0.00    -0.228 NA
HETATM    3  C   UNL     1      25.572  47.425  50.152  1.00  0.00     0.174 A 
HETATM    4  S   UNL     1      25.912  45.846  49.620  1.00  0.00    -0.062 SA
HETATM    5  C   UNL     1      25.835  45.308  51.245  1.00  0.00     0.081 A 
ENDROOT
BRANCH   1   6
HETATM    6  C   UNL     1      25.423  46.259  53.581  1.00  0.00     0.163 C 
BRANCH   6   7
HETATM    7  C   UNL     1      26.419  45.380  54.327  1.00  0.00     0.227 C 
HETATM    8  N   UNL     1      27.699  45.878  54.458  1.00  0.00    -0.327 N 
HETATM    9  H   UNL     1      27.917  46.695  53.893  1.00  0.00     0.169 HD
HETATM   10  O   UNL     1      26.016  44.325  54.817  1.00  0.00    -0.273 OA
BRANCH   8  11
HETATM   11  C   UNL     1      28.785  45.299  55.148  1.00  0.00     0.036 A 
HETATM   12  C   UNL     1      29.302  45.787  56.347  1.00  0.00     0.053 A 
HETATM   13  C   UNL     1      30.358  45.126  56.988  1.00  0.00     0.042 A 
HETATM   14  C   UNL     1      30.916  43.962  56.442  1.00  0.00    -0.040 A 
HETATM   15 CL   UNL     1      30.942  45.789  58.475  1.00  0.00    -0.084 Cl
HETATM   16  C   UNL     1      32.034  43.220  57.120  1.00  0.00     0.050 C 
HETATM   17  C   UNL     1      30.410  43.490  55.225  1.00  0.00     0.011 A 
HETATM   18  C   UNL     1      29.362  44.157  54.583  1.00  0.00     0.030 A 
ENDBRANCH   8  11
ENDBRANCH   6   7
ENDBRANCH   1   6
BRANCH   3  19
HETATM   19  N   UNL     1      25.500  48.354  49.161  1.00  0.00    -0.287 N 
HETATM   20  C   UNL     1      24.395  49.053  48.769  1.00  0.00     0.326 C 
HETATM   21  N   UNL     1      23.267  48.909  49.531  1.00  0.00    -0.309 N 
HETATM   22  O   UNL     1      24.504  49.762  47.771  1.00  0.00    -0.247 OA
HETATM   23  H   UNL     1      23.396  48.412  50.407  1.00  0.00     0.170 HD
HETATM   24  H   UNL     1      26.327  48.517  48.606  1.00  0.00     0.172 HD
BRANCH  21  25
HETATM   25  C   UNL     1      21.985  49.444  49.288  1.00  0.00     0.036 A 
HETATM   26  C   UNL     1      21.657  50.790  49.474  1.00  0.00     0.032 A 
HETATM   27  C   UNL     1      20.373  51.254  49.168  1.00  0.00     0.044 A 
HETATM   28  C   UNL     1      19.421  50.371  48.677  1.00  0.00     0.116 A 
HETATM   29  F   UNL     1      18.196  50.822  48.375  1.00  0.00    -0.206 F 
HETATM   30  C   UNL     1      19.725  49.030  48.490  1.00  0.00     0.044 A 
HETATM   31  C   UNL     1      21.007  48.567  48.797  1.00  0.00     0.032 A 
ENDBRANCH  21  25
ENDBRANCH   3  19
TORSDOF 5
ENDMDL
MODEL 2
REMARK VINA RESULT:      -9.8      4.715     10.746
REMARK  5 active torsions:
REMARK  status: ('A' for Active; 'I' for Inactive)
REMARK    1  A    between atoms: C_6  and  N_7 
REMARK       I    between atoms: N_7  and  C_8 
REMARK    2  A    between atoms: C_8  and  C_9 
REMARK    3  A    between atoms: C_9  and  C_10 
REMARK    4  A    between atoms: C_12  and  N_13 
REMARK       I    between atoms: N_13  and  C_14 
REMARK       I    between atoms: C_14  and  N_15 
REMARK    5  A    between atoms: N_15  and  C_16 
ROOT
HETATM    1  C   UNL     1      26.513  47.082  50.213  1.00  0.00     0.052 A 
HETATM    2  N   UNL     1      26.155  46.959  51.555  1.00  0.00    -0.228 NA
HETATM    3  C   UNL     1      26.007  45.688  51.850  1.00  0.00     0.174 A 
HETATM    4  S   UNL     1      26.279  44.570  50.597  1.00  0.00    -0.062 SA
HETATM    5  C   UNL     1      26.621  45.875  49.540  1.00  0.00     0.081 A 
ENDROOT
BRANCH   1   6
HETATM    6  C   UNL     1      26.727  48.428  49.589  1.00  0.00     0.163 C 
BRANCH   6   7
HETATM    7  C   UNL     1      25.568  49.069  48.837  1.00  0.00     0.227 C 
HETATM    8  N   UNL     1      24.301  48.800  49.315  1.00  0.00    -0.327 N 
HETATM    9  H   UNL     1      24.238  48.057  50.008  1.00  0.00     0.169 HD
HETATM   10  O   UNL     1      25.825  49.827  47.901  1.00  0.00    -0.273 OA
BRANCH   8  11
HETATM   11  C   UNL     1      23.073  49.310  48.844  1.00  0.00     0.036 A 
HETATM   12  C   UNL     1      22.143  48.568  48.118  1.00  0.00     0.053 A 
HETATM   13  C   UNL     1      20.927  49.143  47.723  1.00  0.00     0.042 A 
HETATM   14  C   UNL     1      20.619  50.471  48.048  1.00  0.00    -0.040 A 
HETATM   15 CL   UNL     1      19.821  48.158  46.830  1.00  0.00    -0.084 Cl
HETATM   16  C   UNL     1      19.313  51.105  47.657  1.00  0.00     0.050 C 
HETATM   17  C   UNL     1      21.567  51.219  48.756  1.00  0.00     0.011 A 
HETATM   18  C   UNL     1      22.784  50.646  49.141  1.00  0.00     0.030 A 
ENDBRANCH   8  11
ENDBRANCH   6   7
ENDBRANCH   1   6
BRANCH   3  19
HETATM   19  N   UNL     1      25.677  45.129  53.046  1.00  0.00    -0.287 N 
HETATM   20  C   UNL     1      26.532  44.768  54.047  1.00  0.00     0.326 C 
HETATM   21  N   UNL     1      27.847  45.119  53.898  1.00  0.00    -0.309 N 
HETATM   22  O   UNL     1      26.052  44.165  55.005  1.00  0.00    -0.247 OA
HETATM   23  H   UNL     1      28.042  45.749  53.126  1.00  0.00     0.170 HD
HETATM   24  H   UNL     1      24.709  44.896  53.207  1.00  0.00     0.172 HD
BRANCH  21  25
HETATM   25  C   UNL     1      28.931  44.786  54.735  1.00  0.00     0.036 A 
HETATM   26  C   UNL     1      29.342  45.565  55.821  1.00  0.00     0.032 A 
HETATM   27  C   UNL     1      30.400  45.144  56.633  1.00  0.00     0.044 A 
HETATM   28  C   UNL     1      31.046  43.947  56.357  1.00  0.00     0.116 A 
HETATM   29  F   UNL     1      32.052  43.543  57.143  1.00  0.00    -0.206 F 
HETATM   30  C   UNL     1      30.657  43.162  55.281  1.00  0.00     0.044 A 
HETATM   31  C   UNL     1      29.601  43.583  54.469  1.00  0.00     0.032 A 
ENDBRANCH  21  25
ENDBRANCH   3  19
TORSDOF 5
ENDMDL
MODEL 3
REMARK VINA RESULT:      -9.6      1.825      2.087
REMARK  5 active torsions:
REMARK  status: ('A' for Active; 'I' for Inactive)
REMARK    1  A    between atoms: C_6  and  N_7 
REMARK       I    between atoms: N_7  and  C_8 
REMARK    2  A    between atoms: C_8  and  C_9 
REMARK    3  A    between atoms: C_9  and  C_10 
REMARK    4  A    between atoms: C_12  and  N_13 
REMARK       I    between atoms: N_13  and  C_14 
REMARK       I    between atoms: C_14  and  N_15 
REMARK    5  A    between atoms: N_15  and  C_16 
ROOT
HETATM    1  C   UNL     1      25.219  44.845  51.680  1.00  0.00     0.052 A 
HETATM    2  N   UNL     1      24.201  45.280  50.833  1.00  0.00    -0.228 NA
HETATM    3  C   UNL     1      24.331  44.699  49.663  1.00  0.00     0.174 A 
HETATM    4  S   UNL     1      25.632  43.619  49.481  1.00  0.00    -0.062 SA
HETATM    5  C   UNL     1      26.092  43.939  51.100  1.00  0.00     0.081 A 
ENDROOT
BRANCH   1   6
HETATM    6  C   UNL     1      25.334  45.363  53.082  1.00  0.00     0.163 C 
BRANCH   6   7
HETATM    7  C   UNL     1      26.352  44.715  54.010  1.00  0.00     0.227 C 
HETATM    8  N   UNL     1      27.622  45.257  54.003  1.00  0.00    -0.327 N 
HETATM    9  H   UNL     1      27.818  45.915  53.253  1.00  0.00     0.169 HD
HETATM   10  O   UNL     1      25.976  43.803  54.748  1.00  0.00    -0.273 OA
BRANCH   8  11
HETATM   11  C   UNL     1      28.723  44.887  54.804  1.00  0.00     0.036 A 
HETATM   12  C   UNL     1      29.131  45.578  55.944  1.00  0.00     0.053 A 
HETATM   13  C   UNL     1      30.213  45.118  56.705  1.00  0.00     0.042 A 
HETATM   14  C   UNL     1      30.909  43.957  56.341  1.00  0.00    -0.040 A 
HETATM   15 CL   UNL     1      30.657  46.026  58.110  1.00  0.00    -0.084 Cl
HETATM   16  C   UNL     1      32.059  43.429  57.152  1.00  0.00     0.050 C 
HETATM   17  C   UNL     1      30.511  43.281  55.181  1.00  0.00     0.011 A 
HETATM   18  C   UNL     1      29.436  43.747  54.418  1.00  0.00     0.030 A 
ENDBRANCH   8  11
ENDBRANCH   6   7
ENDBRANCH   1   6
BRANCH   3  19
HETATM   19  N   UNL     1      23.546  44.831  48.559  1.00  0.00    -0.287 N 
HETATM   20  C   UNL     1      22.853  45.941  48.173  1.00  0.00     0.326 C 
HETATM   21  N   UNL     1      23.065  47.087  48.891  1.00  0.00    -0.309 N 
HETATM   22  O   UNL     1      22.101  45.826  47.207  1.00  0.00    -0.247 OA
HETATM   23  H   UNL     1      23.833  47.047  49.554  1.00  0.00     0.170 HD
HETATM   24  H   UNL     1      23.402  44.016  47.982  1.00  0.00     0.172 HD
BRANCH  21  25
HETATM   25  C   UNL     1      22.409  48.328  48.754  1.00  0.00     0.036 A 
HETATM   26  C   UNL     1      21.069  48.540  49.092  1.00  0.00     0.032 A 
HETATM   27  C   UNL     1      20.502  49.813  48.969  1.00  0.00     0.044 A 
HETATM   28  C   UNL     1      21.275  50.870  48.509  1.00  0.00     0.116 A 
HETATM   29  F   UNL     1      20.731  52.089  48.403  1.00  0.00    -0.206 F 
HETATM   30  C   UNL     1      22.606  50.679  48.164  1.00  0.00     0.044 A 
HETATM   31  C   UNL     1      23.172  49.408  48.285  1.00  0.00     0.032 A 
ENDBRANCH  21  25
ENDBRANCH   3  19
TORSDOF 5
ENDMDL
MODEL 4
REMARK VINA RESULT:      -9.6      4.743     10.472
REMARK  5 active torsions:
REMARK  status: ('A' for Active; 'I' for Inactive)
REMARK    1  A    between atoms: C_6  and  N_7 
REMARK       I    between atoms: N_7  and  C_8 
REMARK    2  A    between atoms: C_8  and  C_9 
REMARK    3  A    between atoms: C_9  and  C_10 
REMARK    4  A    between atoms: C_12  and  N_13 
REMARK       I    between atoms: N_13  and  C_14 
REMARK       I    between atoms: C_14  and  N_15 
REMARK    5  A    between atoms: N_15  and  C_16 
ROOT
HETATM    1  C   UNL     1      26.457  45.331  49.988  1.00  0.00     0.052 A 
HETATM    2  N   UNL     1      27.471  44.654  50.665  1.00  0.00    -0.228 NA
HETATM    3  C   UNL     1      27.144  43.388  50.785  1.00  0.00     0.174 A 
HETATM    4  S   UNL     1      25.653  42.912  50.118  1.00  0.00    -0.062 SA
HETATM    5  C   UNL     1      25.387  44.530  49.620  1.00  0.00     0.081 A 
ENDROOT
BRANCH   1   6
HETATM    6  C   UNL     1      26.550  46.803  49.727  1.00  0.00     0.163 C 
BRANCH   6   7
HETATM    7  C   UNL     1      25.325  47.665  50.005  1.00  0.00     0.227 C 
HETATM    8  N   UNL     1      24.682  48.193  48.904  1.00  0.00    -0.327 N 
HETATM    9  H   UNL     1      25.181  48.116  48.021  1.00  0.00     0.169 HD
HETATM   10  O   UNL     1      24.948  47.787  51.172  1.00  0.00    -0.273 OA
BRANCH   8  11
HETATM   11  C   UNL     1      23.502  48.967  48.881  1.00  0.00     0.036 A 
HETATM   12  C   UNL     1      22.222  48.451  49.077  1.00  0.00     0.053 A 
HETATM   13  C   UNL     1      21.107  49.299  49.079  1.00  0.00     0.042 A 
HETATM   14  C   UNL     1      21.251  50.680  48.885  1.00  0.00    -0.040 A 
HETATM   15 CL   UNL     1      19.551  48.586  49.334  1.00  0.00    -0.084 Cl
HETATM   16  C   UNL     1      20.073  51.614  48.905  1.00  0.00     0.050 C 
HETATM   17  C   UNL     1      22.535  51.189  48.664  1.00  0.00     0.011 A 
HETATM   18  C   UNL     1      23.647  50.340  48.654  1.00  0.00     0.030 A 
ENDBRANCH   8  11
ENDBRANCH   6   7
ENDBRANCH   1   6
BRANCH   3  19
HETATM   19  N   UNL     1      27.853  42.381  51.363  1.00  0.00    -0.287 N 
HETATM   20  C   UNL     1      28.580  42.447  52.516  1.00  0.00     0.326 C 
HETATM   21  N   UNL     1      28.489  43.603  53.243  1.00  0.00    -0.309 N 
HETATM   22  O   UNL     1      29.252  41.461  52.813  1.00  0.00    -0.247 OA
HETATM   23  H   UNL     1      27.770  44.251  52.938  1.00  0.00     0.170 HD
HETATM   24  H   UNL     1      27.906  41.500  50.874  1.00  0.00     0.172 HD
BRANCH  21  25
HETATM   25  C   UNL     1      29.204  43.952  54.407  1.00  0.00     0.036 A 
HETATM   26  C   UNL     1      30.348  43.279  54.846  1.00  0.00     0.032 A 
HETATM   27  C   UNL     1      31.030  43.714  55.988  1.00  0.00     0.044 A 
HETATM   28  C   UNL     1      30.565  44.819  56.689  1.00  0.00     0.116 A 
HETATM   29  F   UNL     1      31.227  45.238  57.775  1.00  0.00    -0.206 F 
HETATM   30  C   UNL     1      29.429  45.497  56.272  1.00  0.00     0.044 A 
HETATM   31  C   UNL     1      28.748  45.063  55.132  1.00  0.00     0.032 A 
ENDBRANCH  21  25
ENDBRANCH   3  19
TORSDOF 5
ENDMDL
MODEL 5
REMARK VINA RESULT:      -9.2      5.669      8.291
REMARK  5 active torsions:
REMARK  status: ('A' for Active; 'I' for Inactive)
REMARK    1  A    between atoms: C_6  and  N_7 
REMARK       I    between atoms: N_7  and  C_8 
REMARK    2  A    between atoms: C_8  and  C_9 
REMARK    3  A    between atoms: C_9  and  C_10 
REMARK    4  A    between atoms: C_12  and  N_13 
REMARK       I    between atoms: N_13  and  C_14 
REMARK       I    between atoms: C_14  and  N_15 
REMARK    5  A    between atoms: N_15  and  C_16 
ROOT
HETATM    1  C   UNL     1      24.816  44.172  51.103  1.00  0.00     0.052 A 
HETATM    2  N   UNL     1      25.967  43.847  50.386  1.00  0.00    -0.228 NA
HETATM    3  C   UNL     1      25.640  43.106  49.352  1.00  0.00     0.174 A 
HETATM    4  S   UNL     1      23.989  42.750  49.152  1.00  0.00    -0.062 SA
HETATM    5  C   UNL     1      23.648  43.650  50.570  1.00  0.00     0.081 A 
ENDROOT
BRANCH   1   6
HETATM    6  C   UNL     1      24.889  44.995  52.353  1.00  0.00     0.163 C 
BRANCH   6   7
HETATM    7  C   UNL     1      25.863  44.569  53.444  1.00  0.00     0.227 C 
HETATM    8  N   UNL     1      27.200  44.814  53.203  1.00  0.00    -0.327 N 
HETATM    9  H   UNL     1      27.436  45.085  52.252  1.00  0.00     0.169 HD
HETATM   10  O   UNL     1      25.407  44.097  54.486  1.00  0.00    -0.273 OA
BRANCH   8  11
HETATM   11  C   UNL     1      28.291  44.575  54.065  1.00  0.00     0.036 A 
HETATM   12  C   UNL     1      28.598  45.357  55.177  1.00  0.00     0.053 A 
HETATM   13  C   UNL     1      29.679  45.024  56.005  1.00  0.00     0.042 A 
HETATM   14  C   UNL     1      30.472  43.900  55.737  1.00  0.00    -0.040 A 
HETATM   15 CL   UNL     1      29.994  46.040  57.369  1.00  0.00    -0.084 Cl
HETATM   16  C   UNL     1      31.623  43.508  56.621  1.00  0.00     0.050 C 
HETATM   17  C   UNL     1      30.175  43.132  54.605  1.00  0.00     0.011 A 
HETATM   18  C   UNL     1      29.102  43.472  53.775  1.00  0.00     0.030 A 
ENDBRANCH   8  11
ENDBRANCH   6   7
ENDBRANCH   1   6
BRANCH   3  19
HETATM   19  N   UNL     1      26.452  42.588  48.391  1.00  0.00    -0.287 N 
HETATM   20  C   UNL     1      27.210  41.456  48.479  1.00  0.00     0.326 C 
HETATM   21  N   UNL     1      27.043  40.683  49.596  1.00  0.00    -0.309 N 
HETATM   22  O   UNL     1      27.972  41.218  47.545  1.00  0.00    -0.247 OA
HETATM   23  H   UNL     1      26.262  40.942  50.190  1.00  0.00     0.170 HD
HETATM   24  H   UNL     1      26.564  43.112  47.536  1.00  0.00     0.172 HD
BRANCH  21  25
HETATM   25  C   UNL     1      27.765  39.529  49.964  1.00  0.00     0.036 A 
HETATM   26  C   UNL     1      27.461  38.244  49.505  1.00  0.00     0.032 A 
HETATM   27  C   UNL     1      28.252  37.153  49.880  1.00  0.00     0.044 A 
HETATM   28  C   UNL     1      29.345  37.350  50.714  1.00  0.00     0.116 A 
HETATM   29  F   UNL     1      30.106  36.304  51.062  1.00  0.00    -0.206 F 
HETATM   30  C   UNL     1      29.660  38.617  51.185  1.00  0.00     0.044 A 
HETATM   31  C   UNL     1      28.869  39.706  50.810  1.00  0.00     0.032 A 
ENDBRANCH  21  25
ENDBRANCH   3  19
TORSDOF 5
ENDMDL
MODEL 6
REMARK VINA RESULT:      -9.0      2.070      2.597
REMARK  5 active torsions:
REMARK  status: ('A' for Active; 'I' for Inactive)
REMARK    1  A    between atoms: C_6  and  N_7 
REMARK       I    between atoms: N_7  and  C_8 
REMARK    2  A    between atoms: C_8  and  C_9 
REMARK    3  A    between atoms: C_9  and  C_10 
REMARK    4  A    between atoms: C_12  and  N_13 
REMARK       I    between atoms: N_13  and  C_14 
REMARK       I    between atoms: C_14  and  N_15 
REMARK    5  A    between atoms: N_15  and  C_16 
ROOT
HETATM    1  C   UNL     1      24.526  45.196  50.844  1.00  0.00     0.052 A 
HETATM    2  N   UNL     1      23.622  45.076  49.790  1.00  0.00    -0.228 NA
HETATM    3  C   UNL     1      23.462  46.247  49.219  1.00  0.00     0.174 A 
HETATM    4  S   UNL     1      24.349  47.547  49.866  1.00  0.00    -0.062 SA
HETATM    5  C   UNL     1      25.017  46.480  51.028  1.00  0.00     0.081 A 
ENDROOT
BRANCH   1   6
HETATM    6  C   UNL     1      24.885  44.016  51.695  1.00  0.00     0.163 C 
BRANCH   6   7
HETATM    7  C   UNL     1      25.576  44.270  53.029  1.00  0.00     0.227 C 
HETATM    8  N   UNL     1      26.947  44.423  52.991  1.00  0.00    -0.327 N 
HETATM    9  H   UNL     1      27.396  44.172  52.113  1.00  0.00     0.169 HD
HETATM   10  O   UNL     1      24.878  44.385  54.037  1.00  0.00    -0.273 OA
BRANCH   8  11
HETATM   11  C   UNL     1      27.813  44.723  54.063  1.00  0.00     0.036 A 
HETATM   12  C   UNL     1      28.852  43.896  54.488  1.00  0.00     0.053 A 
HETATM   13  C   UNL     1      29.691  44.291  55.537  1.00  0.00     0.042 A 
HETATM   14  C   UNL     1      29.509  45.522  56.182  1.00  0.00    -0.040 A 
HETATM   15 CL   UNL     1      30.962  43.213  56.005  1.00  0.00    -0.084 Cl
HETATM   16  C   UNL     1      30.410  45.980  57.295  1.00  0.00     0.050 C 
HETATM   17  C   UNL     1      28.450  46.338  55.768  1.00  0.00     0.011 A 
HETATM   18  C   UNL     1      27.607  45.938  54.726  1.00  0.00     0.030 A 
ENDBRANCH   8  11
ENDBRANCH   6   7
ENDBRANCH   1   6
BRANCH   3  19
HETATM   19  N   UNL     1      22.683  46.569  48.150  1.00  0.00    -0.287 N 
HETATM   20  C   UNL     1      21.703  47.518  48.106  1.00  0.00     0.326 C 
HETATM   21  N   UNL     1      21.568  48.324  49.203  1.00  0.00    -0.309 N 
HETATM   22  O   UNL     1      21.026  47.577  47.081  1.00  0.00    -0.247 OA
HETATM   23  H   UNL     1      22.308  48.244  49.893  1.00  0.00     0.170 HD
HETATM   24  H   UNL     1      22.786  46.021  47.309  1.00  0.00     0.172 HD
BRANCH  21  25
HETATM   25  C   UNL     1      20.584  49.306  49.440  1.00  0.00     0.036 A 
HETATM   26  C   UNL     1      19.372  49.050  50.088  1.00  0.00     0.032 A 
HETATM   27  C   UNL     1      18.464  50.088  50.326  1.00  0.00     0.044 A 
HETATM   28  C   UNL     1      18.770  51.378  49.915  1.00  0.00     0.116 A 
HETATM   29  F   UNL     1      17.903  52.370  50.154  1.00  0.00    -0.206 F 
HETATM   30  C   UNL     1      19.966  51.652  49.265  1.00  0.00     0.044 A 
HETATM   31  C   UNL     1      20.872  50.615  49.027  1.00  0.00     0.032 A 
ENDBRANCH  21  25
ENDBRANCH   3  19
TORSDOF 5
ENDMDL
MODEL 7
REMARK VINA RESULT:      -8.9      1.868      2.518
REMARK  5 active torsions:
REMARK  status: ('A' for Active; 'I' for Inactive)
REMARK    1  A    between atoms: C_6  and  N_7 
REMARK       I    between atoms: N_7  and  C_8 
REMARK    2  A    between atoms: C_8  and  C_9 
REMARK    3  A    between atoms: C_9  and  C_10 
REMARK    4  A    between atoms: C_12  and  N_13 
REMARK       I    between atoms: N_13  and  C_14 
REMARK       I    between atoms: C_14  and  N_15 
REMARK    5  A    between atoms: N_15  and  C_16 
ROOT
HETATM    1  C   UNL     1      25.382  47.261  50.427  1.00  0.00     0.052 A 
HETATM    2  N   UNL     1      24.226  47.965  50.095  1.00  0.00    -0.228 NA
HETATM    3  C   UNL     1      24.525  48.912  49.236  1.00  0.00     0.174 A 
HETATM    4  S   UNL     1      26.154  49.037  48.765  1.00  0.00    -0.062 SA
HETATM    5  C   UNL     1      26.527  47.718  49.794  1.00  0.00     0.081 A 
ENDROOT
BRANCH   1   6
HETATM    6  C   UNL     1      25.345  46.131  51.411  1.00  0.00     0.163 C 
BRANCH   6   7
HETATM    7  C   UNL     1      26.371  46.119  52.537  1.00  0.00     0.227 C 
HETATM    8  N   UNL     1      27.036  44.929  52.749  1.00  0.00    -0.327 N 
HETATM    9  H   UNL     1      26.658  44.118  52.264  1.00  0.00     0.169 HD
HETATM   10  O   UNL     1      26.591  47.170  53.140  1.00  0.00    -0.273 OA
BRANCH   8  11
HETATM   11  C   UNL     1      28.066  44.667  53.677  1.00  0.00     0.036 A 
HETATM   12  C   UNL     1      28.235  45.359  54.876  1.00  0.00     0.053 A 
HETATM   13  C   UNL     1      29.263  45.007  55.760  1.00  0.00     0.042 A 
HETATM   14  C   UNL     1      30.141  43.955  55.464  1.00  0.00    -0.040 A 
HETATM   15 CL   UNL     1      29.407  45.907  57.231  1.00  0.00    -0.084 Cl
HETATM   16  C   UNL     1      31.238  43.542  56.405  1.00  0.00     0.050 C 
HETATM   17  C   UNL     1      29.982  43.280  54.247  1.00  0.00     0.011 A 
HETATM   18  C   UNL     1      28.961  43.639  53.362  1.00  0.00     0.030 A 
ENDBRANCH   8  11
ENDBRANCH   6   7
ENDBRANCH   1   6
BRANCH   3  19
HETATM   19  N   UNL     1      23.694  49.814  48.647  1.00  0.00    -0.287 N 
HETATM   20  C   UNL     1      22.350  49.683  48.446  1.00  0.00     0.326 C 
HETATM   21  N   UNL     1      21.741  48.594  49.007  1.00  0.00    -0.309 N 
HETATM   22  O   UNL     1      21.794  50.559  47.785  1.00  0.00    -0.247 OA
HETATM   23  H   UNL     1      22.317  48.059  49.650  1.00  0.00     0.170 HD
HETATM   24  H   UNL     1      24.105  50.651  48.259  1.00  0.00     0.172 HD
BRANCH  21  25
HETATM   25  C   UNL     1      20.398  48.187  48.869  1.00  0.00     0.036 A 
HETATM   26  C   UNL     1      19.942  47.348  47.849  1.00  0.00     0.032 A 
HETATM   27  C   UNL     1      18.601  46.951  47.805  1.00  0.00     0.044 A 
HETATM   28  C   UNL     1      17.719  47.396  48.782  1.00  0.00     0.116 A 
HETATM   29  F   UNL     1      16.439  47.006  48.742  1.00  0.00    -0.206 F 
HETATM   30  C   UNL     1      18.152  48.235  49.800  1.00  0.00     0.044 A 
HETATM   31  C   UNL     1      19.491  48.630  49.843  1.00  0.00     0.032 A 
ENDBRANCH  21  25
ENDBRANCH   3  19
TORSDOF 5
ENDMDL
MODEL 8
REMARK VINA RESULT:      -8.7      6.653      9.695
REMARK  5 active torsions:
REMARK  status: ('A' for Active; 'I' for Inactive)
REMARK    1  A    between atoms: C_6  and  N_7 
REMARK       I    between atoms: N_7  and  C_8 
REMARK    2  A    between atoms: C_8  and  C_9 
REMARK    3  A    between atoms: C_9  and  C_10 
REMARK    4  A    between atoms: C_12  and  N_13 
REMARK       I    between atoms: N_13  and  C_14 
REMARK       I    between atoms: C_14  and  N_15 
REMARK    5  A    between atoms: N_15  and  C_16 
ROOT
HETATM    1  C   UNL     1      22.477  45.221  48.541  1.00  0.00     0.052 A 
HETATM    2  N   UNL     1      22.484  46.615  48.520  1.00  0.00    -0.228 NA
HETATM    3  C   UNL     1      23.507  47.056  49.213  1.00  0.00     0.174 A 
HETATM    4  S   UNL     1      24.518  45.885  49.922  1.00  0.00    -0.062 SA
HETATM    5  C   UNL     1      23.516  44.659  49.266  1.00  0.00     0.081 A 
ENDROOT
BRANCH   1   6
HETATM    6  C   UNL     1      21.402  44.442  47.846  1.00  0.00     0.163 C 
BRANCH   6   7
HETATM    7  C   UNL     1      20.149  45.181  47.396  1.00  0.00     0.227 C 
HETATM    8  N   UNL     1      19.797  46.297  48.128  1.00  0.00    -0.327 N 
HETATM    9  H   UNL     1      20.293  46.424  49.007  1.00  0.00     0.169 HD
HETATM   10  O   UNL     1      19.567  44.785  46.385  1.00  0.00    -0.273 OA
BRANCH   8  11
HETATM   11  C   UNL     1      18.728  47.186  47.888  1.00  0.00     0.036 A 
HETATM   12  C   UNL     1      18.797  48.281  47.029  1.00  0.00     0.053 A 
HETATM   13  C   UNL     1      17.673  49.091  46.818  1.00  0.00     0.042 A 
HETATM   14  C   UNL     1      16.457  48.819  47.461  1.00  0.00    -0.040 A 
HETATM   15 CL   UNL     1      17.834  50.429  45.733  1.00  0.00    -0.084 Cl
HETATM   16  C   UNL     1      15.231  49.657  47.235  1.00  0.00     0.050 C 
HETATM   17  C   UNL     1      16.401  47.732  48.342  1.00  0.00     0.011 A 
HETATM   18  C   UNL     1      17.527  46.931  48.558  1.00  0.00     0.030 A 
ENDBRANCH   8  11
ENDBRANCH   6   7
ENDBRANCH   1   6
BRANCH   3  19
HETATM   19  N   UNL     1      23.890  48.342  49.435  1.00  0.00    -0.287 N 
HETATM   20  C   UNL     1      23.085  49.444  49.471  1.00  0.00     0.326 C 
HETATM   21  N   UNL     1      21.734  49.228  49.409  1.00  0.00    -0.309 N 
HETATM   22  O   UNL     1      23.636  50.539  49.565  1.00  0.00    -0.247 OA
HETATM   23  H   UNL     1      21.446  48.258  49.494  1.00  0.00     0.170 HD
HETATM   24  H   UNL     1      24.877  48.532  49.528  1.00  0.00     0.172 HD
BRANCH  21  25
HETATM   25  C   UNL     1      20.707  50.191  49.336  1.00  0.00     0.036 A 
HETATM   26  C   UNL     1      20.719  51.273  48.452  1.00  0.00     0.032 A 
HETATM   27  C   UNL     1      19.640  52.162  48.407  1.00  0.00     0.044 A 
HETATM   28  C   UNL     1      18.552  51.967  49.248  1.00  0.00     0.116 A 
HETATM   29  F   UNL     1      17.516  52.814  49.195  1.00  0.00    -0.206 F 
HETATM   30  C   UNL     1      18.523  50.902  50.137  1.00  0.00     0.044 A 
HETATM   31  C   UNL     1      19.602  50.014  50.181  1.00  0.00     0.032 A 
ENDBRANCH  21  25
ENDBRANCH   3  19
TORSDOF 5
ENDMDL
MODEL 9
REMARK VINA RESULT:      -8.4      4.782      7.202
REMARK  5 active torsions:
REMARK  status: ('A' for Active; 'I' for Inactive)
REMARK    1  A    between atoms: C_6  and  N_7 
REMARK       I    between atoms: N_7  and  C_8 
REMARK    2  A    between atoms: C_8  and  C_9 
REMARK    3  A    between atoms: C_9  and  C_10 
REMARK    4  A    between atoms: C_12  and  N_13 
REMARK       I    between atoms: N_13  and  C_14 
REMARK       I    between atoms: C_14  and  N_15 
REMARK    5  A    between atoms: N_15  and  C_16 
ROOT
HETATM    1  C   UNL     1      23.520  46.683  49.253  1.00  0.00     0.052 A 
HETATM    2  N   UNL     1      23.558  45.313  49.508  1.00  0.00    -0.228 NA
HETATM    3  C   UNL     1      22.812  44.686  48.629  1.00  0.00     0.174 A 
HETATM    4  S   UNL     1      22.033  45.644  47.459  1.00  0.00    -0.062 SA
HETATM    5  C   UNL     1      22.730  47.038  48.171  1.00  0.00     0.081 A 
ENDROOT
BRANCH   1   6
HETATM    6  C   UNL     1      24.266  47.654  50.118  1.00  0.00     0.163 C 
BRANCH   6   7
HETATM    7  C   UNL     1      25.560  47.191  50.774  1.00  0.00     0.227 C 
HETATM    8  N   UNL     1      25.450  46.180  51.706  1.00  0.00    -0.327 N 
HETATM    9  H   UNL     1      24.505  45.958  52.009  1.00  0.00     0.169 HD
HETATM   10  O   UNL     1      26.620  47.692  50.395  1.00  0.00    -0.273 OA
BRANCH   8  11
HETATM   11  C   UNL     1      26.490  45.534  52.408  1.00  0.00     0.036 A 
HETATM   12  C   UNL     1      26.897  45.876  53.696  1.00  0.00     0.053 A 
HETATM   13  C   UNL     1      27.913  45.154  54.336  1.00  0.00     0.042 A 
HETATM   14  C   UNL     1      28.541  44.074  53.700  1.00  0.00    -0.040 A 
HETATM   15 CL   UNL     1      28.360  45.635  55.937  1.00  0.00    -0.084 Cl
HETATM   16  C   UNL     1      29.617  43.269  54.372  1.00  0.00     0.050 C 
HETATM   17  C   UNL     1      28.145  43.751  52.397  1.00  0.00     0.011 A 
HETATM   18  C   UNL     1      27.137  44.479  51.756  1.00  0.00     0.030 A 
ENDBRANCH   8  11
ENDBRANCH   6   7
ENDBRANCH   1   6
BRANCH   3  19
HETATM   19  N   UNL     1      22.586  43.350  48.510  1.00  0.00    -0.287 N 
HETATM   20  C   UNL     1      23.481  42.343  48.727  1.00  0.00     0.326 C 
HETATM   21  N   UNL     1      24.698  42.695  49.244  1.00  0.00    -0.309 N 
HETATM   22  O   UNL     1      23.119  41.201  48.449  1.00  0.00    -0.247 OA
HETATM   23  H   UNL     1      24.773  43.656  49.561  1.00  0.00     0.170 HD
HETATM   24  H   UNL     1      21.682  43.053  48.171  1.00  0.00     0.172 HD
BRANCH  21  25
HETATM   25  C   UNL     1      25.815  41.864  49.469  1.00  0.00     0.036 A 
HETATM   26  C   UNL     1      26.864  41.710  48.557  1.00  0.00     0.032 A 
HETATM   27  C   UNL     1      27.961  40.901  48.873  1.00  0.00     0.044 A 
HETATM   28  C   UNL     1      28.007  40.249  50.097  1.00  0.00     0.116 A 
HETATM   29  F   UNL     1      29.064  39.484  50.399  1.00  0.00    -0.206 F 
HETATM   30  C   UNL     1      26.974  40.385  51.014  1.00  0.00     0.044 A 
HETATM   31  C   UNL     1      25.877  41.192  50.698  1.00  0.00     0.032 A 
ENDBRANCH  21  25
ENDBRANCH   3  19
TORSDOF 5
ENDMDL
MODEL 10
REMARK VINA RESULT:      -8.4      4.858     10.536
REMARK  5 active torsions:
REMARK  status: ('A' for Active; 'I' for Inactive)
REMARK    1  A    between atoms: C_6  and  N_7 
REMARK       I    between atoms: N_7  and  C_8 
REMARK    2  A    between atoms: C_8  and  C_9 
REMARK    3  A    between atoms: C_9  and  C_10 
REMARK    4  A    between atoms: C_12  and  N_13 
REMARK       I    between atoms: N_13  and  C_14 
REMARK       I    between atoms: C_14  and  N_15 
REMARK    5  A    between atoms: N_15  and  C_16 
ROOT
HETATM    1  C   UNL     1      24.045  45.232  49.971  1.00  0.00     0.052 A 
HETATM    2  N   UNL     1      24.631  46.378  50.507  1.00  0.00    -0.228 NA
HETATM    3  C   UNL     1      25.008  46.137  51.741  1.00  0.00     0.174 A 
HETATM    4  S   UNL     1      24.710  44.575  52.346  1.00  0.00    -0.062 SA
HETATM    5  C   UNL     1      24.002  44.155  50.842  1.00  0.00     0.081 A 
ENDROOT
BRANCH   1   6
HETATM    6  C   UNL     1      23.498  45.222  48.576  1.00  0.00     0.163 C 
BRANCH   6   7
HETATM    7  C   UNL     1      22.615  46.383  48.137  1.00  0.00     0.227 C 
HETATM    8  N   UNL     1      22.256  47.286  49.117  1.00  0.00    -0.327 N 
HETATM    9  H   UNL     1      22.454  47.003  50.073  1.00  0.00     0.169 HD
HETATM   10  O   UNL     1      22.330  46.484  46.943  1.00  0.00    -0.273 OA
BRANCH   8  11
HETATM   11  C   UNL     1      21.503  48.470  48.967  1.00  0.00     0.036 A 
HETATM   12  C   UNL     1      20.125  48.553  49.163  1.00  0.00     0.053 A 
HETATM   13  C   UNL     1      19.461  49.780  49.032  1.00  0.00     0.042 A 
HETATM   14  C   UNL     1      20.163  50.948  48.705  1.00  0.00    -0.040 A 
HETATM   15 CL   UNL     1      17.751  49.805  49.295  1.00  0.00    -0.084 Cl
HETATM   16  C   UNL     1      19.479  52.281  48.581  1.00  0.00     0.050 C 
HETATM   17  C   UNL     1      21.542  50.855  48.485  1.00  0.00     0.011 A 
HETATM   18  C   UNL     1      22.202  49.627  48.607  1.00  0.00     0.030 A 
ENDBRANCH   8  11
ENDBRANCH   6   7
ENDBRANCH   1   6
BRANCH   3  19
HETATM   19  N   UNL     1      25.631  46.973  52.615  1.00  0.00    -0.287 N 
HETATM   20  C   UNL     1      26.704  46.682  53.406  1.00  0.00     0.326 C 
HETATM   21  N   UNL     1      27.307  45.468  53.213  1.00  0.00    -0.309 N 
HETATM   22  O   UNL     1      27.049  47.536  54.220  1.00  0.00    -0.247 OA
HETATM   23  H   UNL     1      26.994  44.954  52.396  1.00  0.00     0.170 HD
HETATM   24  H   UNL     1      25.237  47.893  52.750  1.00  0.00     0.172 HD
BRANCH  21  25
HETATM   25  C   UNL     1      28.362  44.899  53.955  1.00  0.00     0.036 A 
HETATM   26  C   UNL     1      28.866  45.450  55.137  1.00  0.00     0.032 A 
HETATM   27  C   UNL     1      29.886  44.801  55.842  1.00  0.00     0.044 A 
HETATM   28  C   UNL     1      30.398  43.603  55.363  1.00  0.00     0.116 A 
HETATM   29  F   UNL     1      31.367  42.979  56.046  1.00  0.00    -0.206 F 
HETATM   30  C   UNL     1      29.915  43.041  54.190  1.00  0.00     0.044 A 
HETATM   31  C   UNL     1      28.897  43.690  53.486  1.00  0.00     0.032 A 
ENDBRANCH  21  25
ENDBRANCH   3  19
TORSDOF 5
ENDMDL
