MODEL 1
REMARK VINA RESULT:      -9.1      0.000      0.000
REMARK  7 active torsions:
REMARK  status: ('A' for Active; 'I' for Inactive)
REMARK    1  A    between atoms: C_2  and  C_3 
REMARK    2  A    between atoms: C_2  and  C_20 
REMARK    3  A    between atoms: C_3  and  C_4 
REMARK       I    between atoms: C_4  and  N_5 
REMARK    4  A    between atoms: N_5  and  C_6 
REMARK    5  A    between atoms: C_13  and  C_14 
REMARK       I    between atoms: C_14  and  N_15 
REMARK    6  A    between atoms: C_20  and  C_21 
REMARK    7  A    between atoms: C_22  and  O_23 
ROOT
HETATM    1  C   UNL     1      25.596  44.332  53.095  1.00  0.00     0.222 C 
HETATM    2  N   UNL     1      26.928  44.397  52.719  1.00  0.00    -0.327 N 
HETATM    3  O   UNL     1      25.159  43.931  54.166  1.00  0.00    -0.273 OA
HETATM    4  H   UNL     1      27.115  44.698  51.771  1.00  0.00     0.169 HD
ENDROOT
BRANCH   2   5
HETATM    5  C   UNL     1      28.066  44.125  53.507  1.00  0.00     0.035 A 
HETATM    6  C   UNL     1      28.371  44.791  54.702  1.00  0.00     0.046 A 
HETATM    7  C   UNL     1      29.551  44.457  55.404  1.00  0.00     0.030 A 
HETATM    8  C   UNL     1      30.384  43.473  54.885  1.00  0.00     0.063 A 
HETATM    9  C   UNL     1      30.191  44.884  56.607  1.00  0.00     0.156 A 
HETATM   10  N   UNL     1      31.426  43.380  55.764  1.00  0.00    -0.277 N 
HETATM   11  C   UNL     1      30.111  42.788  53.701  1.00  0.00     0.034 A 
HETATM   12  H   UNL     1      32.228  42.762  55.701  1.00  0.00     0.189 HD
HETATM   13  N   UNL     1      31.346  44.211  56.815  1.00  0.00    -0.168 NA
HETATM   14  C   UNL     1      28.935  43.134  53.027  1.00  0.00     0.032 A 
BRANCH   9  15
HETATM   15  C   UNL     1      29.732  45.910  57.556  1.00  0.00     0.270 C 
HETATM   16  N   UNL     1      30.712  46.375  58.390  1.00  0.00    -0.365 N 
HETATM   17  H   UNL     1      31.646  45.994  58.302  1.00  0.00     0.159 HD
HETATM   18  H   UNL     1      30.489  47.075  59.079  1.00  0.00     0.159 HD
HETATM   19  O   UNL     1      28.585  46.334  57.626  1.00  0.00    -0.266 OA
ENDBRANCH   9  15
ENDBRANCH   2   5
BRANCH   1  20
HETATM   20  C   UNL     1      24.671  44.799  51.975  1.00  0.00     0.107 C 
BRANCH  20  21
HETATM   21  C   UNL     1      25.394  45.619  50.894  1.00  0.00    -0.006 C 
HETATM   22  C   UNL     1      25.405  44.941  49.519  1.00  0.00     0.011 C 
BRANCH  21  23
HETATM   23  C   UNL     1      24.910  47.089  50.835  1.00  0.00     0.046 C 
BRANCH  23  24
HETATM   24  C   UNL     1      25.478  48.121  49.872  1.00  0.00    -0.024 A 
HETATM   25  C   UNL     1      24.572  48.890  49.101  1.00  0.00     0.074 A 
HETATM   26  C   UNL     1      25.044  49.840  48.186  1.00  0.00     0.037 A 
HETATM   27  C   UNL     1      26.412  50.059  48.041  1.00  0.00     0.003 A 
HETATM   28  C   UNL     1      27.311  49.334  48.810  1.00  0.00     0.001 A 
HETATM   29  C   UNL     1      26.848  48.379  49.718  1.00  0.00     0.010 A 
BRANCH  25  30
HETATM   30  O   UNL     1      23.239  48.623  49.301  1.00  0.00    -0.355 OA
HETATM   31  C   UNL     1      22.499  48.148  48.183  1.00  0.00     0.210 C 
ENDBRANCH  25  30
ENDBRANCH  23  24
ENDBRANCH  21  23
ENDBRANCH  20  21
ENDBRANCH   1  20
TORSDOF 7
ENDMDL
MODEL 2
REMARK VINA RESULT:      -9.0      3.123      8.484
REMARK  7 active torsions:
REMARK  status: ('A' for Active; 'I' for Inactive)
REMARK    1  A    between atoms: C_2  and  C_3 
REMARK    2  A    between atoms: C_2  and  C_20 
REMARK    3  A    between atoms: C_3  and  C_4 
REMARK       I    between atoms: C_4  and  N_5 
REMARK    4  A    between atoms: N_5  and  C_6 
REMARK    5  A    between atoms: C_13  and  C_14 
REMARK       I    between atoms: C_14  and  N_15 
REMARK    6  A    between atoms: C_20  and  C_21 
REMARK    7  A    between atoms: C_22  and  O_23 
ROOT
HETATM    1  C   UNL     1      26.945  43.607  52.839  1.00  0.00     0.222 C 
HETATM    2  N   UNL     1      25.685  43.185  52.445  1.00  0.00    -0.327 N 
HETATM    3  O   UNL     1      27.661  44.409  52.253  1.00  0.00    -0.273 OA
HETATM    4  H   UNL     1      25.252  42.469  53.014  1.00  0.00     0.169 HD
ENDROOT
BRANCH   2   5
HETATM    5  C   UNL     1      24.912  43.654  51.362  1.00  0.00     0.035 A 
HETATM    6  C   UNL     1      24.753  45.009  51.040  1.00  0.00     0.046 A 
HETATM    7  C   UNL     1      23.936  45.372  49.946  1.00  0.00     0.030 A 
HETATM    8  C   UNL     1      23.305  44.371  49.217  1.00  0.00     0.063 A 
HETATM    9  C   UNL     1      23.535  46.591  49.318  1.00  0.00     0.156 A 
HETATM   10  N   UNL     1      22.595  45.021  48.247  1.00  0.00    -0.277 N 
HETATM   11  C   UNL     1      23.443  43.014  49.508  1.00  0.00     0.034 A 
HETATM   12  H   UNL     1      22.010  44.602  47.533  1.00  0.00     0.189 HD
HETATM   13  N   UNL     1      22.708  46.357  48.273  1.00  0.00    -0.168 NA
HETATM   14  C   UNL     1      24.261  42.679  50.593  1.00  0.00     0.032 A 
BRANCH   9  15
HETATM   15  C   UNL     1      23.919  47.962  49.688  1.00  0.00     0.270 C 
HETATM   16  N   UNL     1      22.877  48.850  49.690  1.00  0.00    -0.365 N 
HETATM   17  H   UNL     1      21.954  48.516  49.444  1.00  0.00     0.159 HD
HETATM   18  H   UNL     1      23.046  49.815  49.924  1.00  0.00     0.159 HD
HETATM   19  O   UNL     1      25.056  48.318  49.973  1.00  0.00    -0.266 OA
ENDBRANCH   9  15
ENDBRANCH   2   5
BRANCH   1  20
HETATM   20  C   UNL     1      27.396  42.916  54.122  1.00  0.00     0.107 C 
BRANCH  20  21
HETATM   21  C   UNL     1      28.789  42.274  54.007  1.00  0.00    -0.006 C 
HETATM   22  C   UNL     1      28.955  41.397  52.760  1.00  0.00     0.011 C 
BRANCH  21  23
HETATM   23  C   UNL     1      29.937  43.299  54.177  1.00  0.00     0.046 C 
BRANCH  23  24
HETATM   24  C   UNL     1      30.354  43.875  55.522  1.00  0.00    -0.024 A 
HETATM   25  C   UNL     1      29.838  45.139  55.900  1.00  0.00     0.074 A 
HETATM   26  C   UNL     1      30.206  45.722  57.119  1.00  0.00     0.037 A 
HETATM   27  C   UNL     1      31.066  45.054  57.988  1.00  0.00     0.003 A 
HETATM   28  C   UNL     1      31.558  43.803  57.645  1.00  0.00     0.001 A 
HETATM   29  C   UNL     1      31.202  43.219  56.426  1.00  0.00     0.010 A 
BRANCH  25  30
HETATM   30  O   UNL     1      28.992  45.735  54.996  1.00  0.00    -0.355 OA
HETATM   31  C   UNL     1      28.083  46.705  55.503  1.00  0.00     0.210 C 
ENDBRANCH  25  30
ENDBRANCH  23  24
ENDBRANCH  21  23
ENDBRANCH  20  21
ENDBRANCH   1  20
TORSDOF 7
ENDMDL
MODEL 3
REMARK VINA RESULT:      -9.0      3.138      8.865
REMARK  7 active torsions:
REMARK  status: ('A' for Active; 'I' for Inactive)
REMARK    1  A    between atoms: C_2  and  C_3 
REMARK    2  A    between atoms: C_2  and  C_20 
REMARK    3  A    between atoms: C_3  and  C_4 
REMARK       I    between atoms: C_4  and  N_5 
REMARK    4  A    between atoms: N_5  and  C_6 
REMARK    5  A    between atoms: C_13  and  C_14 
REMARK       I    between atoms: C_14  and  N_15 
REMARK    6  A    between atoms: C_20  and  C_21 
REMARK    7  A    between atoms: C_22  and  O_23 
ROOT
HETATM    1  C   UNL     1      26.635  44.554  50.975  1.00  0.00     0.222 C 
HETATM    2  N   UNL     1      25.841  45.664  51.212  1.00  0.00    -0.327 N 
HETATM    3  O   UNL     1      27.268  44.315  49.955  1.00  0.00    -0.273 OA
HETATM    4  H   UNL     1      25.336  45.678  52.089  1.00  0.00     0.169 HD
ENDROOT
BRANCH   2   5
HETATM    5  C   UNL     1      25.671  46.800  50.394  1.00  0.00     0.035 A 
HETATM    6  C   UNL     1      24.436  47.220  49.881  1.00  0.00     0.046 A 
HETATM    7  C   UNL     1      24.380  48.362  49.050  1.00  0.00     0.030 A 
HETATM    8  C   UNL     1      25.557  49.040  48.760  1.00  0.00     0.063 A 
HETATM    9  C   UNL     1      23.360  49.084  48.358  1.00  0.00     0.156 A 
HETATM   10  N   UNL     1      25.190  50.074  47.946  1.00  0.00    -0.277 N 
HETATM   11  C   UNL     1      26.803  48.653  49.256  1.00  0.00     0.034 A 
HETATM   12  H   UNL     1      25.796  50.777  47.537  1.00  0.00     0.189 HD
HETATM   13  N   UNL     1      23.876  50.137  47.682  1.00  0.00    -0.168 NA
HETATM   14  C   UNL     1      26.832  47.521  50.079  1.00  0.00     0.032 A 
BRANCH   9  15
HETATM   15  C   UNL     1      21.918  48.798  48.327  1.00  0.00     0.270 C 
HETATM   16  N   UNL     1      21.244  49.213  49.444  1.00  0.00    -0.365 N 
HETATM   17  H   UNL     1      21.765  49.666  50.185  1.00  0.00     0.159 HD
HETATM   18  H   UNL     1      20.252  49.053  49.516  1.00  0.00     0.159 HD
HETATM   19  O   UNL     1      21.335  48.240  47.406  1.00  0.00    -0.266 OA
ENDBRANCH   9  15
ENDBRANCH   2   5
BRANCH   1  20
HETATM   20  C   UNL     1      26.618  43.585  52.154  1.00  0.00     0.107 C 
BRANCH  20  21
HETATM   21  C   UNL     1      27.214  44.183  53.439  1.00  0.00    -0.006 C 
HETATM   22  C   UNL     1      26.596  43.613  54.720  1.00  0.00     0.011 C 
BRANCH  21  23
HETATM   23  C   UNL     1      28.763  44.150  53.451  1.00  0.00     0.046 C 
BRANCH  23  24
HETATM   24  C   UNL     1      29.592  44.186  54.726  1.00  0.00    -0.024 A 
HETATM   25  C   UNL     1      29.571  45.368  55.506  1.00  0.00     0.074 A 
HETATM   26  C   UNL     1      30.332  45.460  56.679  1.00  0.00     0.037 A 
HETATM   27  C   UNL     1      31.099  44.379  57.107  1.00  0.00     0.003 A 
HETATM   28  C   UNL     1      31.107  43.203  56.369  1.00  0.00     0.001 A 
HETATM   29  C   UNL     1      30.358  43.108  55.193  1.00  0.00     0.010 A 
BRANCH  25  30
HETATM   30  O   UNL     1      28.789  46.390  55.026  1.00  0.00    -0.355 OA
HETATM   31  C   UNL     1      27.857  46.972  55.929  1.00  0.00     0.210 C 
ENDBRANCH  25  30
ENDBRANCH  23  24
ENDBRANCH  21  23
ENDBRANCH  20  21
ENDBRANCH   1  20
TORSDOF 7
ENDMDL
MODEL 4
REMARK VINA RESULT:      -8.7      4.604      8.081
REMARK  7 active torsions:
REMARK  status: ('A' for Active; 'I' for Inactive)
REMARK    1  A    between atoms: C_2  and  C_3 
REMARK    2  A    between atoms: C_2  and  C_20 
REMARK    3  A    between atoms: C_3  and  C_4 
REMARK       I    between atoms: C_4  and  N_5 
REMARK    4  A    between atoms: N_5  and  C_6 
REMARK    5  A    between atoms: C_13  and  C_14 
REMARK       I    between atoms: C_14  and  N_15 
REMARK    6  A    between atoms: C_20  and  C_21 
REMARK    7  A    between atoms: C_22  and  O_23 
ROOT
HETATM    1  C   UNL     1      26.567  43.728  50.564  1.00  0.00     0.222 C 
HETATM    2  N   UNL     1      26.323  42.364  50.570  1.00  0.00    -0.327 N 
HETATM    3  O   UNL     1      27.354  44.325  49.842  1.00  0.00    -0.273 OA
HETATM    4  H   UNL     1      25.682  42.023  51.275  1.00  0.00     0.169 HD
ENDROOT
BRANCH   2   5
HETATM    5  C   UNL     1      26.835  41.387  49.690  1.00  0.00     0.035 A 
HETATM    6  C   UNL     1      27.652  40.321  50.091  1.00  0.00     0.046 A 
HETATM    7  C   UNL     1      28.132  39.410  49.123  1.00  0.00     0.030 A 
HETATM    8  C   UNL     1      27.781  39.598  47.792  1.00  0.00     0.063 A 
HETATM    9  C   UNL     1      28.953  38.241  49.125  1.00  0.00     0.156 A 
HETATM   10  N   UNL     1      28.389  38.583  47.109  1.00  0.00    -0.277 N 
HETATM   11  C   UNL     1      26.968  40.645  47.358  1.00  0.00     0.034 A 
HETATM   12  H   UNL     1      28.354  38.408  46.111  1.00  0.00     0.189 HD
HETATM   13  N   UNL     1      29.102  37.743  47.876  1.00  0.00    -0.168 NA
HETATM   14  C   UNL     1      26.503  41.532  48.335  1.00  0.00     0.032 A 
BRANCH   9  15
HETATM   15  C   UNL     1      29.592  37.592  50.280  1.00  0.00     0.270 C 
HETATM   16  N   UNL     1      28.819  36.633  50.877  1.00  0.00    -0.365 N 
HETATM   17  H   UNL     1      27.898  36.448  50.500  1.00  0.00     0.159 HD
HETATM   18  H   UNL     1      29.172  36.140  51.682  1.00  0.00     0.159 HD
HETATM   19  O   UNL     1      30.711  37.858  50.701  1.00  0.00    -0.266 OA
ENDBRANCH   9  15
ENDBRANCH   2   5
BRANCH   1  20
HETATM   20  C   UNL     1      25.743  44.452  51.625  1.00  0.00     0.107 C 
BRANCH  20  21
HETATM   21  C   UNL     1      26.587  45.364  52.530  1.00  0.00    -0.006 C 
HETATM   22  C   UNL     1      26.092  46.814  52.565  1.00  0.00     0.011 C 
BRANCH  21  23
HETATM   23  C   UNL     1      26.805  44.769  53.943  1.00  0.00     0.046 C 
BRANCH  23  24
HETATM   24  C   UNL     1      28.179  44.508  54.540  1.00  0.00    -0.024 A 
HETATM   25  C   UNL     1      28.843  43.306  54.194  1.00  0.00     0.074 A 
HETATM   26  C   UNL     1      30.102  43.008  54.731  1.00  0.00     0.037 A 
HETATM   27  C   UNL     1      30.729  43.903  55.594  1.00  0.00     0.003 A 
HETATM   28  C   UNL     1      30.104  45.098  55.921  1.00  0.00     0.001 A 
HETATM   29  C   UNL     1      28.844  45.398  55.395  1.00  0.00     0.010 A 
BRANCH  25  30
HETATM   30  O   UNL     1      28.167  42.474  53.334  1.00  0.00    -0.355 OA
HETATM   31  C   UNL     1      28.361  41.075  53.501  1.00  0.00     0.210 C 
ENDBRANCH  25  30
ENDBRANCH  23  24
ENDBRANCH  21  23
ENDBRANCH  20  21
ENDBRANCH   1  20
TORSDOF 7
ENDMDL
MODEL 5
REMARK VINA RESULT:      -8.5      3.907      7.824
REMARK  7 active torsions:
REMARK  status: ('A' for Active; 'I' for Inactive)
REMARK    1  A    between atoms: C_2  and  C_3 
REMARK    2  A    between atoms: C_2  and  C_20 
REMARK    3  A    between atoms: C_3  and  C_4 
REMARK       I    between atoms: C_4  and  N_5 
REMARK    4  A    between atoms: N_5  and  C_6 
REMARK    5  A    between atoms: C_13  and  C_14 
REMARK       I    between atoms: C_14  and  N_15 
REMARK    6  A    between atoms: C_20  and  C_21 
REMARK    7  A    between atoms: C_22  and  O_23 
ROOT
HETATM    1  C   UNL     1      25.917  45.792  52.068  1.00  0.00     0.222 C 
HETATM    2  N   UNL     1      25.259  44.583  52.231  1.00  0.00    -0.327 N 
HETATM    3  O   UNL     1      26.654  46.101  51.140  1.00  0.00    -0.273 OA
HETATM    4  H   UNL     1      24.734  44.468  53.088  1.00  0.00     0.169 HD
ENDROOT
BRANCH   2   5
HETATM    5  C   UNL     1      25.202  43.498  51.331  1.00  0.00     0.035 A 
HETATM    6  C   UNL     1      26.258  42.603  51.114  1.00  0.00     0.046 A 
HETATM    7  C   UNL     1      26.105  41.561  50.171  1.00  0.00     0.030 A 
HETATM    8  C   UNL     1      24.905  41.454  49.479  1.00  0.00     0.063 A 
HETATM    9  C   UNL     1      26.909  40.487  49.682  1.00  0.00     0.156 A 
HETATM   10  N   UNL     1      25.058  40.377  48.652  1.00  0.00    -0.277 N 
HETATM   11  C   UNL     1      23.832  42.325  49.672  1.00  0.00     0.034 A 
HETATM   12  H   UNL     1      24.379  40.006  47.996  1.00  0.00     0.189 HD
HETATM   13  N   UNL     1      26.250  39.767  48.746  1.00  0.00    -0.168 NA
HETATM   14  C   UNL     1      24.007  43.346  50.613  1.00  0.00     0.032 A 
BRANCH   9  15
HETATM   15  C   UNL     1      28.279  40.134  50.083  1.00  0.00     0.270 C 
HETATM   16  N   UNL     1      29.136  39.947  49.031  1.00  0.00    -0.365 N 
HETATM   17  H   UNL     1      28.780  40.057  48.090  1.00  0.00     0.159 HD
HETATM   18  H   UNL     1      30.095  39.695  49.209  1.00  0.00     0.159 HD
HETATM   19  O   UNL     1      28.659  40.007  51.240  1.00  0.00    -0.266 OA
ENDBRANCH   9  15
ENDBRANCH   2   5
BRANCH   1  20
HETATM   20  C   UNL     1      25.652  46.740  53.233  1.00  0.00     0.107 C 
BRANCH  20  21
HETATM   21  C   UNL     1      26.857  46.896  54.174  1.00  0.00    -0.006 C 
HETATM   22  C   UNL     1      26.830  48.193  54.990  1.00  0.00     0.011 C 
BRANCH  21  23
HETATM   23  C   UNL     1      27.100  45.641  55.049  1.00  0.00     0.046 C 
BRANCH  23  24
HETATM   24  C   UNL     1      28.320  44.743  54.907  1.00  0.00    -0.024 A 
HETATM   25  C   UNL     1      29.465  45.039  55.686  1.00  0.00     0.074 A 
HETATM   26  C   UNL     1      30.620  44.254  55.579  1.00  0.00     0.037 A 
HETATM   27  C   UNL     1      30.650  43.157  54.721  1.00  0.00     0.003 A 
HETATM   28  C   UNL     1      29.526  42.837  53.972  1.00  0.00     0.001 A 
HETATM   29  C   UNL     1      28.372  43.620  54.068  1.00  0.00     0.010 A 
BRANCH  25  30
HETATM   30  O   UNL     1      29.361  46.131  56.513  1.00  0.00    -0.355 OA
HETATM   31  C   UNL     1      29.575  45.915  57.902  1.00  0.00     0.210 C 
ENDBRANCH  25  30
ENDBRANCH  23  24
ENDBRANCH  21  23
ENDBRANCH  20  21
ENDBRANCH   1  20
TORSDOF 7
ENDMDL
MODEL 6
REMARK VINA RESULT:      -8.2      4.559      8.051
REMARK  7 active torsions:
REMARK  status: ('A' for Active; 'I' for Inactive)
REMARK    1  A    between atoms: C_2  and  C_3 
REMARK    2  A    between atoms: C_2  and  C_20 
REMARK    3  A    between atoms: C_3  and  C_4 
REMARK       I    between atoms: C_4  and  N_5 
REMARK    4  A    between atoms: N_5  and  C_6 
REMARK    5  A    between atoms: C_13  and  C_14 
REMARK       I    between atoms: C_14  and  N_15 
REMARK    6  A    between atoms: C_20  and  C_21 
REMARK    7  A    between atoms: C_22  and  O_23 
ROOT
HETATM    1  C   UNL     1      25.787  43.748  51.575  1.00  0.00     0.222 C 
HETATM    2  N   UNL     1      25.376  42.429  51.464  1.00  0.00    -0.327 N 
HETATM    3  O   UNL     1      26.645  44.303  50.900  1.00  0.00    -0.273 OA
HETATM    4  H   UNL     1      24.696  42.111  52.143  1.00  0.00     0.169 HD
ENDROOT
BRANCH   2   5
HETATM    5  C   UNL     1      25.765  41.477  50.500  1.00  0.00     0.035 A 
HETATM    6  C   UNL     1      26.727  40.482  50.723  1.00  0.00     0.046 A 
HETATM    7  C   UNL     1      27.061  39.590  49.678  1.00  0.00     0.030 A 
HETATM    8  C   UNL     1      26.426  39.727  48.450  1.00  0.00     0.063 A 
HETATM    9  C   UNL     1      27.950  38.485  49.511  1.00  0.00     0.156 A 
HETATM   10  N   UNL     1      26.953  38.746  47.657  1.00  0.00    -0.277 N 
HETATM   11  C   UNL     1      25.463  40.703  48.193  1.00  0.00     0.034 A 
HETATM   12  H   UNL     1      26.722  38.551  46.690  1.00  0.00     0.189 HD
HETATM   13  N   UNL     1      27.872  37.976  48.260  1.00  0.00    -0.168 NA
HETATM   14  C   UNL     1      25.146  41.572  49.245  1.00  0.00     0.032 A 
BRANCH   9  15
HETATM   15  C   UNL     1      28.864  37.907  50.507  1.00  0.00     0.270 C 
HETATM   16  N   UNL     1      28.607  36.595  50.804  1.00  0.00    -0.365 N 
HETATM   17  H   UNL     1      27.835  36.135  50.338  1.00  0.00     0.159 HD
HETATM   18  H   UNL     1      29.178  36.116  51.482  1.00  0.00     0.159 HD
HETATM   19  O   UNL     1      29.783  38.510  51.047  1.00  0.00    -0.266 OA
ENDBRANCH   9  15
ENDBRANCH   2   5
BRANCH   1  20
HETATM   20  C   UNL     1      25.057  44.474  52.701  1.00  0.00     0.107 C 
BRANCH  20  21
HETATM   21  C   UNL     1      25.913  44.647  53.966  1.00  0.00    -0.006 C 
HETATM   22  C   UNL     1      25.926  43.407  54.867  1.00  0.00     0.011 C 
BRANCH  21  23
HETATM   23  C   UNL     1      27.333  45.182  53.659  1.00  0.00     0.046 C 
BRANCH  23  24
HETATM   24  C   UNL     1      28.607  44.507  54.145  1.00  0.00    -0.024 A 
HETATM   25  C   UNL     1      29.168  44.939  55.372  1.00  0.00     0.074 A 
HETATM   26  C   UNL     1      30.350  44.363  55.855  1.00  0.00     0.037 A 
HETATM   27  C   UNL     1      30.977  43.340  55.147  1.00  0.00     0.003 A 
HETATM   28  C   UNL     1      30.424  42.887  53.958  1.00  0.00     0.001 A 
HETATM   29  C   UNL     1      29.249  43.462  53.465  1.00  0.00     0.010 A 
BRANCH  25  30
HETATM   30  O   UNL     1      28.494  45.947  56.018  1.00  0.00    -0.355 OA
HETATM   31  C   UNL     1      28.837  46.188  57.377  1.00  0.00     0.210 C 
ENDBRANCH  25  30
ENDBRANCH  23  24
ENDBRANCH  21  23
ENDBRANCH  20  21
ENDBRANCH   1  20
TORSDOF 7
ENDMDL
MODEL 7
REMARK VINA RESULT:      -8.1      4.107      9.103
REMARK  7 active torsions:
REMARK  status: ('A' for Active; 'I' for Inactive)
REMARK    1  A    between atoms: C_2  and  C_3 
REMARK    2  A    between atoms: C_2  and  C_20 
REMARK    3  A    between atoms: C_3  and  C_4 
REMARK       I    between atoms: C_4  and  N_5 
REMARK    4  A    between atoms: N_5  and  C_6 
REMARK    5  A    between atoms: C_13  and  C_14 
REMARK       I    between atoms: C_14  and  N_15 
REMARK    6  A    between atoms: C_20  and  C_21 
REMARK    7  A    between atoms: C_22  and  O_23 
ROOT
HETATM    1  C   UNL     1      27.004  43.384  52.676  1.00  0.00     0.222 C 
HETATM    2  N   UNL     1      25.892  42.721  52.183  1.00  0.00    -0.327 N 
HETATM    3  O   UNL     1      27.603  44.305  52.136  1.00  0.00    -0.273 OA
HETATM    4  H   UNL     1      25.554  41.939  52.729  1.00  0.00     0.169 HD
ENDROOT
BRANCH   2   5
HETATM    5  C   UNL     1      25.147  43.020  51.023  1.00  0.00     0.035 A 
HETATM    6  C   UNL     1      25.130  42.219  49.873  1.00  0.00     0.046 A 
HETATM    7  C   UNL     1      24.366  42.623  48.754  1.00  0.00     0.030 A 
HETATM    8  C   UNL     1      23.652  43.813  48.824  1.00  0.00     0.063 A 
HETATM    9  C   UNL     1      24.096  42.108  47.450  1.00  0.00     0.156 A 
HETATM   10  N   UNL     1      23.031  43.935  47.612  1.00  0.00    -0.277 N 
HETATM   11  C   UNL     1      23.643  44.633  49.952  1.00  0.00     0.034 A 
HETATM   12  H   UNL     1      22.425  44.689  47.308  1.00  0.00     0.189 HD
HETATM   13  N   UNL     1      23.272  42.929  46.758  1.00  0.00    -0.168 NA
HETATM   14  C   UNL     1      24.404  44.210  51.048  1.00  0.00     0.032 A 
BRANCH   9  15
HETATM   15  C   UNL     1      24.600  40.863  46.852  1.00  0.00     0.270 C 
HETATM   16  N   UNL     1      24.024  39.729  47.360  1.00  0.00    -0.365 N 
HETATM   17  H   UNL     1      23.323  39.824  48.084  1.00  0.00     0.159 HD
HETATM   18  H   UNL     1      24.312  38.827  47.016  1.00  0.00     0.159 HD
HETATM   19  O   UNL     1      25.457  40.802  45.979  1.00  0.00    -0.266 OA
ENDBRANCH   9  15
ENDBRANCH   2   5
BRANCH   1  20
HETATM   20  C   UNL     1      27.459  42.805  54.012  1.00  0.00     0.107 C 
BRANCH  20  21
HETATM   21  C   UNL     1      28.884  42.230  53.970  1.00  0.00    -0.006 C 
HETATM   22  C   UNL     1      29.148  41.346  52.746  1.00  0.00     0.011 C 
BRANCH  21  23
HETATM   23  C   UNL     1      29.973  43.312  54.175  1.00  0.00     0.046 C 
BRANCH  23  24
HETATM   24  C   UNL     1      30.315  43.910  55.532  1.00  0.00    -0.024 A 
HETATM   25  C   UNL     1      29.662  45.104  55.922  1.00  0.00     0.074 A 
HETATM   26  C   UNL     1      29.955  45.706  57.153  1.00  0.00     0.037 A 
HETATM   27  C   UNL     1      30.876  45.123  58.021  1.00  0.00     0.003 A 
HETATM   28  C   UNL     1      31.503  43.937  57.665  1.00  0.00     0.001 A 
HETATM   29  C   UNL     1      31.222  43.335  56.435  1.00  0.00     0.010 A 
BRANCH  25  30
HETATM   30  O   UNL     1      28.764  45.619  55.019  1.00  0.00    -0.355 OA
HETATM   31  C   UNL     1      28.486  47.011  55.105  1.00  0.00     0.210 C 
ENDBRANCH  25  30
ENDBRANCH  23  24
ENDBRANCH  21  23
ENDBRANCH  20  21
ENDBRANCH   1  20
TORSDOF 7
ENDMDL
MODEL 8
REMARK VINA RESULT:      -8.0      4.951      7.881
REMARK  7 active torsions:
REMARK  status: ('A' for Active; 'I' for Inactive)
REMARK    1  A    between atoms: C_2  and  C_3 
REMARK    2  A    between atoms: C_2  and  C_20 
REMARK    3  A    between atoms: C_3  and  C_4 
REMARK       I    between atoms: C_4  and  N_5 
REMARK    4  A    between atoms: N_5  and  C_6 
REMARK    5  A    between atoms: C_13  and  C_14 
REMARK       I    between atoms: C_14  and  N_15 
REMARK    6  A    between atoms: C_20  and  C_21 
REMARK    7  A    between atoms: C_22  and  O_23 
ROOT
HETATM    1  C   UNL     1      22.104  48.547  48.717  1.00  0.00     0.222 C 
HETATM    2  N   UNL     1      22.984  48.311  49.761  1.00  0.00    -0.327 N 
HETATM    3  O   UNL     1      22.223  48.159  47.562  1.00  0.00    -0.273 OA
HETATM    4  H   UNL     1      22.767  48.757  50.643  1.00  0.00     0.169 HD
ENDROOT
BRANCH   2   5
HETATM    5  C   UNL     1      24.136  47.496  49.758  1.00  0.00     0.035 A 
HETATM    6  C   UNL     1      24.112  46.105  49.925  1.00  0.00     0.046 A 
HETATM    7  C   UNL     1      25.329  45.384  49.930  1.00  0.00     0.030 A 
HETATM    8  C   UNL     1      26.521  46.079  49.770  1.00  0.00     0.063 A 
HETATM    9  C   UNL     1      25.716  44.016  50.065  1.00  0.00     0.156 A 
HETATM   10  N   UNL     1      27.504  45.131  49.823  1.00  0.00    -0.277 N 
HETATM   11  C   UNL     1      26.581  47.462  49.599  1.00  0.00     0.034 A 
HETATM   12  H   UNL     1      28.503  45.280  49.745  1.00  0.00     0.189 HD
HETATM   13  N   UNL     1      27.060  43.877  49.998  1.00  0.00    -0.168 NA
HETATM   14  C   UNL     1      25.364  48.153  49.594  1.00  0.00     0.032 A 
BRANCH   9  15
HETATM   15  C   UNL     1      24.842  42.848  50.254  1.00  0.00     0.270 C 
HETATM   16  N   UNL     1      25.062  41.838  49.357  1.00  0.00    -0.365 N 
HETATM   17  H   UNL     1      25.778  41.962  48.653  1.00  0.00     0.159 HD
HETATM   18  H   UNL     1      24.505  40.999  49.405  1.00  0.00     0.159 HD
HETATM   19  O   UNL     1      23.984  42.750  51.122  1.00  0.00    -0.266 OA
ENDBRANCH   9  15
ENDBRANCH   2   5
BRANCH   1  20
HETATM   20  C   UNL     1      20.928  49.414  49.156  1.00  0.00     0.107 C 
BRANCH  20  21
HETATM   21  C   UNL     1      21.247  50.918  49.150  1.00  0.00    -0.006 C 
HETATM   22  C   UNL     1      22.697  51.232  48.766  1.00  0.00     0.011 C 
BRANCH  21  23
HETATM   23  C   UNL     1      20.218  51.745  48.339  1.00  0.00     0.046 C 
BRANCH  23  24
HETATM   24  C   UNL     1      18.723  51.731  48.620  1.00  0.00    -0.024 A 
HETATM   25  C   UNL     1      17.881  51.018  47.733  1.00  0.00     0.074 A 
HETATM   26  C   UNL     1      16.495  50.990  47.936  1.00  0.00     0.037 A 
HETATM   27  C   UNL     1      15.930  51.643  49.029  1.00  0.00     0.003 A 
HETATM   28  C   UNL     1      16.745  52.323  49.923  1.00  0.00     0.001 A 
HETATM   29  C   UNL     1      18.128  52.362  49.722  1.00  0.00     0.010 A 
BRANCH  25  30
HETATM   30  O   UNL     1      18.508  50.394  46.682  1.00  0.00    -0.355 OA
HETATM   31  C   UNL     1      18.105  49.062  46.387  1.00  0.00     0.210 C 
ENDBRANCH  25  30
ENDBRANCH  23  24
ENDBRANCH  21  23
ENDBRANCH  20  21
ENDBRANCH   1  20
TORSDOF 7
ENDMDL
MODEL 9
REMARK VINA RESULT:      -8.0      3.297      5.833
REMARK  7 active torsions:
REMARK  status: ('A' for Active; 'I' for Inactive)
REMARK    1  A    between atoms: C_2  and  C_3 
REMARK    2  A    between atoms: C_2  and  C_20 
REMARK    3  A    between atoms: C_3  and  C_4 
REMARK       I    between atoms: C_4  and  N_5 
REMARK    4  A    between atoms: N_5  and  C_6 
REMARK    5  A    between atoms: C_13  and  C_14 
REMARK       I    between atoms: C_14  and  N_15 
REMARK    6  A    between atoms: C_20  and  C_21 
REMARK    7  A    between atoms: C_22  and  O_23 
ROOT
HETATM    1  C   UNL     1      22.906  47.382  48.882  1.00  0.00     0.222 C 
HETATM    2  N   UNL     1      24.092  47.681  49.534  1.00  0.00    -0.327 N 
HETATM    3  O   UNL     1      22.406  46.273  48.749  1.00  0.00    -0.273 OA
HETATM    4  H   UNL     1      24.395  48.645  49.500  1.00  0.00     0.169 HD
ENDROOT
BRANCH   2   5
HETATM    5  C   UNL     1      24.920  46.808  50.271  1.00  0.00     0.035 A 
HETATM    6  C   UNL     1      25.342  47.052  51.585  1.00  0.00     0.046 A 
HETATM    7  C   UNL     1      26.192  46.122  52.227  1.00  0.00     0.030 A 
HETATM    8  C   UNL     1      26.590  44.987  51.532  1.00  0.00     0.063 A 
HETATM    9  C   UNL     1      26.817  46.008  53.506  1.00  0.00     0.156 A 
HETATM   10  N   UNL     1      27.396  44.297  52.394  1.00  0.00    -0.277 N 
HETATM   11  C   UNL     1      26.187  44.711  50.225  1.00  0.00     0.034 A 
HETATM   12  H   UNL     1      27.868  43.417  52.220  1.00  0.00     0.189 HD
HETATM   13  N   UNL     1      27.555  44.878  53.593  1.00  0.00    -0.168 NA
HETATM   14  C   UNL     1      25.343  45.645  49.613  1.00  0.00     0.032 A 
BRANCH   9  15
HETATM   15  C   UNL     1      26.726  46.942  54.638  1.00  0.00     0.270 C 
HETATM   16  N   UNL     1      27.890  47.073  55.346  1.00  0.00    -0.365 N 
HETATM   17  H   UNL     1      28.698  46.537  55.055  1.00  0.00     0.159 HD
HETATM   18  H   UNL     1      27.922  47.687  56.144  1.00  0.00     0.159 HD
HETATM   19  O   UNL     1      25.719  47.564  54.953  1.00  0.00    -0.266 OA
ENDBRANCH   9  15
ENDBRANCH   2   5
BRANCH   1  20
HETATM   20  C   UNL     1      22.265  48.629  48.280  1.00  0.00     0.107 C 
BRANCH  20  21
HETATM   21  C   UNL     1      22.694  49.930  48.979  1.00  0.00    -0.006 C 
HETATM   22  C   UNL     1      23.357  50.939  48.035  1.00  0.00     0.011 C 
BRANCH  21  23
HETATM   23  C   UNL     1      21.560  50.556  49.828  1.00  0.00     0.046 C 
BRANCH  23  24
HETATM   24  C   UNL     1      20.196  50.925  49.263  1.00  0.00    -0.024 A 
HETATM   25  C   UNL     1      19.116  50.036  49.483  1.00  0.00     0.074 A 
HETATM   26  C   UNL     1      17.845  50.319  48.967  1.00  0.00     0.037 A 
HETATM   27  C   UNL     1      17.620  51.493  48.252  1.00  0.00     0.003 A 
HETATM   28  C   UNL     1      18.662  52.389  48.053  1.00  0.00     0.001 A 
HETATM   29  C   UNL     1      19.935  52.109  48.557  1.00  0.00     0.010 A 
BRANCH  25  30
HETATM   30  O   UNL     1      19.411  48.901  50.200  1.00  0.00    -0.355 OA
HETATM   31  C   UNL     1      18.646  48.662  51.375  1.00  0.00     0.210 C 
ENDBRANCH  25  30
ENDBRANCH  23  24
ENDBRANCH  21  23
ENDBRANCH  20  21
ENDBRANCH   1  20
TORSDOF 7
ENDMDL
MODEL 10
REMARK VINA RESULT:      -8.0     12.501     14.025
REMARK  7 active torsions:
REMARK  status: ('A' for Active; 'I' for Inactive)
REMARK    1  A    between atoms: C_2  and  C_3 
REMARK    2  A    between atoms: C_2  and  C_20 
REMARK    3  A    between atoms: C_3  and  C_4 
REMARK       I    between atoms: C_4  and  N_5 
REMARK    4  A    between atoms: N_5  and  C_6 
REMARK    5  A    between atoms: C_13  and  C_14 
REMARK       I    between atoms: C_14  and  N_15 
REMARK    6  A    between atoms: C_20  and  C_21 
REMARK    7  A    between atoms: C_22  and  O_23 
ROOT
HETATM    1  C   UNL     1      31.711  47.935  40.319  1.00  0.00     0.222 C 
HETATM    2  N   UNL     1      31.661  49.303  40.535  1.00  0.00    -0.327 N 
HETATM    3  O   UNL     1      32.479  47.141  40.847  1.00  0.00    -0.273 OA
HETATM    4  H   UNL     1      31.004  49.825  39.970  1.00  0.00     0.169 HD
ENDROOT
BRANCH   2   5
HETATM    5  C   UNL     1      32.395  50.060  41.473  1.00  0.00     0.035 A 
HETATM    6  C   UNL     1      33.728  50.452  41.293  1.00  0.00     0.046 A 
HETATM    7  C   UNL     1      34.379  51.191  42.307  1.00  0.00     0.030 A 
HETATM    8  C   UNL     1      33.676  51.509  43.462  1.00  0.00     0.063 A 
HETATM    9  C   UNL     1      35.676  51.757  42.500  1.00  0.00     0.156 A 
HETATM   10  N   UNL     1      34.554  52.207  44.242  1.00  0.00    -0.277 N 
HETATM   11  C   UNL     1      32.347  51.138  43.673  1.00  0.00     0.034 A 
HETATM   12  H   UNL     1      34.382  52.595  45.163  1.00  0.00     0.189 HD
HETATM   13  N   UNL     1      35.768  52.379  43.698  1.00  0.00    -0.168 NA
HETATM   14  C   UNL     1      31.724  50.410  42.653  1.00  0.00     0.032 A 
BRANCH   9  15
HETATM   15  C   UNL     1      36.820  51.719  41.576  1.00  0.00     0.270 C 
HETATM   16  N   UNL     1      36.828  52.736  40.659  1.00  0.00    -0.365 N 
HETATM   17  H   UNL     1      36.075  53.412  40.677  1.00  0.00     0.159 HD
HETATM   18  H   UNL     1      37.571  52.788  39.980  1.00  0.00     0.159 HD
HETATM   19  O   UNL     1      37.705  50.873  41.592  1.00  0.00    -0.266 OA
ENDBRANCH   9  15
ENDBRANCH   2   5
BRANCH   1  20
HETATM   20  C   UNL     1      30.687  47.491  39.279  1.00  0.00     0.107 C 
BRANCH  20  21
HETATM   21  C   UNL     1      29.234  47.760  39.704  1.00  0.00    -0.006 C 
HETATM   22  C   UNL     1      29.045  47.820  41.224  1.00  0.00     0.011 C 
BRANCH  21  23
HETATM   23  C   UNL     1      28.612  48.975  38.973  1.00  0.00     0.046 C 
BRANCH  23  24
HETATM   24  C   UNL     1      28.680  50.399  39.505  1.00  0.00    -0.024 A 
HETATM   25  C   UNL     1      29.646  51.275  38.953  1.00  0.00     0.074 A 
HETATM   26  C   UNL     1      29.764  52.591  39.420  1.00  0.00     0.037 A 
HETATM   27  C   UNL     1      28.914  53.062  40.418  1.00  0.00     0.003 A 
HETATM   28  C   UNL     1      27.943  52.224  40.949  1.00  0.00     0.001 A 
HETATM   29  C   UNL     1      27.826  50.908  40.493  1.00  0.00     0.010 A 
BRANCH  25  30
HETATM   30  O   UNL     1      30.446  50.743  37.970  1.00  0.00    -0.355 OA
HETATM   31  C   UNL     1      31.766  51.262  37.858  1.00  0.00     0.210 C 
ENDBRANCH  25  30
ENDBRANCH  23  24
ENDBRANCH  21  23
ENDBRANCH  20  21
ENDBRANCH   1  20
TORSDOF 7
ENDMDL
