MODEL 1
REMARK VINA RESULT:     -10.1      0.000      0.000
REMARK  5 active torsions:
REMARK  status: ('A' for Active; 'I' for Inactive)
REMARK    1  A    between atoms: C_4  and  N_5 
REMARK       I    between atoms: N_5  and  C_6 
REMARK       I    between atoms: C_6  and  N_7 
REMARK    2  A    between atoms: N_7  and  C_8 
REMARK    3  A    between atoms: C_17  and  C_18 
REMARK       I    between atoms: C_18  and  N_19 
REMARK    4  A    between atoms: N_19  and  C_20 
REMARK    5  A    between atoms: C_20  and  C_21 
ROOT
HETATM    1  C   UNL     1      27.428  41.949  50.027  1.00  0.00     0.072 C 
HETATM    2  C   UNL     1      26.579  42.864  50.837  1.00  0.00     0.056 C 
HETATM    3  N   UNL     1      25.575  43.584  50.189  1.00  0.00    -0.228 NA
HETATM    4  C   UNL     1      24.987  44.392  51.038  1.00  0.00     0.175 C 
HETATM    5  S   UNL     1      25.464  44.222  52.657  1.00  0.00    -0.044 SA
HETATM    6  C   UNL     1      26.709  43.139  52.190  1.00  0.00     0.100 C 
ENDROOT
BRANCH   4   7
HETATM    7  N   UNL     1      24.063  45.322  50.630  1.00  0.00    -0.287 N 
HETATM    8  C   UNL     1      24.330  46.642  50.317  1.00  0.00     0.326 C 
HETATM    9  N   UNL     1      23.212  47.261  49.775  1.00  0.00    -0.309 N 
HETATM   10  O   UNL     1      25.410  47.199  50.467  1.00  0.00    -0.247 OA
HETATM   11  H   UNL     1      22.342  46.754  49.830  1.00  0.00     0.170 HD
HETATM   12  H   UNL     1      23.185  44.909  50.364  1.00  0.00     0.172 HD
BRANCH   9  13
HETATM   13  C   UNL     1      23.147  48.550  49.196  1.00  0.00     0.037 A 
HETATM   14  C   UNL     1      22.006  49.359  49.206  1.00  0.00     0.053 A 
HETATM   15  C   UNL     1      22.039  50.630  48.629  1.00  0.00     0.036 A 
HETATM   16 CL   UNL     1      20.627  51.616  48.651  1.00  0.00    -0.084 Cl
HETATM   17  C   UNL     1      23.204  51.113  48.040  1.00  0.00     0.024 A 
HETATM   18  C   UNL     1      24.346  50.317  48.026  1.00  0.00     0.004 A 
HETATM   19  C   UNL     1      24.316  49.042  48.600  1.00  0.00     0.029 A 
ENDBRANCH   9  13
ENDBRANCH   4   7
BRANCH   6  20
HETATM   20  C   UNL     1      27.722  42.699  53.133  1.00  0.00     0.260 C 
HETATM   21  N   UNL     1      28.828  43.514  53.207  1.00  0.00    -0.352 N 
HETATM   22  H   UNL     1      28.814  44.385  52.690  1.00  0.00     0.163 HD
HETATM   23  O   UNL     1      27.642  41.660  53.781  1.00  0.00    -0.267 OA
BRANCH  21  24
HETATM   24  C   UNL     1      30.065  43.110  53.828  1.00  0.00     0.161 C 
BRANCH  24  25
HETATM   25  C   UNL     1      30.253  43.811  55.153  1.00  0.00    -0.040 A 
HETATM   26  C   UNL     1      29.536  44.981  55.448  1.00  0.00     0.012 A 
HETATM   27  C   UNL     1      29.714  45.631  56.672  1.00  0.00     0.043 A 
HETATM   28  C   UNL     1      30.608  45.115  57.603  1.00  0.00     0.116 A 
HETATM   29  F   UNL     1      30.784  45.748  58.770  1.00  0.00    -0.206 F 
HETATM   30  C   UNL     1      31.317  43.951  57.341  1.00  0.00     0.043 A 
HETATM   31  C   UNL     1      31.132  43.293  56.125  1.00  0.00     0.012 A 
ENDBRANCH  24  25
ENDBRANCH  21  24
ENDBRANCH   6  20
TORSDOF 5
ENDMDL
MODEL 2
REMARK VINA RESULT:      -9.9      2.544      3.608
REMARK  5 active torsions:
REMARK  status: ('A' for Active; 'I' for Inactive)
REMARK    1  A    between atoms: C_4  and  N_5 
REMARK       I    between atoms: N_5  and  C_6 
REMARK       I    between atoms: C_6  and  N_7 
REMARK    2  A    between atoms: N_7  and  C_8 
REMARK    3  A    between atoms: C_17  and  C_18 
REMARK       I    between atoms: C_18  and  N_19 
REMARK    4  A    between atoms: N_19  and  C_20 
REMARK    5  A    between atoms: C_20  and  C_21 
ROOT
HETATM    1  C   UNL     1      27.956  47.310  49.356  1.00  0.00     0.072 C 
HETATM    2  C   UNL     1      26.533  46.926  49.556  1.00  0.00     0.056 C 
HETATM    3  N   UNL     1      25.565  47.930  49.529  1.00  0.00    -0.228 NA
HETATM    4  C   UNL     1      24.387  47.421  49.801  1.00  0.00     0.175 C 
HETATM    5  S   UNL     1      24.334  45.731  49.930  1.00  0.00    -0.044 SA
HETATM    6  C   UNL     1      26.044  45.657  49.832  1.00  0.00     0.100 C 
ENDROOT
BRANCH   4   7
HETATM    7  N   UNL     1      23.282  48.215  49.986  1.00  0.00    -0.287 N 
HETATM    8  C   UNL     1      22.646  48.956  49.007  1.00  0.00     0.326 C 
HETATM    9  N   UNL     1      21.465  49.504  49.487  1.00  0.00    -0.309 N 
HETATM   10  O   UNL     1      23.045  49.099  47.859  1.00  0.00    -0.247 OA
HETATM   11  H   UNL     1      21.307  49.443  50.481  1.00  0.00     0.170 HD
HETATM   12  H   UNL     1      22.826  48.049  50.868  1.00  0.00     0.172 HD
BRANCH   9  13
HETATM   13  C   UNL     1      20.476  50.186  48.740  1.00  0.00     0.037 A 
HETATM   14  C   UNL     1      19.701  49.595  47.737  1.00  0.00     0.053 A 
HETATM   15  C   UNL     1      18.729  50.340  47.067  1.00  0.00     0.036 A 
HETATM   16 CL   UNL     1      17.782  49.598  45.835  1.00  0.00    -0.084 Cl
HETATM   17  C   UNL     1      18.513  51.677  47.386  1.00  0.00     0.024 A 
HETATM   18  C   UNL     1      19.277  52.276  48.384  1.00  0.00     0.004 A 
HETATM   19  C   UNL     1      20.253  51.534  49.056  1.00  0.00     0.029 A 
ENDBRANCH   9  13
ENDBRANCH   4   7
BRANCH   6  20
HETATM   20  C   UNL     1      26.764  44.420  50.082  1.00  0.00     0.260 C 
HETATM   21  N   UNL     1      27.172  44.249  51.385  1.00  0.00    -0.352 N 
HETATM   22  H   UNL     1      26.866  44.927  52.073  1.00  0.00     0.163 HD
HETATM   23  O   UNL     1      27.042  43.607  49.207  1.00  0.00    -0.267 OA
BRANCH  21  24
HETATM   24  C   UNL     1      28.152  43.269  51.781  1.00  0.00     0.161 C 
BRANCH  24  25
HETATM   25  C   UNL     1      28.785  43.647  53.101  1.00  0.00    -0.040 A 
HETATM   26  C   UNL     1      28.224  44.661  53.894  1.00  0.00     0.012 A 
HETATM   27  C   UNL     1      28.812  45.014  55.111  1.00  0.00     0.043 A 
HETATM   28  C   UNL     1      29.959  44.355  55.539  1.00  0.00     0.116 A 
HETATM   29  F   UNL     1      30.525  44.704  56.702  1.00  0.00    -0.206 F 
HETATM   30  C   UNL     1      30.523  43.339  54.781  1.00  0.00     0.043 A 
HETATM   31  C   UNL     1      29.931  42.976  53.570  1.00  0.00     0.012 A 
ENDBRANCH  24  25
ENDBRANCH  21  24
ENDBRANCH   6  20
TORSDOF 5
ENDMDL
MODEL 3
REMARK VINA RESULT:      -9.8      4.878     10.672
REMARK  5 active torsions:
REMARK  status: ('A' for Active; 'I' for Inactive)
REMARK    1  A    between atoms: C_4  and  N_5 
REMARK       I    between atoms: N_5  and  C_6 
REMARK       I    between atoms: C_6  and  N_7 
REMARK    2  A    between atoms: N_7  and  C_8 
REMARK    3  A    between atoms: C_17  and  C_18 
REMARK       I    between atoms: C_18  and  N_19 
REMARK    4  A    between atoms: N_19  and  C_20 
REMARK    5  A    between atoms: C_20  and  C_21 
ROOT
HETATM    1  C   UNL     1      21.874  46.600  47.706  1.00  0.00     0.072 C 
HETATM    2  C   UNL     1      23.023  46.830  48.623  1.00  0.00     0.056 C 
HETATM    3  N   UNL     1      23.455  45.770  49.422  1.00  0.00    -0.228 NA
HETATM    4  C   UNL     1      24.416  46.176  50.217  1.00  0.00     0.175 C 
HETATM    5  S   UNL     1      24.969  47.756  49.948  1.00  0.00    -0.044 SA
HETATM    6  C   UNL     1      23.698  48.023  48.828  1.00  0.00     0.100 C 
ENDROOT
BRANCH   4   7
HETATM    7  N   UNL     1      24.920  45.372  51.210  1.00  0.00    -0.287 N 
HETATM    8  C   UNL     1      26.238  44.974  51.337  1.00  0.00     0.326 C 
HETATM    9  N   UNL     1      26.445  44.314  52.539  1.00  0.00    -0.309 N 
HETATM   10  O   UNL     1      27.122  45.190  50.518  1.00  0.00    -0.247 OA
HETATM   11  H   UNL     1      25.622  44.067  53.069  1.00  0.00     0.170 HD
HETATM   12  H   UNL     1      24.284  45.261  51.982  1.00  0.00     0.172 HD
BRANCH   9  13
HETATM   13  C   UNL     1      27.683  43.903  53.085  1.00  0.00     0.037 A 
HETATM   14  C   UNL     1      28.312  44.529  54.167  1.00  0.00     0.053 A 
HETATM   15  C   UNL     1      29.525  44.040  54.656  1.00  0.00     0.036 A 
HETATM   16 CL   UNL     1      30.286  44.820  55.989  1.00  0.00    -0.084 Cl
HETATM   17  C   UNL     1      30.125  42.924  54.081  1.00  0.00     0.024 A 
HETATM   18  C   UNL     1      29.507  42.291  53.005  1.00  0.00     0.004 A 
HETATM   19  C   UNL     1      28.294  42.780  52.511  1.00  0.00     0.029 A 
ENDBRANCH   9  13
ENDBRANCH   4   7
BRANCH   6  20
HETATM   20  C   UNL     1      23.426  49.347  48.294  1.00  0.00     0.260 C 
HETATM   21  N   UNL     1      22.431  50.035  48.950  1.00  0.00    -0.352 N 
HETATM   22  H   UNL     1      22.041  49.624  49.791  1.00  0.00     0.163 HD
HETATM   23  O   UNL     1      23.987  49.810  47.307  1.00  0.00    -0.267 OA
BRANCH  21  24
HETATM   24  C   UNL     1      21.793  51.208  48.407  1.00  0.00     0.161 C 
BRANCH  24  25
HETATM   25  C   UNL     1      20.364  51.312  48.885  1.00  0.00    -0.040 A 
HETATM   26  C   UNL     1      19.532  52.343  48.422  1.00  0.00     0.012 A 
HETATM   27  C   UNL     1      18.211  52.441  48.868  1.00  0.00     0.043 A 
HETATM   28  C   UNL     1      17.720  51.511  49.776  1.00  0.00     0.116 A 
HETATM   29  F   UNL     1      16.456  51.616  50.210  1.00  0.00    -0.206 F 
HETATM   30  C   UNL     1      18.518  50.474  50.237  1.00  0.00     0.043 A 
HETATM   31  C   UNL     1      19.833  50.365  49.784  1.00  0.00     0.012 A 
ENDBRANCH  24  25
ENDBRANCH  21  24
ENDBRANCH   6  20
TORSDOF 5
ENDMDL
MODEL 4
REMARK VINA RESULT:      -9.4      2.713      4.265
REMARK  5 active torsions:
REMARK  status: ('A' for Active; 'I' for Inactive)
REMARK    1  A    between atoms: C_4  and  N_5 
REMARK       I    between atoms: N_5  and  C_6 
REMARK       I    between atoms: C_6  and  N_7 
REMARK    2  A    between atoms: N_7  and  C_8 
REMARK    3  A    between atoms: C_17  and  C_18 
REMARK       I    between atoms: C_18  and  N_19 
REMARK    4  A    between atoms: N_19  and  C_20 
REMARK    5  A    between atoms: C_20  and  C_21 
ROOT
HETATM    1  C   UNL     1      25.766  47.372  52.392  1.00  0.00     0.072 C 
HETATM    2  C   UNL     1      25.066  47.060  51.117  1.00  0.00     0.056 C 
HETATM    3  N   UNL     1      24.600  48.120  50.339  1.00  0.00    -0.228 NA
HETATM    4  C   UNL     1      23.944  47.657  49.302  1.00  0.00     0.175 C 
HETATM    5  S   UNL     1      23.990  45.974  49.101  1.00  0.00    -0.044 SA
HETATM    6  C   UNL     1      24.760  45.801  50.623  1.00  0.00     0.100 C 
ENDROOT
BRANCH   4   7
HETATM    7  N   UNL     1      23.254  48.488  48.454  1.00  0.00    -0.287 N 
HETATM    8  C   UNL     1      21.933  48.871  48.596  1.00  0.00     0.326 C 
HETATM    9  N   UNL     1      21.596  49.849  47.671  1.00  0.00    -0.309 N 
HETATM   10  O   UNL     1      21.158  48.435  49.437  1.00  0.00    -0.247 OA
HETATM   11  H   UNL     1      22.265  50.030  46.937  1.00  0.00     0.170 HD
HETATM   12  H   UNL     1      23.855  48.982  47.817  1.00  0.00     0.172 HD
BRANCH   9  13
HETATM   13  C   UNL     1      20.392  50.590  47.612  1.00  0.00     0.037 A 
HETATM   14  C   UNL     1      19.363  50.345  46.698  1.00  0.00     0.053 A 
HETATM   15  C   UNL     1      18.197  51.114  46.728  1.00  0.00     0.036 A 
HETATM   16 CL   UNL     1      16.938  50.800  45.596  1.00  0.00    -0.084 Cl
HETATM   17  C   UNL     1      18.039  52.129  47.666  1.00  0.00     0.024 A 
HETATM   18  C   UNL     1      19.056  52.379  48.583  1.00  0.00     0.004 A 
HETATM   19  C   UNL     1      20.226  51.614  48.554  1.00  0.00     0.029 A 
ENDBRANCH   9  13
ENDBRANCH   4   7
BRANCH   6  20
HETATM   20  C   UNL     1      24.950  44.495  51.230  1.00  0.00     0.260 C 
HETATM   21  N   UNL     1      26.221  44.263  51.704  1.00  0.00    -0.352 N 
HETATM   22  H   UNL     1      26.883  45.030  51.686  1.00  0.00     0.163 HD
HETATM   23  O   UNL     1      24.077  43.634  51.278  1.00  0.00    -0.267 OA
BRANCH  21  24
HETATM   24  C   UNL     1      26.706  42.950  52.050  1.00  0.00     0.161 C 
BRANCH  24  25
HETATM   25  C   UNL     1      27.927  43.047  52.935  1.00  0.00    -0.040 A 
HETATM   26  C   UNL     1      29.010  42.172  52.750  1.00  0.00     0.012 A 
HETATM   27  C   UNL     1      30.137  42.258  53.572  1.00  0.00     0.043 A 
HETATM   28  C   UNL     1      30.185  43.216  54.578  1.00  0.00     0.116 A 
HETATM   29  F   UNL     1      31.263  43.288  55.370  1.00  0.00    -0.206 F 
HETATM   30  C   UNL     1      29.134  44.102  54.770  1.00  0.00     0.043 A 
HETATM   31  C   UNL     1      28.013  44.027  53.943  1.00  0.00     0.012 A 
ENDBRANCH  24  25
ENDBRANCH  21  24
ENDBRANCH   6  20
TORSDOF 5
ENDMDL
MODEL 5
REMARK VINA RESULT:      -9.2      3.245      4.719
REMARK  5 active torsions:
REMARK  status: ('A' for Active; 'I' for Inactive)
REMARK    1  A    between atoms: C_4  and  N_5 
REMARK       I    between atoms: N_5  and  C_6 
REMARK       I    between atoms: C_6  and  N_7 
REMARK    2  A    between atoms: N_7  and  C_8 
REMARK    3  A    between atoms: C_17  and  C_18 
REMARK       I    between atoms: C_18  and  N_19 
REMARK    4  A    between atoms: N_19  and  C_20 
REMARK    5  A    between atoms: C_20  and  C_21 
ROOT
HETATM    1  C   UNL     1      27.224  48.626  49.592  1.00  0.00     0.072 C 
HETATM    2  C   UNL     1      25.897  47.956  49.626  1.00  0.00     0.056 C 
HETATM    3  N   UNL     1      24.753  48.741  49.475  1.00  0.00    -0.228 NA
HETATM    4  C   UNL     1      23.682  47.997  49.611  1.00  0.00     0.175 C 
HETATM    5  S   UNL     1      23.962  46.331  49.748  1.00  0.00    -0.044 SA
HETATM    6  C   UNL     1      25.650  46.610  49.854  1.00  0.00     0.100 C 
ENDROOT
BRANCH   4   7
HETATM    7  N   UNL     1      22.423  48.545  49.657  1.00  0.00    -0.287 N 
HETATM    8  C   UNL     1      21.385  48.257  48.791  1.00  0.00     0.326 C 
HETATM    9  N   UNL     1      20.203  48.847  49.217  1.00  0.00    -0.309 N 
HETATM   10  O   UNL     1      21.473  47.557  47.790  1.00  0.00    -0.247 OA
HETATM   11  H   UNL     1      20.275  49.516  49.969  1.00  0.00     0.170 HD
HETATM   12  H   UNL     1      22.240  49.029  50.520  1.00  0.00     0.172 HD
BRANCH   9  13
HETATM   13  C   UNL     1      18.909  48.650  48.681  1.00  0.00     0.037 A 
HETATM   14  C   UNL     1      18.428  49.290  47.534  1.00  0.00     0.053 A 
HETATM   15  C   UNL     1      17.142  49.017  47.062  1.00  0.00     0.036 A 
HETATM   16 CL   UNL     1      16.565  49.813  45.648  1.00  0.00    -0.084 Cl
HETATM   17  C   UNL     1      16.323  48.105  47.719  1.00  0.00     0.024 A 
HETATM   18  C   UNL     1      16.792  47.460  48.860  1.00  0.00     0.004 A 
HETATM   19  C   UNL     1      18.078  47.733  49.337  1.00  0.00     0.029 A 
ENDBRANCH   9  13
ENDBRANCH   4   7
BRANCH   6  20
HETATM   20  C   UNL     1      26.574  45.543  50.199  1.00  0.00     0.260 C 
HETATM   21  N   UNL     1      26.383  45.004  51.450  1.00  0.00    -0.352 N 
HETATM   22  H   UNL     1      25.578  45.310  51.984  1.00  0.00     0.163 HD
HETATM   23  O   UNL     1      27.490  45.175  49.471  1.00  0.00    -0.267 OA
BRANCH  21  24
HETATM   24  C   UNL     1      27.360  44.172  52.107  1.00  0.00     0.161 C 
BRANCH  24  25
HETATM   25  C   UNL     1      27.787  44.783  53.421  1.00  0.00    -0.040 A 
HETATM   26  C   UNL     1      28.888  44.266  54.122  1.00  0.00     0.012 A 
HETATM   27  C   UNL     1      29.279  44.827  55.340  1.00  0.00     0.043 A 
HETATM   28  C   UNL     1      28.573  45.905  55.860  1.00  0.00     0.116 A 
HETATM   29  F   UNL     1      28.945  46.434  57.034  1.00  0.00    -0.206 F 
HETATM   30  C   UNL     1      27.490  46.444  55.179  1.00  0.00     0.043 A 
HETATM   31  C   UNL     1      27.105  45.893  53.957  1.00  0.00     0.012 A 
ENDBRANCH  24  25
ENDBRANCH  21  24
ENDBRANCH   6  20
TORSDOF 5
ENDMDL
MODEL 6
REMARK VINA RESULT:      -9.1      2.871      3.575
REMARK  5 active torsions:
REMARK  status: ('A' for Active; 'I' for Inactive)
REMARK    1  A    between atoms: C_4  and  N_5 
REMARK       I    between atoms: N_5  and  C_6 
REMARK       I    between atoms: C_6  and  N_7 
REMARK    2  A    between atoms: N_7  and  C_8 
REMARK    3  A    between atoms: C_17  and  C_18 
REMARK       I    between atoms: C_18  and  N_19 
REMARK    4  A    between atoms: N_19  and  C_20 
REMARK    5  A    between atoms: C_20  and  C_21 
ROOT
HETATM    1  C   UNL     1      26.135  47.381  54.087  1.00  0.00     0.072 C 
HETATM    2  C   UNL     1      25.939  46.746  52.756  1.00  0.00     0.056 C 
HETATM    3  N   UNL     1      25.197  47.434  51.796  1.00  0.00    -0.228 NA
HETATM    4  C   UNL     1      25.062  46.693  50.722  1.00  0.00     0.175 C 
HETATM    5  S   UNL     1      25.936  45.240  50.723  1.00  0.00    -0.044 SA
HETATM    6  C   UNL     1      26.371  45.488  52.363  1.00  0.00     0.100 C 
ENDROOT
BRANCH   4   7
HETATM    7  N   UNL     1      24.249  47.070  49.681  1.00  0.00    -0.287 N 
HETATM    8  C   UNL     1      23.212  46.322  49.154  1.00  0.00     0.326 C 
HETATM    9  N   UNL     1      22.484  47.061  48.233  1.00  0.00    -0.309 N 
HETATM   10  O   UNL     1      22.943  45.169  49.466  1.00  0.00    -0.247 OA
HETATM   11  H   UNL     1      22.878  47.945  47.947  1.00  0.00     0.170 HD
HETATM   12  H   UNL     1      24.328  48.048  49.460  1.00  0.00     0.172 HD
BRANCH   9  13
HETATM   13  C   UNL     1      21.271  46.689  47.608  1.00  0.00     0.037 A 
HETATM   14  C   UNL     1      20.020  46.735  48.232  1.00  0.00     0.053 A 
HETATM   15  C   UNL     1      18.869  46.371  47.530  1.00  0.00     0.036 A 
HETATM   16 CL   UNL     1      17.335  46.433  48.312  1.00  0.00    -0.084 Cl
HETATM   17  C   UNL     1      18.946  45.962  46.202  1.00  0.00     0.024 A 
HETATM   18  C   UNL     1      20.185  45.915  45.570  1.00  0.00     0.004 A 
HETATM   19  C   UNL     1      21.341  46.276  46.271  1.00  0.00     0.029 A 
ENDBRANCH   9  13
ENDBRANCH   4   7
BRANCH   6  20
HETATM   20  C   UNL     1      27.027  44.449  53.138  1.00  0.00     0.260 C 
HETATM   21  N   UNL     1      28.375  44.645  53.332  1.00  0.00    -0.352 N 
HETATM   22  H   UNL     1      28.780  45.519  53.018  1.00  0.00     0.163 HD
HETATM   23  O   UNL     1      26.456  43.443  53.547  1.00  0.00    -0.267 OA
BRANCH  21  24
HETATM   24  C   UNL     1      29.265  43.606  53.789  1.00  0.00     0.161 C 
BRANCH  24  25
HETATM   25  C   UNL     1      29.883  43.976  55.117  1.00  0.00    -0.040 A 
HETATM   26  C   UNL     1      30.830  43.134  55.720  1.00  0.00     0.012 A 
HETATM   27  C   UNL     1      31.398  43.473  56.951  1.00  0.00     0.043 A 
HETATM   28  C   UNL     1      31.022  44.654  57.581  1.00  0.00     0.116 A 
HETATM   29  F   UNL     1      31.561  44.970  58.766  1.00  0.00    -0.206 F 
HETATM   30  C   UNL     1      30.099  45.511  56.998  1.00  0.00     0.043 A 
HETATM   31  C   UNL     1      29.540  45.180  55.763  1.00  0.00     0.012 A 
ENDBRANCH  24  25
ENDBRANCH  21  24
ENDBRANCH   6  20
TORSDOF 5
ENDMDL
MODEL 7
REMARK VINA RESULT:      -9.0      1.914      2.656
REMARK  5 active torsions:
REMARK  status: ('A' for Active; 'I' for Inactive)
REMARK    1  A    between atoms: C_4  and  N_5 
REMARK       I    between atoms: N_5  and  C_6 
REMARK       I    between atoms: C_6  and  N_7 
REMARK    2  A    between atoms: N_7  and  C_8 
REMARK    3  A    between atoms: C_17  and  C_18 
REMARK       I    between atoms: C_18  and  N_19 
REMARK    4  A    between atoms: N_19  and  C_20 
REMARK    5  A    between atoms: C_20  and  C_21 
ROOT
HETATM    1  C   UNL     1      24.995  42.634  48.687  1.00  0.00     0.072 C 
HETATM    2  C   UNL     1      25.050  43.777  49.638  1.00  0.00     0.056 C 
HETATM    3  N   UNL     1      24.325  44.929  49.332  1.00  0.00    -0.228 NA
HETATM    4  C   UNL     1      24.555  45.852  50.236  1.00  0.00     0.175 C 
HETATM    5  S   UNL     1      25.485  45.359  51.564  1.00  0.00    -0.044 SA
HETATM    6  C   UNL     1      25.804  43.857  50.799  1.00  0.00     0.100 C 
ENDROOT
BRANCH   4   7
HETATM    7  N   UNL     1      24.084  47.134  50.094  1.00  0.00    -0.287 N 
HETATM    8  C   UNL     1      22.946  47.505  49.401  1.00  0.00     0.326 C 
HETATM    9  N   UNL     1      22.659  48.848  49.598  1.00  0.00    -0.309 N 
HETATM   10  O   UNL     1      22.259  46.756  48.719  1.00  0.00    -0.247 OA
HETATM   11  H   UNL     1      23.367  49.401  50.058  1.00  0.00     0.170 HD
HETATM   12  H   UNL     1      24.521  47.782  50.727  1.00  0.00     0.172 HD
BRANCH   9  13
HETATM   13  C   UNL     1      21.500  49.543  49.182  1.00  0.00     0.037 A 
HETATM   14  C   UNL     1      20.218  48.984  49.148  1.00  0.00     0.053 A 
HETATM   15  C   UNL     1      19.125  49.754  48.744  1.00  0.00     0.036 A 
HETATM   16 CL   UNL     1      17.552  49.052  48.709  1.00  0.00    -0.084 Cl
HETATM   17  C   UNL     1      19.290  51.085  48.374  1.00  0.00     0.024 A 
HETATM   18  C   UNL     1      20.561  51.653  48.407  1.00  0.00     0.004 A 
HETATM   19  C   UNL     1      21.659  50.884  48.808  1.00  0.00     0.029 A 
ENDBRANCH   9  13
ENDBRANCH   4   7
BRANCH   6  20
HETATM   20  C   UNL     1      26.778  42.925  51.339  1.00  0.00     0.260 C 
HETATM   21  N   UNL     1      26.774  42.824  52.712  1.00  0.00    -0.352 N 
HETATM   22  H   UNL     1      26.051  43.315  53.224  1.00  0.00     0.163 HD
HETATM   23  O   UNL     1      27.585  42.309  50.650  1.00  0.00    -0.267 OA
BRANCH  21  24
HETATM   24  C   UNL     1      27.844  42.213  53.460  1.00  0.00     0.161 C 
BRANCH  24  25
HETATM   25  C   UNL     1      28.580  43.245  54.283  1.00  0.00    -0.040 A 
HETATM   26  C   UNL     1      29.848  42.959  54.813  1.00  0.00     0.012 A 
HETATM   27  C   UNL     1      30.526  43.911  55.579  1.00  0.00     0.043 A 
HETATM   28  C   UNL     1      29.940  45.149  55.815  1.00  0.00     0.116 A 
HETATM   29  F   UNL     1      30.589  46.056  56.559  1.00  0.00    -0.206 F 
HETATM   30  C   UNL     1      28.694  45.461  55.290  1.00  0.00     0.043 A 
HETATM   31  C   UNL     1      28.020  44.517  54.515  1.00  0.00     0.012 A 
ENDBRANCH  24  25
ENDBRANCH  21  24
ENDBRANCH   6  20
TORSDOF 5
ENDMDL
MODEL 8
REMARK VINA RESULT:      -8.7      4.566      9.861
REMARK  5 active torsions:
REMARK  status: ('A' for Active; 'I' for Inactive)
REMARK    1  A    between atoms: C_4  and  N_5 
REMARK       I    between atoms: N_5  and  C_6 
REMARK       I    between atoms: C_6  and  N_7 
REMARK    2  A    between atoms: N_7  and  C_8 
REMARK    3  A    between atoms: C_17  and  C_18 
REMARK       I    between atoms: C_18  and  N_19 
REMARK    4  A    between atoms: N_19  and  C_20 
REMARK    5  A    between atoms: C_20  and  C_21 
ROOT
HETATM    1  C   UNL     1      23.553  42.507  46.805  1.00  0.00     0.072 C 
HETATM    2  C   UNL     1      23.692  43.054  48.182  1.00  0.00     0.056 C 
HETATM    3  N   UNL     1      24.733  42.580  48.981  1.00  0.00    -0.228 NA
HETATM    4  C   UNL     1      24.651  43.109  50.178  1.00  0.00     0.175 C 
HETATM    5  S   UNL     1      23.466  44.307  50.368  1.00  0.00    -0.044 SA
HETATM    6  C   UNL     1      22.851  43.963  48.805  1.00  0.00     0.100 C 
ENDROOT
BRANCH   4   7
HETATM    7  N   UNL     1      25.464  42.700  51.207  1.00  0.00    -0.287 N 
HETATM    8  C   UNL     1      26.561  43.387  51.692  1.00  0.00     0.326 C 
HETATM    9  N   UNL     1      27.056  42.788  52.841  1.00  0.00    -0.309 N 
HETATM   10  O   UNL     1      27.032  44.404  51.199  1.00  0.00    -0.247 OA
HETATM   11  H   UNL     1      26.684  41.879  53.076  1.00  0.00     0.170 HD
HETATM   12  H   UNL     1      25.069  41.943  51.738  1.00  0.00     0.172 HD
BRANCH   9  13
HETATM   13  C   UNL     1      28.063  43.288  53.700  1.00  0.00     0.037 A 
HETATM   14  C   UNL     1      27.947  44.466  54.444  1.00  0.00     0.053 A 
HETATM   15  C   UNL     1      28.985  44.873  55.285  1.00  0.00     0.036 A 
HETATM   16 CL   UNL     1      28.827  46.326  56.197  1.00  0.00    -0.084 Cl
HETATM   17  C   UNL     1      30.145  44.114  55.400  1.00  0.00     0.024 A 
HETATM   18  C   UNL     1      30.270  42.937  54.666  1.00  0.00     0.004 A 
HETATM   19  C   UNL     1      29.234  42.529  53.820  1.00  0.00     0.029 A 
ENDBRANCH   9  13
ENDBRANCH   4   7
BRANCH   6  20
HETATM   20  C   UNL     1      21.602  44.542  48.339  1.00  0.00     0.260 C 
HETATM   21  N   UNL     1      21.351  45.812  48.804  1.00  0.00    -0.352 N 
HETATM   22  H   UNL     1      22.076  46.275  49.340  1.00  0.00     0.163 HD
HETATM   23  O   UNL     1      20.798  43.944  47.632  1.00  0.00    -0.267 OA
BRANCH  21  24
HETATM   24  C   UNL     1      20.055  46.438  48.727  1.00  0.00     0.161 C 
BRANCH  24  25
HETATM   25  C   UNL     1      20.186  47.943  48.730  1.00  0.00    -0.040 A 
HETATM   26  C   UNL     1      19.541  48.711  49.713  1.00  0.00     0.012 A 
HETATM   27  C   UNL     1      19.658  50.104  49.712  1.00  0.00     0.043 A 
HETATM   28  C   UNL     1      20.418  50.731  48.732  1.00  0.00     0.116 A 
HETATM   29  F   UNL     1      20.519  52.067  48.729  1.00  0.00    -0.206 F 
HETATM   30  C   UNL     1      21.077  49.993  47.759  1.00  0.00     0.043 A 
HETATM   31  C   UNL     1      20.973  48.602  47.765  1.00  0.00     0.012 A 
ENDBRANCH  24  25
ENDBRANCH  21  24
ENDBRANCH   6  20
TORSDOF 5
ENDMDL
MODEL 9
REMARK VINA RESULT:      -8.6      3.475      5.381
REMARK  5 active torsions:
REMARK  status: ('A' for Active; 'I' for Inactive)
REMARK    1  A    between atoms: C_4  and  N_5 
REMARK       I    between atoms: N_5  and  C_6 
REMARK       I    between atoms: C_6  and  N_7 
REMARK    2  A    between atoms: N_7  and  C_8 
REMARK    3  A    between atoms: C_17  and  C_18 
REMARK       I    between atoms: C_18  and  N_19 
REMARK    4  A    between atoms: N_19  and  C_20 
REMARK    5  A    between atoms: C_20  and  C_21 
ROOT
HETATM    1  C   UNL     1      26.572  48.199  49.979  1.00  0.00     0.072 C 
HETATM    2  C   UNL     1      25.160  48.146  49.512  1.00  0.00     0.056 C 
HETATM    3  N   UNL     1      24.567  49.326  49.060  1.00  0.00    -0.228 NA
HETATM    4  C   UNL     1      23.308  49.107  48.767  1.00  0.00     0.175 C 
HETATM    5  S   UNL     1      22.811  47.487  48.842  1.00  0.00    -0.044 SA
HETATM    6  C   UNL     1      24.320  47.043  49.526  1.00  0.00     0.100 C 
ENDROOT
BRANCH   4   7
HETATM    7  N   UNL     1      22.453  50.131  48.442  1.00  0.00    -0.287 N 
HETATM    8  C   UNL     1      21.072  50.077  48.488  1.00  0.00     0.326 C 
HETATM    9  N   UNL     1      20.518  51.329  48.266  1.00  0.00    -0.309 N 
HETATM   10  O   UNL     1      20.413  49.072  48.718  1.00  0.00    -0.247 OA
HETATM   11  H   UNL     1      21.144  52.053  47.946  1.00  0.00     0.170 HD
HETATM   12  H   UNL     1      22.920  51.020  48.366  1.00  0.00     0.172 HD
BRANCH   9  13
HETATM   13  C   UNL     1      19.157  51.694  48.391  1.00  0.00     0.037 A 
HETATM   14  C   UNL     1      18.235  51.663  47.340  1.00  0.00     0.053 A 
HETATM   15  C   UNL     1      16.903  52.019  47.561  1.00  0.00     0.036 A 
HETATM   16 CL   UNL     1      15.778  51.973  46.256  1.00  0.00    -0.084 Cl
HETATM   17  C   UNL     1      16.471  52.405  48.825  1.00  0.00     0.024 A 
HETATM   18  C   UNL     1      17.379  52.439  49.880  1.00  0.00     0.004 A 
HETATM   19  C   UNL     1      18.715  52.086  49.662  1.00  0.00     0.029 A 
ENDBRANCH   9  13
ENDBRANCH   4   7
BRANCH   6  20
HETATM   20  C   UNL     1      24.545  45.712  50.062  1.00  0.00     0.260 C 
HETATM   21  N   UNL     1      24.464  45.626  51.433  1.00  0.00    -0.352 N 
HETATM   22  H   UNL     1      24.165  46.447  51.945  1.00  0.00     0.163 HD
HETATM   23  O   UNL     1      24.839  44.742  49.371  1.00  0.00    -0.267 OA
BRANCH  21  24
HETATM   24  C   UNL     1      24.953  44.495  52.182  1.00  0.00     0.161 C 
BRANCH  24  25
HETATM   25  C   UNL     1      26.007  44.927  53.175  1.00  0.00    -0.040 A 
HETATM   26  C   UNL     1      26.190  46.286  53.473  1.00  0.00     0.012 A 
HETATM   27  C   UNL     1      27.169  46.684  54.387  1.00  0.00     0.043 A 
HETATM   28  C   UNL     1      27.965  45.728  55.005  1.00  0.00     0.116 A 
HETATM   29  F   UNL     1      28.910  46.115  55.873  1.00  0.00    -0.206 F 
HETATM   30  C   UNL     1      27.794  44.377  54.738  1.00  0.00     0.043 A 
HETATM   31  C   UNL     1      26.809  43.975  53.836  1.00  0.00     0.012 A 
ENDBRANCH  24  25
ENDBRANCH  21  24
ENDBRANCH   6  20
TORSDOF 5
ENDMDL
MODEL 10
REMARK VINA RESULT:      -8.5      4.767      7.717
REMARK  5 active torsions:
REMARK  status: ('A' for Active; 'I' for Inactive)
REMARK    1  A    between atoms: C_4  and  N_5 
REMARK       I    between atoms: N_5  and  C_6 
REMARK       I    between atoms: C_6  and  N_7 
REMARK    2  A    between atoms: N_7  and  C_8 
REMARK    3  A    between atoms: C_17  and  C_18 
REMARK       I    between atoms: C_18  and  N_19 
REMARK    4  A    between atoms: N_19  and  C_20 
REMARK    5  A    between atoms: C_20  and  C_21 
ROOT
HETATM    1  C   UNL     1      25.153  45.912  49.900  1.00  0.00     0.072 C 
HETATM    2  C   UNL     1      25.569  44.504  50.140  1.00  0.00     0.056 C 
HETATM    3  N   UNL     1      25.609  43.630  49.052  1.00  0.00    -0.228 NA
HETATM    4  C   UNL     1      25.917  42.423  49.463  1.00  0.00     0.175 C 
HETATM    5  S   UNL     1      26.338  42.293  51.100  1.00  0.00    -0.044 SA
HETATM    6  C   UNL     1      25.875  43.924  51.361  1.00  0.00     0.100 C 
ENDROOT
BRANCH   4   7
HETATM    7  N   UNL     1      25.878  41.341  48.618  1.00  0.00    -0.287 N 
HETATM    8  C   UNL     1      26.900  40.933  47.781  1.00  0.00     0.326 C 
HETATM    9  N   UNL     1      26.605  39.711  47.195  1.00  0.00    -0.309 N 
HETATM   10  O   UNL     1      27.943  41.544  47.590  1.00  0.00    -0.247 OA
HETATM   11  H   UNL     1      25.663  39.368  47.309  1.00  0.00     0.170 HD
HETATM   12  H   UNL     1      25.109  40.723  48.812  1.00  0.00     0.172 HD
BRANCH   9  13
HETATM   13  C   UNL     1      27.467  38.910  46.409  1.00  0.00     0.037 A 
HETATM   14  C   UNL     1      27.723  39.128  45.052  1.00  0.00     0.053 A 
HETATM   15  C   UNL     1      28.609  38.300  44.360  1.00  0.00     0.036 A 
HETATM   16 CL   UNL     1      28.914  38.582  42.689  1.00  0.00    -0.084 Cl
HETATM   17  C   UNL     1      29.252  37.250  45.007  1.00  0.00     0.024 A 
HETATM   18  C   UNL     1      29.007  37.024  46.359  1.00  0.00     0.004 A 
HETATM   19  C   UNL     1      28.119  37.850  47.055  1.00  0.00     0.029 A 
ENDBRANCH   9  13
ENDBRANCH   4   7
BRANCH   6  20
HETATM   20  C   UNL     1      25.791  44.481  52.700  1.00  0.00     0.260 C 
HETATM   21  N   UNL     1      26.895  45.204  53.090  1.00  0.00    -0.352 N 
HETATM   22  H   UNL     1      27.620  45.373  52.403  1.00  0.00     0.163 HD
HETATM   23  O   UNL     1      24.845  44.290  53.458  1.00  0.00    -0.267 OA
BRANCH  21  24
HETATM   24  C   UNL     1      27.154  45.570  54.460  1.00  0.00     0.161 C 
BRANCH  24  25
HETATM   25  C   UNL     1      28.436  44.937  54.951  1.00  0.00    -0.040 A 
HETATM   26  C   UNL     1      28.851  43.693  54.451  1.00  0.00     0.012 A 
HETATM   27  C   UNL     1      30.033  43.105  54.909  1.00  0.00     0.043 A 
HETATM   28  C   UNL     1      30.802  43.759  55.865  1.00  0.00     0.116 A 
HETATM   29  F   UNL     1      31.930  43.187  56.309  1.00  0.00    -0.206 F 
HETATM   30  C   UNL     1      30.421  44.997  56.362  1.00  0.00     0.043 A 
HETATM   31  C   UNL     1      29.248  45.592  55.898  1.00  0.00     0.012 A 
ENDBRANCH  24  25
ENDBRANCH  21  24
ENDBRANCH   6  20
TORSDOF 5
ENDMDL
