MODEL 1
REMARK VINA RESULT:      -9.9      0.000      0.000
REMARK  13 active torsions:
REMARK  status: ('A' for Active; 'I' for Inactive)
REMARK    1  A    between atoms: C_2  and  O_3 
REMARK    2  A    between atoms: O_3  and  C_4 
REMARK    3  A    between atoms: C_5  and  O_6 
REMARK    4  A    between atoms: C_9  and  C_10 
REMARK    5  A    between atoms: N_11  and  C_12 
REMARK    6  A    between atoms: C_12  and  C_13 
REMARK    7  A    between atoms: C_13  and  N_14 
REMARK    8  A    between atoms: C_23  and  O_24 
REMARK    9  A    between atoms: C_25  and  C_26 
REMARK   10  A    between atoms: C_26  and  C_27 
REMARK   11  A    between atoms: C_31  and  O_32 
REMARK   12  A    between atoms: O_32  and  C_33 
REMARK   13  A    between atoms: C_33  and  C_34 
ROOT
HETATM    1  C   UNL     1      24.923  43.711  48.710  1.00  0.00     0.161 A 
HETATM    2  N   UNL     1      23.517  43.339  48.613  1.00  0.00    -0.332 N 
HETATM    3  C   UNL     1      23.374  41.965  48.733  1.00  0.00     0.278 A 
HETATM    4  O   UNL     1      22.342  41.330  48.611  1.00  0.00    -0.265 OA
HETATM    5  C   UNL     1      24.711  41.380  48.954  1.00  0.00     0.146 A 
HETATM    6  C   UNL     1      25.593  42.386  48.892  1.00  0.00     0.059 A 
ENDROOT
BRANCH   6   7
HETATM    7  C   UNL     1      27.062  42.214  48.999  1.00  0.00     0.194 C 
HETATM    8  O   UNL     1      27.763  41.942  48.033  1.00  0.00    -0.287 OA
BRANCH   7   9
HETATM    9  C   UNL     1      27.670  42.313  50.351  1.00  0.00     0.021 A 
HETATM   10  C   UNL     1      28.053  41.157  51.054  1.00  0.00    -0.045 A 
HETATM   11  C   UNL     1      28.004  39.786  50.437  1.00  0.00     0.049 C 
HETATM   12  C   UNL     1      28.529  41.300  52.366  1.00  0.00     0.044 A 
HETATM   13  C   UNL     1      28.607  42.555  52.976  1.00  0.00     0.069 A 
HETATM   14  C   UNL     1      28.299  43.700  52.248  1.00  0.00     0.038 A 
HETATM   15  C   UNL     1      27.841  43.580  50.932  1.00  0.00     0.019 A 
BRANCH  13  16
HETATM   16  O   UNL     1      29.038  42.544  54.272  1.00  0.00    -0.347 OA
BRANCH  16  17
HETATM   17  C   UNL     1      30.361  43.038  54.498  1.00  0.00     0.214 C 
BRANCH  17  18
HETATM   18  C   UNL     1      30.398  43.917  55.729  1.00  0.00    -0.034 A 
HETATM   19  C   UNL     1      31.284  43.606  56.772  1.00  0.00     0.009 A 
HETATM   20  C   UNL     1      31.370  44.424  57.902  1.00  0.00     0.001 A 
HETATM   21  C   UNL     1      30.576  45.565  58.001  1.00  0.00     0.000 A 
HETATM   22  C   UNL     1      29.700  45.891  56.969  1.00  0.00     0.001 A 
HETATM   23  C   UNL     1      29.615  45.077  55.839  1.00  0.00     0.009 A 
ENDBRANCH  17  18
ENDBRANCH  16  17
ENDBRANCH  13  16
ENDBRANCH   7   9
ENDBRANCH   6   7
BRANCH   1  24
HETATM   24  C   UNL     1      25.102  44.690  49.857  1.00  0.00    -0.028 A 
HETATM   25  C   UNL     1      24.623  44.393  51.148  1.00  0.00     0.012 A 
HETATM   26  C   UNL     1      24.728  45.325  52.177  1.00  0.00     0.040 A 
HETATM   27  C   UNL     1      25.321  46.552  51.920  1.00  0.00     0.099 A 
HETATM   28  C   UNL     1      25.841  46.867  50.662  1.00  0.00     0.102 A 
HETATM   29  C   UNL     1      25.725  45.934  49.630  1.00  0.00     0.049 A 
BRANCH  27  30
HETATM   30  O   UNL     1      25.381  47.457  52.941  1.00  0.00    -0.358 OA
HETATM   31  H   UNL     1      26.263  47.875  52.882  1.00  0.00     0.218 HD
ENDBRANCH  27  30
BRANCH  28  32
HETATM   32  O   UNL     1      26.390  48.116  50.559  1.00  0.00    -0.349 OA
BRANCH  32  33
HETATM   33  C   UNL     1      26.379  48.727  49.268  1.00  0.00     0.171 C 
HETATM   34  C   UNL     1      27.749  49.338  49.035  1.00  0.00     0.034 C 
ENDBRANCH  32  33
ENDBRANCH  28  32
ENDBRANCH   1  24
BRANCH   5  35
HETATM   35  O   UNL     1      24.931  40.045  49.085  1.00  0.00    -0.355 OA
HETATM   36  H   UNL     1      25.033  39.671  48.188  1.00  0.00     0.218 HD
ENDBRANCH   5  35
BRANCH   2  37
HETATM   37  C   UNL     1      22.586  44.095  47.783  1.00  0.00     0.155 C 
BRANCH  37  38
HETATM   38  C   UNL     1      21.366  44.636  48.547  1.00  0.00     0.255 C 
BRANCH  38  39
HETATM   39  N   UNL     1      21.505  46.118  48.858  1.00  0.00    -0.066 N 
HETATM   40  H   UNL     1      21.797  46.193  49.844  1.00  0.00     0.280 HD
HETATM   41  C   UNL     1      22.552  46.826  48.000  1.00  0.00     0.261 C 
HETATM   42  C   UNL     1      22.563  48.328  48.299  1.00  0.00     0.195 C 
HETATM   43  O   UNL     1      21.267  48.893  48.084  1.00  0.00    -0.388 OA
HETATM   44  C   UNL     1      20.299  48.323  48.971  1.00  0.00     0.195 C 
HETATM   45  C   UNL     1      20.152  46.819  48.721  1.00  0.00     0.261 C 
ENDBRANCH  38  39
ENDBRANCH  37  38
ENDBRANCH   2  37
TORSDOF 13
ENDMDL
MODEL 2
REMARK VINA RESULT:      -9.3      0.822      2.197
REMARK  13 active torsions:
REMARK  status: ('A' for Active; 'I' for Inactive)
REMARK    1  A    between atoms: C_2  and  O_3 
REMARK    2  A    between atoms: O_3  and  C_4 
REMARK    3  A    between atoms: C_5  and  O_6 
REMARK    4  A    between atoms: C_9  and  C_10 
REMARK    5  A    between atoms: N_11  and  C_12 
REMARK    6  A    between atoms: C_12  and  C_13 
REMARK    7  A    between atoms: C_13  and  N_14 
REMARK    8  A    between atoms: C_23  and  O_24 
REMARK    9  A    between atoms: C_25  and  C_26 
REMARK   10  A    between atoms: C_26  and  C_27 
REMARK   11  A    between atoms: C_31  and  O_32 
REMARK   12  A    between atoms: O_32  and  C_33 
REMARK   13  A    between atoms: C_33  and  C_34 
ROOT
HETATM    1  C   UNL     1      24.928  43.778  48.753  1.00  0.00     0.161 A 
HETATM    2  N   UNL     1      23.516  43.424  48.698  1.00  0.00    -0.332 N 
HETATM    3  C   UNL     1      23.357  42.054  48.847  1.00  0.00     0.278 A 
HETATM    4  O   UNL     1      22.314  41.431  48.763  1.00  0.00    -0.265 OA
HETATM    5  C   UNL     1      24.691  41.455  49.047  1.00  0.00     0.146 A 
HETATM    6  C   UNL     1      25.584  42.447  48.944  1.00  0.00     0.059 A 
ENDROOT
BRANCH   6   7
HETATM    7  C   UNL     1      27.054  42.257  49.018  1.00  0.00     0.194 C 
HETATM    8  O   UNL     1      27.731  41.988  48.036  1.00  0.00    -0.287 OA
BRANCH   7   9
HETATM    9  C   UNL     1      27.690  42.332  50.359  1.00  0.00     0.021 A 
HETATM   10  C   UNL     1      28.036  41.162  51.058  1.00  0.00    -0.045 A 
HETATM   11  C   UNL     1      27.915  39.794  50.447  1.00  0.00     0.049 C 
HETATM   12  C   UNL     1      28.542  41.288  52.361  1.00  0.00     0.044 A 
HETATM   13  C   UNL     1      28.685  42.539  52.966  1.00  0.00     0.069 A 
HETATM   14  C   UNL     1      28.414  43.695  52.239  1.00  0.00     0.038 A 
HETATM   15  C   UNL     1      27.926  43.593  50.933  1.00  0.00     0.019 A 
BRANCH  13  16
HETATM   16  O   UNL     1      29.140  42.513  54.253  1.00  0.00    -0.347 OA
BRANCH  16  17
HETATM   17  C   UNL     1      30.479  42.970  54.457  1.00  0.00     0.214 C 
BRANCH  17  18
HETATM   18  C   UNL     1      30.562  43.845  55.689  1.00  0.00    -0.034 A 
HETATM   19  C   UNL     1      29.766  44.998  55.772  1.00  0.00     0.009 A 
HETATM   20  C   UNL     1      29.792  45.801  56.915  1.00  0.00     0.001 A 
HETATM   21  C   UNL     1      30.607  45.459  57.991  1.00  0.00     0.000 A 
HETATM   22  C   UNL     1      31.395  44.313  57.927  1.00  0.00     0.001 A 
HETATM   23  C   UNL     1      31.368  43.508  56.787  1.00  0.00     0.009 A 
ENDBRANCH  17  18
ENDBRANCH  16  17
ENDBRANCH  13  16
ENDBRANCH   7   9
ENDBRANCH   6   7
BRANCH   1  24
HETATM   24  C   UNL     1      25.149  44.776  49.876  1.00  0.00    -0.028 A 
HETATM   25  C   UNL     1      25.823  45.992  49.646  1.00  0.00     0.012 A 
HETATM   26  C   UNL     1      26.084  46.869  50.695  1.00  0.00     0.040 A 
HETATM   27  C   UNL     1      25.664  46.537  51.974  1.00  0.00     0.099 A 
HETATM   28  C   UNL     1      24.960  45.359  52.233  1.00  0.00     0.102 A 
HETATM   29  C   UNL     1      24.708  44.476  51.181  1.00  0.00     0.049 A 
BRANCH  27  30
HETATM   30  O   UNL     1      25.963  47.403  52.988  1.00  0.00    -0.358 OA
HETATM   31  H   UNL     1      26.383  46.866  53.689  1.00  0.00     0.218 HD
ENDBRANCH  27  30
BRANCH  28  32
HETATM   32  O   UNL     1      24.617  45.166  53.544  1.00  0.00    -0.349 OA
BRANCH  32  33
HETATM   33  C   UNL     1      25.195  44.042  54.210  1.00  0.00     0.171 C 
HETATM   34  C   UNL     1      26.354  44.548  55.050  1.00  0.00     0.034 C 
ENDBRANCH  32  33
ENDBRANCH  28  32
ENDBRANCH   1  24
BRANCH   5  35
HETATM   35  O   UNL     1      24.896  40.120  49.198  1.00  0.00    -0.355 OA
HETATM   36  H   UNL     1      24.076  39.732  49.561  1.00  0.00     0.218 HD
ENDBRANCH   5  35
BRANCH   2  37
HETATM   37  C   UNL     1      22.574  44.177  47.876  1.00  0.00     0.155 C 
BRANCH  37  38
HETATM   38  C   UNL     1      21.587  45.035  48.684  1.00  0.00     0.255 C 
BRANCH  38  39
HETATM   39  N   UNL     1      21.464  46.441  48.116  1.00  0.00    -0.066 N 
HETATM   40  H   UNL     1      21.584  46.365  47.095  1.00  0.00     0.280 HD
HETATM   41  C   UNL     1      20.109  47.091  48.385  1.00  0.00     0.261 C 
HETATM   42  C   UNL     1      20.096  48.535  47.875  1.00  0.00     0.195 C 
HETATM   43  O   UNL     1      21.148  49.291  48.479  1.00  0.00    -0.388 OA
HETATM   44  C   UNL     1      22.432  48.762  48.131  1.00  0.00     0.195 C 
HETATM   45  C   UNL     1      22.589  47.330  48.650  1.00  0.00     0.261 C 
ENDBRANCH  38  39
ENDBRANCH  37  38
ENDBRANCH   2  37
TORSDOF 13
ENDMDL
MODEL 3
REMARK VINA RESULT:      -8.9      1.699      2.583
REMARK  13 active torsions:
REMARK  status: ('A' for Active; 'I' for Inactive)
REMARK    1  A    between atoms: C_2  and  O_3 
REMARK    2  A    between atoms: O_3  and  C_4 
REMARK    3  A    between atoms: C_5  and  O_6 
REMARK    4  A    between atoms: C_9  and  C_10 
REMARK    5  A    between atoms: N_11  and  C_12 
REMARK    6  A    between atoms: C_12  and  C_13 
REMARK    7  A    between atoms: C_13  and  N_14 
REMARK    8  A    between atoms: C_23  and  O_24 
REMARK    9  A    between atoms: C_25  and  C_26 
REMARK   10  A    between atoms: C_26  and  C_27 
REMARK   11  A    between atoms: C_31  and  O_32 
REMARK   12  A    between atoms: O_32  and  C_33 
REMARK   13  A    between atoms: C_33  and  C_34 
ROOT
HETATM    1  C   UNL     1      24.925  43.717  48.698  1.00  0.00     0.161 A 
HETATM    2  N   UNL     1      23.515  43.354  48.638  1.00  0.00    -0.332 N 
HETATM    3  C   UNL     1      23.364  41.985  48.796  1.00  0.00     0.278 A 
HETATM    4  O   UNL     1      22.325  41.355  48.711  1.00  0.00    -0.265 OA
HETATM    5  C   UNL     1      24.700  41.396  49.008  1.00  0.00     0.146 A 
HETATM    6  C   UNL     1      25.588  42.392  48.903  1.00  0.00     0.059 A 
ENDROOT
BRANCH   6   7
HETATM    7  C   UNL     1      27.058  42.211  48.986  1.00  0.00     0.194 C 
HETATM    8  O   UNL     1      27.743  41.941  48.009  1.00  0.00    -0.287 OA
BRANCH   7   9
HETATM    9  C   UNL     1      27.687  42.298  50.330  1.00  0.00     0.021 A 
HETATM   10  C   UNL     1      28.096  41.137  51.009  1.00  0.00    -0.045 A 
HETATM   11  C   UNL     1      28.054  39.775  50.373  1.00  0.00     0.049 C 
HETATM   12  C   UNL     1      28.591  41.267  52.315  1.00  0.00     0.044 A 
HETATM   13  C   UNL     1      28.664  42.513  52.943  1.00  0.00     0.069 A 
HETATM   14  C   UNL     1      28.329  43.665  52.236  1.00  0.00     0.038 A 
HETATM   15  C   UNL     1      27.851  43.559  50.927  1.00  0.00     0.019 A 
BRANCH  13  16
HETATM   16  O   UNL     1      29.116  42.489  54.231  1.00  0.00    -0.347 OA
BRANCH  16  17
HETATM   17  C   UNL     1      30.417  43.040  54.451  1.00  0.00     0.214 C 
BRANCH  17  18
HETATM   18  C   UNL     1      30.428  43.900  55.696  1.00  0.00    -0.034 A 
HETATM   19  C   UNL     1      31.286  43.567  56.756  1.00  0.00     0.009 A 
HETATM   20  C   UNL     1      31.347  44.366  57.900  1.00  0.00     0.001 A 
HETATM   21  C   UNL     1      30.558  45.510  57.998  1.00  0.00     0.000 A 
HETATM   22  C   UNL     1      29.710  45.858  56.950  1.00  0.00     0.001 A 
HETATM   23  C   UNL     1      29.649  45.062  55.804  1.00  0.00     0.009 A 
ENDBRANCH  17  18
ENDBRANCH  16  17
ENDBRANCH  13  16
ENDBRANCH   7   9
ENDBRANCH   6   7
BRANCH   1  24
HETATM   24  C   UNL     1      25.134  44.725  49.815  1.00  0.00    -0.028 A 
HETATM   25  C   UNL     1      24.686  44.461  51.125  1.00  0.00     0.012 A 
HETATM   26  C   UNL     1      24.818  45.419  52.126  1.00  0.00     0.040 A 
HETATM   27  C   UNL     1      25.404  46.638  51.824  1.00  0.00     0.099 A 
HETATM   28  C   UNL     1      25.893  46.920  50.546  1.00  0.00     0.102 A 
HETATM   29  C   UNL     1      25.751  45.962  49.541  1.00  0.00     0.049 A 
BRANCH  27  30
HETATM   30  O   UNL     1      25.491  47.569  52.820  1.00  0.00    -0.358 OA
HETATM   31  H   UNL     1      25.719  48.414  52.383  1.00  0.00     0.218 HD
ENDBRANCH  27  30
BRANCH  28  32
HETATM   32  O   UNL     1      26.440  48.166  50.397  1.00  0.00    -0.349 OA
BRANCH  32  33
HETATM   33  C   UNL     1      27.292  48.373  49.269  1.00  0.00     0.171 C 
HETATM   34  C   UNL     1      27.040  49.777  48.752  1.00  0.00     0.034 C 
ENDBRANCH  32  33
ENDBRANCH  28  32
ENDBRANCH   1  24
BRANCH   5  35
HETATM   35  O   UNL     1      24.913  40.062  49.170  1.00  0.00    -0.355 OA
HETATM   36  H   UNL     1      25.168  39.913  50.101  1.00  0.00     0.218 HD
ENDBRANCH   5  35
BRANCH   2  37
HETATM   37  C   UNL     1      22.574  44.095  47.805  1.00  0.00     0.155 C 
BRANCH  37  38
HETATM   38  C   UNL     1      22.766  43.872  46.296  1.00  0.00     0.255 C 
BRANCH  38  39
HETATM   39  N   UNL     1      21.635  43.050  45.697  1.00  0.00    -0.066 N 
HETATM   40  H   UNL     1      21.409  42.308  46.377  1.00  0.00     0.280 HD
HETATM   41  C   UNL     1      20.365  43.857  45.438  1.00  0.00     0.261 C 
HETATM   42  C   UNL     1      19.310  42.989  44.744  1.00  0.00     0.195 C 
HETATM   43  O   UNL     1      19.825  42.452  43.524  1.00  0.00    -0.388 OA
HETATM   44  C   UNL     1      20.944  41.593  43.767  1.00  0.00     0.195 C 
HETATM   45  C   UNL     1      22.098  42.370  44.407  1.00  0.00     0.261 C 
ENDBRANCH  38  39
ENDBRANCH  37  38
ENDBRANCH   2  37
TORSDOF 13
ENDMDL
MODEL 4
REMARK VINA RESULT:      -8.7      1.951      4.497
REMARK  13 active torsions:
REMARK  status: ('A' for Active; 'I' for Inactive)
REMARK    1  A    between atoms: C_2  and  O_3 
REMARK    2  A    between atoms: O_3  and  C_4 
REMARK    3  A    between atoms: C_5  and  O_6 
REMARK    4  A    between atoms: C_9  and  C_10 
REMARK    5  A    between atoms: N_11  and  C_12 
REMARK    6  A    between atoms: C_12  and  C_13 
REMARK    7  A    between atoms: C_13  and  N_14 
REMARK    8  A    between atoms: C_23  and  O_24 
REMARK    9  A    between atoms: C_25  and  C_26 
REMARK   10  A    between atoms: C_26  and  C_27 
REMARK   11  A    between atoms: C_31  and  O_32 
REMARK   12  A    between atoms: O_32  and  C_33 
REMARK   13  A    between atoms: C_33  and  C_34 
ROOT
HETATM    1  C   UNL     1      24.148  45.473  50.020  1.00  0.00     0.161 A 
HETATM    2  N   UNL     1      24.661  46.758  49.564  1.00  0.00    -0.332 N 
HETATM    3  C   UNL     1      26.047  46.729  49.502  1.00  0.00     0.278 A 
HETATM    4  O   UNL     1      26.781  47.664  49.241  1.00  0.00    -0.265 OA
HETATM    5  C   UNL     1      26.495  45.377  49.889  1.00  0.00     0.146 A 
HETATM    6  C   UNL     1      25.402  44.684  50.228  1.00  0.00     0.059 A 
ENDROOT
BRANCH   6   7
HETATM    7  C   UNL     1      25.422  43.292  50.742  1.00  0.00     0.194 C 
HETATM    8  O   UNL     1      24.612  42.449  50.385  1.00  0.00    -0.287 OA
BRANCH   7   9
HETATM    9  C   UNL     1      26.430  42.958  51.782  1.00  0.00     0.021 A 
HETATM   10  C   UNL     1      26.384  43.563  53.050  1.00  0.00    -0.045 A 
HETATM   11  C   UNL     1      25.255  44.461  53.473  1.00  0.00     0.049 C 
HETATM   12  C   UNL     1      27.417  43.288  53.959  1.00  0.00     0.044 A 
HETATM   13  C   UNL     1      28.480  42.448  53.616  1.00  0.00     0.069 A 
HETATM   14  C   UNL     1      28.477  41.793  52.388  1.00  0.00     0.038 A 
HETATM   15  C   UNL     1      27.448  42.039  51.475  1.00  0.00     0.019 A 
BRANCH  13  16
HETATM   16  O   UNL     1      29.441  42.308  54.576  1.00  0.00    -0.347 OA
BRANCH  16  17
HETATM   17  C   UNL     1      30.522  43.243  54.524  1.00  0.00     0.214 C 
BRANCH  17  18
HETATM   18  C   UNL     1      30.590  44.050  55.802  1.00  0.00    -0.034 A 
HETATM   19  C   UNL     1      29.777  45.186  55.945  1.00  0.00     0.009 A 
HETATM   20  C   UNL     1      29.789  45.925  57.130  1.00  0.00     0.001 A 
HETATM   21  C   UNL     1      30.608  45.538  58.188  1.00  0.00     0.000 A 
HETATM   22  C   UNL     1      31.412  44.408  58.065  1.00  0.00     0.001 A 
HETATM   23  C   UNL     1      31.399  43.666  56.882  1.00  0.00     0.009 A 
ENDBRANCH  17  18
ENDBRANCH  16  17
ENDBRANCH  13  16
ENDBRANCH   7   9
ENDBRANCH   6   7
BRANCH   1  24
HETATM   24  C   UNL     1      23.198  44.916  48.975  1.00  0.00    -0.028 A 
HETATM   25  C   UNL     1      23.684  44.345  47.782  1.00  0.00     0.012 A 
HETATM   26  C   UNL     1      22.805  43.901  46.798  1.00  0.00     0.040 A 
HETATM   27  C   UNL     1      21.439  44.019  47.007  1.00  0.00     0.099 A 
HETATM   28  C   UNL     1      20.921  44.545  48.193  1.00  0.00     0.102 A 
HETATM   29  C   UNL     1      21.805  44.998  49.174  1.00  0.00     0.049 A 
BRANCH  27  30
HETATM   30  O   UNL     1      20.603  43.603  46.010  1.00  0.00    -0.358 OA
HETATM   31  H   UNL     1      21.011  42.799  45.631  1.00  0.00     0.218 HD
ENDBRANCH  27  30
BRANCH  28  32
HETATM   32  O   UNL     1      19.556  44.603  48.252  1.00  0.00    -0.349 OA
BRANCH  32  33
HETATM   33  C   UNL     1      18.961  45.900  48.316  1.00  0.00     0.171 C 
HETATM   34  C   UNL     1      18.433  46.234  46.933  1.00  0.00     0.034 C 
ENDBRANCH  32  33
ENDBRANCH  28  32
ENDBRANCH   1  24
BRANCH   5  35
HETATM   35  O   UNL     1      27.805  45.016  49.962  1.00  0.00    -0.355 OA
HETATM   36  H   UNL     1      28.152  45.328  50.820  1.00  0.00     0.218 HD
ENDBRANCH   5  35
BRANCH   2  37
HETATM   37  C   UNL     1      23.978  48.007  49.884  1.00  0.00     0.155 C 
BRANCH  37  38
HETATM   38  C   UNL     1      23.126  48.565  48.731  1.00  0.00     0.255 C 
BRANCH  38  39
HETATM   39  N   UNL     1      21.794  49.110  49.225  1.00  0.00    -0.066 N 
HETATM   40  H   UNL     1      21.481  48.494  49.990  1.00  0.00     0.280 HD
HETATM   41  C   UNL     1      21.883  50.534  49.770  1.00  0.00     0.261 C 
HETATM   42  C   UNL     1      20.492  51.049  50.151  1.00  0.00     0.195 C 
HETATM   43  O   UNL     1      19.609  50.992  49.028  1.00  0.00    -0.388 OA
HETATM   44  C   UNL     1      19.421  49.644  48.584  1.00  0.00     0.195 C 
HETATM   45  C   UNL     1      20.746  49.037  48.113  1.00  0.00     0.261 C 
ENDBRANCH  38  39
ENDBRANCH  37  38
ENDBRANCH   2  37
TORSDOF 13
ENDMDL
MODEL 5
REMARK VINA RESULT:      -8.4      2.067      4.070
REMARK  13 active torsions:
REMARK  status: ('A' for Active; 'I' for Inactive)
REMARK    1  A    between atoms: C_2  and  O_3 
REMARK    2  A    between atoms: O_3  and  C_4 
REMARK    3  A    between atoms: C_5  and  O_6 
REMARK    4  A    between atoms: C_9  and  C_10 
REMARK    5  A    between atoms: N_11  and  C_12 
REMARK    6  A    between atoms: C_12  and  C_13 
REMARK    7  A    between atoms: C_13  and  N_14 
REMARK    8  A    between atoms: C_23  and  O_24 
REMARK    9  A    between atoms: C_25  and  C_26 
REMARK   10  A    between atoms: C_26  and  C_27 
REMARK   11  A    between atoms: C_31  and  O_32 
REMARK   12  A    between atoms: O_32  and  C_33 
REMARK   13  A    between atoms: C_33  and  C_34 
ROOT
HETATM    1  C   UNL     1      23.880  45.074  48.855  1.00  0.00     0.161 A 
HETATM    2  N   UNL     1      22.669  44.286  49.044  1.00  0.00    -0.332 N 
HETATM    3  C   UNL     1      22.816  43.430  50.126  1.00  0.00     0.278 A 
HETATM    4  O   UNL     1      22.022  42.584  50.495  1.00  0.00    -0.265 OA
HETATM    5  C   UNL     1      24.147  43.663  50.719  1.00  0.00     0.146 A 
HETATM    6  C   UNL     1      24.763  44.572  49.953  1.00  0.00     0.059 A 
ENDROOT
BRANCH   6   7
HETATM    7  C   UNL     1      26.155  45.038  50.167  1.00  0.00     0.194 C 
HETATM    8  O   UNL     1      26.951  45.174  49.247  1.00  0.00    -0.287 OA
BRANCH   7   9
HETATM    9  C   UNL     1      26.594  45.275  51.567  1.00  0.00     0.021 A 
HETATM   10  C   UNL     1      27.434  44.358  52.222  1.00  0.00    -0.045 A 
HETATM   11  C   UNL     1      28.043  43.178  51.518  1.00  0.00     0.049 C 
HETATM   12  C   UNL     1      27.737  44.578  53.575  1.00  0.00     0.044 A 
HETATM   13  C   UNL     1      27.206  45.669  54.268  1.00  0.00     0.069 A 
HETATM   14  C   UNL     1      26.438  46.613  53.592  1.00  0.00     0.038 A 
HETATM   15  C   UNL     1      26.141  46.422  52.240  1.00  0.00     0.019 A 
BRANCH  13  16
HETATM   16  O   UNL     1      27.540  45.734  55.590  1.00  0.00    -0.347 OA
BRANCH  16  17
HETATM   17  C   UNL     1      28.728  46.466  55.904  1.00  0.00     0.214 C 
BRANCH  17  18
HETATM   18  C   UNL     1      29.780  45.550  56.488  1.00  0.00    -0.034 A 
HETATM   19  C   UNL     1      30.161  45.704  57.831  1.00  0.00     0.009 A 
HETATM   20  C   UNL     1      31.099  44.845  58.408  1.00  0.00     0.001 A 
HETATM   21  C   UNL     1      31.665  43.819  57.655  1.00  0.00     0.000 A 
HETATM   22  C   UNL     1      31.289  43.647  56.326  1.00  0.00     0.001 A 
HETATM   23  C   UNL     1      30.349  44.502  55.747  1.00  0.00     0.009 A 
ENDBRANCH  17  18
ENDBRANCH  16  17
ENDBRANCH  13  16
ENDBRANCH   7   9
ENDBRANCH   6   7
BRANCH   1  24
HETATM   24  C   UNL     1      23.531  46.550  48.927  1.00  0.00    -0.028 A 
HETATM   25  C   UNL     1      22.193  46.985  48.841  1.00  0.00     0.012 A 
HETATM   26  C   UNL     1      21.888  48.344  48.836  1.00  0.00     0.040 A 
HETATM   27  C   UNL     1      22.917  49.269  48.928  1.00  0.00     0.099 A 
HETATM   28  C   UNL     1      24.251  48.873  49.052  1.00  0.00     0.102 A 
HETATM   29  C   UNL     1      24.556  47.510  49.046  1.00  0.00     0.049 A 
BRANCH  27  30
HETATM   30  O   UNL     1      22.589  50.594  48.889  1.00  0.00    -0.358 OA
HETATM   31  H   UNL     1      21.741  50.650  48.404  1.00  0.00     0.218 HD
ENDBRANCH  27  30
BRANCH  28  32
HETATM   32  O   UNL     1      25.155  49.898  49.127  1.00  0.00    -0.349 OA
BRANCH  32  33
HETATM   33  C   UNL     1      26.209  49.907  48.164  1.00  0.00     0.171 C 
HETATM   34  C   UNL     1      27.504  49.597  48.893  1.00  0.00     0.034 C 
ENDBRANCH  32  33
ENDBRANCH  28  32
ENDBRANCH   1  24
BRANCH   5  35
HETATM   35  O   UNL     1      24.624  42.966  51.784  1.00  0.00    -0.355 OA
HETATM   36  H   UNL     1      24.938  42.100  51.457  1.00  0.00     0.218 HD
ENDBRANCH   5  35
BRANCH   2  37
HETATM   37  C   UNL     1      21.836  43.887  47.914  1.00  0.00     0.155 C 
BRANCH  37  38
HETATM   38  C   UNL     1      22.602  43.761  46.587  1.00  0.00     0.255 C 
BRANCH  38  39
HETATM   39  N   UNL     1      22.507  42.357  46.010  1.00  0.00    -0.066 N 
HETATM   40  H   UNL     1      21.647  42.323  45.442  1.00  0.00     0.280 HD
HETATM   41  C   UNL     1      23.684  41.987  45.109  1.00  0.00     0.261 C 
HETATM   42  C   UNL     1      23.569  40.531  44.650  1.00  0.00     0.195 C 
HETATM   43  O   UNL     1      23.498  39.652  45.776  1.00  0.00    -0.388 OA
HETATM   44  C   UNL     1      22.330  39.910  46.561  1.00  0.00     0.195 C 
HETATM   45  C   UNL     1      22.362  41.330  47.134  1.00  0.00     0.261 C 
ENDBRANCH  38  39
ENDBRANCH  37  38
ENDBRANCH   2  37
TORSDOF 13
ENDMDL
MODEL 6
REMARK VINA RESULT:      -8.3      3.169      7.148
REMARK  13 active torsions:
REMARK  status: ('A' for Active; 'I' for Inactive)
REMARK    1  A    between atoms: C_2  and  O_3 
REMARK    2  A    between atoms: O_3  and  C_4 
REMARK    3  A    between atoms: C_5  and  O_6 
REMARK    4  A    between atoms: C_9  and  C_10 
REMARK    5  A    between atoms: N_11  and  C_12 
REMARK    6  A    between atoms: C_12  and  C_13 
REMARK    7  A    between atoms: C_13  and  N_14 
REMARK    8  A    between atoms: C_23  and  O_24 
REMARK    9  A    between atoms: C_25  and  C_26 
REMARK   10  A    between atoms: C_26  and  C_27 
REMARK   11  A    between atoms: C_31  and  O_32 
REMARK   12  A    between atoms: O_32  and  C_33 
REMARK   13  A    between atoms: C_33  and  C_34 
ROOT
HETATM    1  C   UNL     1      20.653  48.275  49.010  1.00  0.00     0.161 A 
HETATM    2  N   UNL     1      20.480  49.716  49.137  1.00  0.00    -0.332 N 
HETATM    3  C   UNL     1      21.573  50.381  48.600  1.00  0.00     0.278 A 
HETATM    4  O   UNL     1      21.775  51.581  48.625  1.00  0.00    -0.265 OA
HETATM    5  C   UNL     1      22.503  49.372  48.057  1.00  0.00     0.146 A 
HETATM    6  C   UNL     1      21.987  48.171  48.340  1.00  0.00     0.059 A 
ENDROOT
BRANCH   6   7
HETATM    7  C   UNL     1      22.649  46.882  48.023  1.00  0.00     0.194 C 
HETATM    8  O   UNL     1      22.505  46.318  46.947  1.00  0.00    -0.287 OA
BRANCH   7   9
HETATM    9  C   UNL     1      23.454  46.240  49.095  1.00  0.00     0.021 A 
HETATM   10  C   UNL     1      23.141  44.948  49.553  1.00  0.00    -0.045 A 
HETATM   11  C   UNL     1      22.084  44.098  48.906  1.00  0.00     0.049 C 
HETATM   12  C   UNL     1      23.870  44.429  50.635  1.00  0.00     0.044 A 
HETATM   13  C   UNL     1      24.872  45.177  51.259  1.00  0.00     0.069 A 
HETATM   14  C   UNL     1      25.227  46.422  50.750  1.00  0.00     0.038 A 
HETATM   15  C   UNL     1      24.526  46.949  49.662  1.00  0.00     0.019 A 
BRANCH  13  16
HETATM   16  O   UNL     1      25.464  44.572  52.330  1.00  0.00    -0.347 OA
BRANCH  16  17
HETATM   17  C   UNL     1      26.432  45.352  53.038  1.00  0.00     0.214 C 
BRANCH  17  18
HETATM   18  C   UNL     1      27.694  44.552  53.272  1.00  0.00    -0.034 A 
HETATM   19  C   UNL     1      28.322  44.604  54.526  1.00  0.00     0.009 A 
HETATM   20  C   UNL     1      29.465  43.844  54.783  1.00  0.00     0.001 A 
HETATM   21  C   UNL     1      29.992  43.018  53.794  1.00  0.00     0.000 A 
HETATM   22  C   UNL     1      29.374  42.947  52.548  1.00  0.00     0.001 A 
HETATM   23  C   UNL     1      28.230  43.704  52.290  1.00  0.00     0.009 A 
ENDBRANCH  17  18
ENDBRANCH  16  17
ENDBRANCH  13  16
ENDBRANCH   7   9
ENDBRANCH   6   7
BRANCH   1  24
HETATM   24  C   UNL     1      19.487  47.700  48.225  1.00  0.00    -0.028 A 
HETATM   25  C   UNL     1      18.461  46.981  48.871  1.00  0.00     0.012 A 
HETATM   26  C   UNL     1      17.434  46.396  48.135  1.00  0.00     0.040 A 
HETATM   27  C   UNL     1      17.424  46.535  46.756  1.00  0.00     0.099 A 
HETATM   28  C   UNL     1      18.404  47.273  46.086  1.00  0.00     0.102 A 
HETATM   29  C   UNL     1      19.439  47.850  46.825  1.00  0.00     0.049 A 
BRANCH  27  30
HETATM   30  O   UNL     1      16.421  45.923  46.060  1.00  0.00    -0.358 OA
HETATM   31  H   UNL     1      15.909  46.640  45.635  1.00  0.00     0.218 HD
ENDBRANCH  27  30
BRANCH  28  32
HETATM   32  O   UNL     1      18.266  47.317  44.725  1.00  0.00    -0.349 OA
BRANCH  32  33
HETATM   33  C   UNL     1      18.081  48.603  44.131  1.00  0.00     0.171 C 
HETATM   34  C   UNL     1      16.651  48.677  43.627  1.00  0.00     0.034 C 
ENDBRANCH  32  33
ENDBRANCH  28  32
ENDBRANCH   1  24
BRANCH   5  35
HETATM   35  O   UNL     1      23.695  49.687  47.482  1.00  0.00    -0.355 OA
HETATM   36  H   UNL     1      24.047  48.877  47.065  1.00  0.00     0.218 HD
ENDBRANCH   5  35
BRANCH   2  37
HETATM   37  C   UNL     1      19.760  50.300  50.263  1.00  0.00     0.155 C 
BRANCH  37  38
HETATM   38  C   UNL     1      18.572  51.186  49.853  1.00  0.00     0.255 C 
BRANCH  38  39
HETATM   39  N   UNL     1      18.051  50.830  48.469  1.00  0.00    -0.066 N 
HETATM   40  H   UNL     1      18.667  50.091  48.097  1.00  0.00     0.280 HD
HETATM   41  C   UNL     1      16.621  50.295  48.475  1.00  0.00     0.261 C 
HETATM   42  C   UNL     1      16.134  50.055  47.043  1.00  0.00     0.195 C 
HETATM   43  O   UNL     1      16.221  51.258  46.274  1.00  0.00    -0.388 OA
HETATM   44  C   UNL     1      17.577  51.702  46.159  1.00  0.00     0.195 C 
HETATM   45  C   UNL     1      18.158  52.037  47.535  1.00  0.00     0.261 C 
ENDBRANCH  38  39
ENDBRANCH  37  38
ENDBRANCH   2  37
TORSDOF 13
ENDMDL
MODEL 7
REMARK VINA RESULT:      -8.3      2.438      8.709
REMARK  13 active torsions:
REMARK  status: ('A' for Active; 'I' for Inactive)
REMARK    1  A    between atoms: C_2  and  O_3 
REMARK    2  A    between atoms: O_3  and  C_4 
REMARK    3  A    between atoms: C_5  and  O_6 
REMARK    4  A    between atoms: C_9  and  C_10 
REMARK    5  A    between atoms: N_11  and  C_12 
REMARK    6  A    between atoms: C_12  and  C_13 
REMARK    7  A    between atoms: C_13  and  N_14 
REMARK    8  A    between atoms: C_23  and  O_24 
REMARK    9  A    between atoms: C_25  and  C_26 
REMARK   10  A    between atoms: C_26  and  C_27 
REMARK   11  A    between atoms: C_31  and  O_32 
REMARK   12  A    between atoms: O_32  and  C_33 
REMARK   13  A    between atoms: C_33  and  C_34 
ROOT
HETATM    1  C   UNL     1      25.425  42.740  51.243  1.00  0.00     0.161 A 
HETATM    2  N   UNL     1      26.545  42.101  50.566  1.00  0.00    -0.332 N 
HETATM    3  C   UNL     1      26.505  42.373  49.207  1.00  0.00     0.278 A 
HETATM    4  O   UNL     1      27.246  41.920  48.354  1.00  0.00    -0.265 OA
HETATM    5  C   UNL     1      25.348  43.253  48.948  1.00  0.00     0.146 A 
HETATM    6  C   UNL     1      24.712  43.416  50.115  1.00  0.00     0.059 A 
ENDROOT
BRANCH   6   7
HETATM    7  C   UNL     1      23.453  44.183  50.278  1.00  0.00     0.194 C 
HETATM    8  O   UNL     1      22.458  43.706  50.807  1.00  0.00    -0.287 OA
BRANCH   7   9
HETATM    9  C   UNL     1      23.403  45.554  49.706  1.00  0.00     0.021 A 
HETATM   10  C   UNL     1      22.517  45.865  48.660  1.00  0.00    -0.045 A 
HETATM   11  C   UNL     1      21.487  44.890  48.160  1.00  0.00     0.049 C 
HETATM   12  C   UNL     1      22.580  47.146  48.090  1.00  0.00     0.044 A 
HETATM   13  C   UNL     1      23.511  48.090  48.531  1.00  0.00     0.069 A 
HETATM   14  C   UNL     1      24.331  47.800  49.617  1.00  0.00     0.038 A 
HETATM   15  C   UNL     1      24.270  46.536  50.212  1.00  0.00     0.019 A 
BRANCH  13  16
HETATM   16  O   UNL     1      23.498  49.276  47.855  1.00  0.00    -0.347 OA
BRANCH  16  17
HETATM   17  C   UNL     1      23.322  50.452  48.650  1.00  0.00     0.214 C 
BRANCH  17  18
HETATM   18  C   UNL     1      21.851  50.740  48.857  1.00  0.00    -0.034 A 
HETATM   19  C   UNL     1      21.362  50.928  50.160  1.00  0.00     0.009 A 
HETATM   20  C   UNL     1      20.017  51.236  50.378  1.00  0.00     0.001 A 
HETATM   21  C   UNL     1      19.146  51.366  49.299  1.00  0.00     0.000 A 
HETATM   22  C   UNL     1      19.619  51.193  48.001  1.00  0.00     0.001 A 
HETATM   23  C   UNL     1      20.963  50.887  47.781  1.00  0.00     0.009 A 
ENDBRANCH  17  18
ENDBRANCH  16  17
ENDBRANCH  13  16
ENDBRANCH   7   9
ENDBRANCH   6   7
BRANCH   1  24
HETATM   24  C   UNL     1      25.956  43.668  52.322  1.00  0.00    -0.028 A 
HETATM   25  C   UNL     1      25.111  44.597  52.962  1.00  0.00     0.012 A 
HETATM   26  C   UNL     1      25.622  45.492  53.898  1.00  0.00     0.040 A 
HETATM   27  C   UNL     1      26.974  45.455  54.204  1.00  0.00     0.099 A 
HETATM   28  C   UNL     1      27.833  44.522  53.617  1.00  0.00     0.102 A 
HETATM   29  C   UNL     1      27.321  43.632  52.671  1.00  0.00     0.049 A 
BRANCH  27  30
HETATM   30  O   UNL     1      27.450  46.366  55.103  1.00  0.00    -0.358 OA
HETATM   31  H   UNL     1      28.392  46.145  55.241  1.00  0.00     0.218 HD
ENDBRANCH  27  30
BRANCH  28  32
HETATM   32  O   UNL     1      29.140  44.611  54.013  1.00  0.00    -0.349 OA
BRANCH  32  33
HETATM   33  C   UNL     1      29.688  43.488  54.705  1.00  0.00     0.171 C 
HETATM   34  C   UNL     1      30.650  44.016  55.754  1.00  0.00     0.034 C 
ENDBRANCH  32  33
ENDBRANCH  28  32
ENDBRANCH   1  24
BRANCH   5  35
HETATM   35  O   UNL     1      25.003  43.688  47.707  1.00  0.00    -0.355 OA
HETATM   36  H   UNL     1      25.633  43.299  47.070  1.00  0.00     0.218 HD
ENDBRANCH   5  35
BRANCH   2  37
HETATM   37  C   UNL     1      27.094  40.833  51.035  1.00  0.00     0.155 C 
BRANCH  37  38
HETATM   38  C   UNL     1      26.299  39.600  50.573  1.00  0.00     0.255 C 
BRANCH  38  39
HETATM   39  N   UNL     1      27.192  38.571  49.897  1.00  0.00    -0.066 N 
HETATM   40  H   UNL     1      27.122  37.703  50.449  1.00  0.00     0.280 HD
HETATM   41  C   UNL     1      26.779  38.254  48.462  1.00  0.00     0.261 C 
HETATM   42  C   UNL     1      27.780  37.291  47.816  1.00  0.00     0.195 C 
HETATM   43  O   UNL     1      29.100  37.840  47.853  1.00  0.00    -0.388 OA
HETATM   44  C   UNL     1      29.547  38.026  49.200  1.00  0.00     0.195 C 
HETATM   45  C   UNL     1      28.652  39.028  49.936  1.00  0.00     0.261 C 
ENDBRANCH  38  39
ENDBRANCH  37  38
ENDBRANCH   2  37
TORSDOF 13
ENDMDL
MODEL 8
REMARK VINA RESULT:      -8.3      2.358      4.136
REMARK  13 active torsions:
REMARK  status: ('A' for Active; 'I' for Inactive)
REMARK    1  A    between atoms: C_2  and  O_3 
REMARK    2  A    between atoms: O_3  and  C_4 
REMARK    3  A    between atoms: C_5  and  O_6 
REMARK    4  A    between atoms: C_9  and  C_10 
REMARK    5  A    between atoms: N_11  and  C_12 
REMARK    6  A    between atoms: C_12  and  C_13 
REMARK    7  A    between atoms: C_13  and  N_14 
REMARK    8  A    between atoms: C_23  and  O_24 
REMARK    9  A    between atoms: C_25  and  C_26 
REMARK   10  A    between atoms: C_26  and  C_27 
REMARK   11  A    between atoms: C_31  and  O_32 
REMARK   12  A    between atoms: O_32  and  C_33 
REMARK   13  A    between atoms: C_33  and  C_34 
ROOT
HETATM    1  C   UNL     1      23.741  45.303  48.833  1.00  0.00     0.161 A 
HETATM    2  N   UNL     1      22.576  44.445  49.003  1.00  0.00    -0.332 N 
HETATM    3  C   UNL     1      22.777  43.564  50.055  1.00  0.00     0.278 A 
HETATM    4  O   UNL     1      22.032  42.664  50.399  1.00  0.00    -0.265 OA
HETATM    5  C   UNL     1      24.099  43.847  50.646  1.00  0.00     0.146 A 
HETATM    6  C   UNL     1      24.659  44.813  49.908  1.00  0.00     0.059 A 
ENDROOT
BRANCH   6   7
HETATM    7  C   UNL     1      26.026  45.346  50.129  1.00  0.00     0.194 C 
HETATM    8  O   UNL     1      26.787  45.602  49.206  1.00  0.00    -0.287 OA
BRANCH   7   9
HETATM    9  C   UNL     1      26.487  45.497  51.534  1.00  0.00     0.021 A 
HETATM   10  C   UNL     1      27.329  44.537  52.122  1.00  0.00    -0.045 A 
HETATM   11  C   UNL     1      27.917  43.395  51.341  1.00  0.00     0.049 C 
HETATM   12  C   UNL     1      27.652  44.675  53.480  1.00  0.00     0.044 A 
HETATM   13  C   UNL     1      27.141  45.728  54.244  1.00  0.00     0.069 A 
HETATM   14  C   UNL     1      26.371  46.715  53.635  1.00  0.00     0.038 A 
HETATM   15  C   UNL     1      26.053  46.606  52.279  1.00  0.00     0.019 A 
BRANCH  13  16
HETATM   16  O   UNL     1      27.494  45.713  55.562  1.00  0.00    -0.347 OA
BRANCH  16  17
HETATM   17  C   UNL     1      28.672  46.448  55.906  1.00  0.00     0.214 C 
BRANCH  17  18
HETATM   18  C   UNL     1      29.736  45.524  56.455  1.00  0.00    -0.034 A 
HETATM   19  C   UNL     1      30.215  45.720  57.760  1.00  0.00     0.009 A 
HETATM   20  C   UNL     1      31.167  44.856  58.307  1.00  0.00     0.001 A 
HETATM   21  C   UNL     1      31.648  43.783  57.561  1.00  0.00     0.000 A 
HETATM   22  C   UNL     1      31.175  43.569  56.269  1.00  0.00     0.001 A 
HETATM   23  C   UNL     1      30.221  44.430  55.721  1.00  0.00     0.009 A 
ENDBRANCH  17  18
ENDBRANCH  16  17
ENDBRANCH  13  16
ENDBRANCH   7   9
ENDBRANCH   6   7
BRANCH   1  24
HETATM   24  C   UNL     1      23.315  46.755  48.957  1.00  0.00    -0.028 A 
HETATM   25  C   UNL     1      24.242  47.756  49.309  1.00  0.00     0.012 A 
HETATM   26  C   UNL     1      23.829  49.073  49.491  1.00  0.00     0.040 A 
HETATM   27  C   UNL     1      22.491  49.394  49.313  1.00  0.00     0.099 A 
HETATM   28  C   UNL     1      21.552  48.435  48.927  1.00  0.00     0.102 A 
HETATM   29  C   UNL     1      21.967  47.113  48.755  1.00  0.00     0.049 A 
BRANCH  27  30
HETATM   30  O   UNL     1      22.111  50.688  49.529  1.00  0.00    -0.358 OA
HETATM   31  H   UNL     1      21.796  51.026  48.668  1.00  0.00     0.218 HD
ENDBRANCH  27  30
BRANCH  28  32
HETATM   32  O   UNL     1      20.271  48.899  48.796  1.00  0.00    -0.349 OA
BRANCH  32  33
HETATM   33  C   UNL     1      19.282  48.333  49.657  1.00  0.00     0.171 C 
HETATM   34  C   UNL     1      19.032  49.319  50.784  1.00  0.00     0.034 C 
ENDBRANCH  32  33
ENDBRANCH  28  32
ENDBRANCH   1  24
BRANCH   5  35
HETATM   35  O   UNL     1      24.620  43.141  51.685  1.00  0.00    -0.355 OA
HETATM   36  H   UNL     1      24.888  42.265  51.344  1.00  0.00     0.218 HD
ENDBRANCH   5  35
BRANCH   2  37
HETATM   37  C   UNL     1      21.756  44.041  47.866  1.00  0.00     0.155 C 
BRANCH  37  38
HETATM   38  C   UNL     1      22.499  44.068  46.519  1.00  0.00     0.255 C 
BRANCH  38  39
HETATM   39  N   UNL     1      21.556  44.346  45.359  1.00  0.00    -0.066 N 
HETATM   40  H   UNL     1      22.125  44.745  44.597  1.00  0.00     0.280 HD
HETATM   41  C   UNL     1      20.862  43.094  44.824  1.00  0.00     0.261 C 
HETATM   42  C   UNL     1      19.857  43.466  43.730  1.00  0.00     0.195 C 
HETATM   43  O   UNL     1      18.898  44.403  44.224  1.00  0.00    -0.388 OA
HETATM   44  C   UNL     1      19.525  45.629  44.614  1.00  0.00     0.195 C 
HETATM   45  C   UNL     1      20.516  45.394  45.758  1.00  0.00     0.261 C 
ENDBRANCH  38  39
ENDBRANCH  37  38
ENDBRANCH   2  37
TORSDOF 13
ENDMDL
MODEL 9
REMARK VINA RESULT:      -8.3      2.005      8.104
REMARK  13 active torsions:
REMARK  status: ('A' for Active; 'I' for Inactive)
REMARK    1  A    between atoms: C_2  and  O_3 
REMARK    2  A    between atoms: O_3  and  C_4 
REMARK    3  A    between atoms: C_5  and  O_6 
REMARK    4  A    between atoms: C_9  and  C_10 
REMARK    5  A    between atoms: N_11  and  C_12 
REMARK    6  A    between atoms: C_12  and  C_13 
REMARK    7  A    between atoms: C_13  and  N_14 
REMARK    8  A    between atoms: C_23  and  O_24 
REMARK    9  A    between atoms: C_25  and  C_26 
REMARK   10  A    between atoms: C_26  and  C_27 
REMARK   11  A    between atoms: C_31  and  O_32 
REMARK   12  A    between atoms: O_32  and  C_33 
REMARK   13  A    between atoms: C_33  and  C_34 
ROOT
HETATM    1  C   UNL     1      25.442  42.271  50.061  1.00  0.00     0.161 A 
HETATM    2  N   UNL     1      26.829  41.894  49.824  1.00  0.00    -0.332 N 
HETATM    3  C   UNL     1      26.986  41.420  48.530  1.00  0.00     0.278 A 
HETATM    4  O   UNL     1      27.999  40.948  48.048  1.00  0.00    -0.265 OA
HETATM    5  C   UNL     1      25.680  41.508  47.848  1.00  0.00     0.146 A 
HETATM    6  C   UNL     1      24.796  41.952  48.749  1.00  0.00     0.059 A 
ENDROOT
BRANCH   6   7
HETATM    7  C   UNL     1      23.346  42.120  48.484  1.00  0.00     0.194 C 
HETATM    8  O   UNL     1      22.559  41.184  48.525  1.00  0.00    -0.287 OA
BRANCH   7   9
HETATM    9  C   UNL     1      22.870  43.471  48.089  1.00  0.00     0.021 A 
HETATM   10  C   UNL     1      22.853  43.860  46.738  1.00  0.00    -0.045 A 
HETATM   11  C   UNL     1      23.174  42.907  45.620  1.00  0.00     0.049 C 
HETATM   12  C   UNL     1      22.490  45.180  46.428  1.00  0.00     0.044 A 
HETATM   13  C   UNL     1      22.169  46.098  47.431  1.00  0.00     0.069 A 
HETATM   14  C   UNL     1      22.114  45.683  48.759  1.00  0.00     0.038 A 
HETATM   15  C   UNL     1      22.454  44.368  49.087  1.00  0.00     0.019 A 
BRANCH  13  16
HETATM   16  O   UNL     1      21.885  47.360  46.994  1.00  0.00    -0.347 OA
BRANCH  16  17
HETATM   17  C   UNL     1      20.530  47.789  47.148  1.00  0.00     0.214 C 
BRANCH  17  18
HETATM   18  C   UNL     1      20.448  48.965  48.097  1.00  0.00    -0.034 A 
HETATM   19  C   UNL     1      21.031  50.188  47.731  1.00  0.00     0.009 A 
HETATM   20  C   UNL     1      20.934  51.302  48.569  1.00  0.00     0.001 A 
HETATM   21  C   UNL     1      20.249  51.210  49.779  1.00  0.00     0.000 A 
HETATM   22  C   UNL     1      19.657  50.006  50.150  1.00  0.00     0.001 A 
HETATM   23  C   UNL     1      19.750  48.892  49.312  1.00  0.00     0.009 A 
ENDBRANCH  17  18
ENDBRANCH  16  17
ENDBRANCH  13  16
ENDBRANCH   7   9
ENDBRANCH   6   7
BRANCH   1  24
HETATM   24  C   UNL     1      25.385  43.731  50.473  1.00  0.00    -0.028 A 
HETATM   25  C   UNL     1      24.805  44.118  51.698  1.00  0.00     0.012 A 
HETATM   26  C   UNL     1      24.692  45.464  52.036  1.00  0.00     0.040 A 
HETATM   27  C   UNL     1      25.166  46.425  51.156  1.00  0.00     0.099 A 
HETATM   28  C   UNL     1      25.780  46.077  49.951  1.00  0.00     0.102 A 
HETATM   29  C   UNL     1      25.883  44.727  49.609  1.00  0.00     0.049 A 
BRANCH  27  30
HETATM   30  O   UNL     1      25.012  47.738  51.502  1.00  0.00    -0.358 OA
HETATM   31  H   UNL     1      25.896  48.051  51.779  1.00  0.00     0.218 HD
ENDBRANCH  27  30
BRANCH  28  32
HETATM   32  O   UNL     1      26.192  47.134  49.185  1.00  0.00    -0.349 OA
BRANCH  32  33
HETATM   33  C   UNL     1      27.584  47.455  49.213  1.00  0.00     0.171 C 
HETATM   34  C   UNL     1      27.710  48.966  49.153  1.00  0.00     0.034 C 
ENDBRANCH  32  33
ENDBRANCH  28  32
ENDBRANCH   1  24
BRANCH   5  35
HETATM   35  O   UNL     1      25.476  41.095  46.568  1.00  0.00    -0.355 OA
HETATM   36  H   UNL     1      26.348  40.887  46.180  1.00  0.00     0.218 HD
ENDBRANCH   5  35
BRANCH   2  37
HETATM   37  C   UNL     1      27.667  41.365  50.895  1.00  0.00     0.155 C 
BRANCH  37  38
HETATM   38  C   UNL     1      28.829  42.290  51.294  1.00  0.00     0.255 C 
BRANCH  38  39
HETATM   39  N   UNL     1      28.771  42.667  52.767  1.00  0.00    -0.066 N 
HETATM   40  H   UNL     1      28.189  41.958  53.237  1.00  0.00     0.280 HD
HETATM   41  C   UNL     1      30.139  42.682  53.446  1.00  0.00     0.261 C 
HETATM   42  C   UNL     1      30.012  43.167  54.893  1.00  0.00     0.195 C 
HETATM   43  O   UNL     1      29.411  44.463  54.939  1.00  0.00    -0.388 OA
HETATM   44  C   UNL     1      28.079  44.436  54.415  1.00  0.00     0.195 C 
HETATM   45  C   UNL     1      28.083  44.022  52.941  1.00  0.00     0.261 C 
ENDBRANCH  38  39
ENDBRANCH  37  38
ENDBRANCH   2  37
TORSDOF 13
ENDMDL
MODEL 10
REMARK VINA RESULT:      -8.2      6.378     11.699
REMARK  13 active torsions:
REMARK  status: ('A' for Active; 'I' for Inactive)
REMARK    1  A    between atoms: C_2  and  O_3 
REMARK    2  A    between atoms: O_3  and  C_4 
REMARK    3  A    between atoms: C_5  and  O_6 
REMARK    4  A    between atoms: C_9  and  C_10 
REMARK    5  A    between atoms: N_11  and  C_12 
REMARK    6  A    between atoms: C_12  and  C_13 
REMARK    7  A    between atoms: C_13  and  N_14 
REMARK    8  A    between atoms: C_23  and  O_24 
REMARK    9  A    between atoms: C_25  and  C_26 
REMARK   10  A    between atoms: C_26  and  C_27 
REMARK   11  A    between atoms: C_31  and  O_32 
REMARK   12  A    between atoms: O_32  and  C_33 
REMARK   13  A    between atoms: C_33  and  C_34 
ROOT
HETATM    1  C   UNL     1      21.451  47.703  47.315  1.00  0.00     0.161 A 
HETATM    2  N   UNL     1      21.974  46.455  47.855  1.00  0.00    -0.332 N 
HETATM    3  C   UNL     1      22.874  46.712  48.879  1.00  0.00     0.278 A 
HETATM    4  O   UNL     1      23.547  45.893  49.477  1.00  0.00    -0.265 OA
HETATM    5  C   UNL     1      22.944  48.174  49.072  1.00  0.00     0.146 A 
HETATM    6  C   UNL     1      22.161  48.730  48.140  1.00  0.00     0.059 A 
ENDROOT
BRANCH   6   7
HETATM    7  C   UNL     1      22.003  50.193  47.947  1.00  0.00     0.194 C 
HETATM    8  O   UNL     1      22.951  50.928  47.705  1.00  0.00    -0.287 OA
BRANCH   7   9
HETATM    9  C   UNL     1      20.646  50.768  48.129  1.00  0.00     0.021 A 
HETATM   10  C   UNL     1      20.172  51.102  49.410  1.00  0.00    -0.045 A 
HETATM   11  C   UNL     1      21.041  51.031  50.634  1.00  0.00     0.049 C 
HETATM   12  C   UNL     1      18.847  51.548  49.536  1.00  0.00     0.044 A 
HETATM   13  C   UNL     1      18.005  51.644  48.425  1.00  0.00     0.069 A 
HETATM   14  C   UNL     1      18.505  51.386  47.152  1.00  0.00     0.038 A 
HETATM   15  C   UNL     1      19.828  50.958  47.003  1.00  0.00     0.019 A 
BRANCH  13  16
HETATM   16  O   UNL     1      16.728  52.042  48.698  1.00  0.00    -0.347 OA
BRANCH  16  17
HETATM   17  C   UNL     1      16.506  52.597  49.997  1.00  0.00     0.214 C 
BRANCH  17  18
HETATM   18  C   UNL     1      15.240  53.425  50.014  1.00  0.00    -0.034 A 
HETATM   19  C   UNL     1      14.816  54.013  51.216  1.00  0.00     0.009 A 
HETATM   20  C   UNL     1      13.674  54.817  51.251  1.00  0.00     0.001 A 
HETATM   21  C   UNL     1      12.944  55.047  50.088  1.00  0.00     0.000 A 
HETATM   22  C   UNL     1      13.358  54.479  48.886  1.00  0.00     0.001 A 
HETATM   23  C   UNL     1      14.501  53.678  48.848  1.00  0.00     0.009 A 
ENDBRANCH  17  18
ENDBRANCH  16  17
ENDBRANCH  13  16
ENDBRANCH   7   9
ENDBRANCH   6   7
BRANCH   1  24
HETATM   24  C   UNL     1      19.938  47.706  47.439  1.00  0.00    -0.028 A 
HETATM   25  C   UNL     1      19.312  47.571  48.694  1.00  0.00     0.012 A 
HETATM   26  C   UNL     1      17.924  47.503  48.791  1.00  0.00     0.040 A 
HETATM   27  C   UNL     1      17.160  47.578  47.636  1.00  0.00     0.099 A 
HETATM   28  C   UNL     1      17.746  47.749  46.380  1.00  0.00     0.102 A 
HETATM   29  C   UNL     1      19.137  47.807  46.284  1.00  0.00     0.049 A 
BRANCH  27  30
HETATM   30  O   UNL     1      15.804  47.477  47.761  1.00  0.00    -0.358 OA
HETATM   31  H   UNL     1      15.445  48.361  47.548  1.00  0.00     0.218 HD
ENDBRANCH  27  30
BRANCH  28  32
HETATM   32  O   UNL     1      16.865  47.801  45.333  1.00  0.00    -0.349 OA
BRANCH  32  33
HETATM   33  C   UNL     1      17.283  48.507  44.164  1.00  0.00     0.171 C 
HETATM   34  C   UNL     1      16.706  49.908  44.240  1.00  0.00     0.034 C 
ENDBRANCH  32  33
ENDBRANCH  28  32
ENDBRANCH   1  24
BRANCH   5  35
HETATM   35  O   UNL     1      23.759  48.769  49.984  1.00  0.00    -0.355 OA
HETATM   36  H   UNL     1      24.662  48.783  49.612  1.00  0.00     0.218 HD
ENDBRANCH   5  35
BRANCH   2  37
HETATM   37  C   UNL     1      22.154  45.277  47.012  1.00  0.00     0.155 C 
BRANCH  37  38
HETATM   38  C   UNL     1      21.177  44.131  47.324  1.00  0.00     0.255 C 
BRANCH  38  39
HETATM   39  N   UNL     1      20.185  43.910  46.193  1.00  0.00    -0.066 N 
HETATM   40  H   UNL     1      20.213  42.905  45.960  1.00  0.00     0.280 HD
HETATM   41  C   UNL     1      18.748  44.271  46.562  1.00  0.00     0.261 C 
HETATM   42  C   UNL     1      17.828  44.119  45.347  1.00  0.00     0.195 C 
HETATM   43  O   UNL     1      18.290  44.928  44.262  1.00  0.00    -0.388 OA
HETATM   44  C   UNL     1      19.590  44.517  43.826  1.00  0.00     0.195 C 
HETATM   45  C   UNL     1      20.619  44.686  44.947  1.00  0.00     0.261 C 
ENDBRANCH  38  39
ENDBRANCH  37  38
ENDBRANCH   2  37
TORSDOF 13
ENDMDL
