MODEL 1
REMARK VINA RESULT:      -9.0      0.000      0.000
REMARK  3 active torsions:
REMARK  status: ('A' for Active; 'I' for Inactive)
REMARK    1  A    between atoms: C_7  and  C_8 
REMARK    2  A    between atoms: C_17  and  C_18 
REMARK       I    between atoms: C_18  and  N_19 
REMARK    3  A    between atoms: N_19  and  C_20 
ROOT
HETATM    1  C   UNL     1      25.383  43.877  51.515  1.00  0.00     0.206 C 
HETATM    2  N   UNL     1      24.421  43.390  50.516  1.00  0.00    -0.084 N 
HETATM    3  C   UNL     1      24.490  42.148  49.939  1.00  0.00     0.725 A 
HETATM    4  N   UNL     1      23.450  41.963  49.167  1.00  0.00    -0.054 NA
HETATM    5  C   UNL     1      22.736  43.119  49.341  1.00  0.00     0.275 A 
HETATM    6  N   UNL     1      23.256  44.000  50.202  1.00  0.00    -0.149 NA
HETATM    7  N   UNL     1      25.528  41.342  50.227  1.00  0.00    -0.192 N 
HETATM    8  C   UNL     1      26.616  41.746  50.990  1.00  0.00     0.037 C 
HETATM    9  C   UNL     1      27.756  40.760  51.072  1.00  0.00     0.070 C 
HETATM   10  C   UNL     1      26.597  42.956  51.604  1.00  0.00     0.063 C 
HETATM   11  H   UNL     1      25.605  40.456  49.733  1.00  0.00     0.184 HD
ENDROOT
BRANCH  10  12
HETATM   12  C   UNL     1      27.829  43.456  52.267  1.00  0.00     0.256 C 
HETATM   13  N   UNL     1      27.810  43.345  53.639  1.00  0.00    -0.323 N 
HETATM   14  H   UNL     1      27.025  42.879  54.070  1.00  0.00     0.169 HD
HETATM   15  O   UNL     1      28.733  43.903  51.570  1.00  0.00    -0.267 OA
BRANCH  13  16
HETATM   16  C   UNL     1      28.802  43.816  54.532  1.00  0.00     0.035 A 
HETATM   17  C   UNL     1      28.778  45.078  55.131  1.00  0.00     0.029 A 
HETATM   18  C   UNL     1      29.791  45.469  56.013  1.00  0.00     0.002 A 
HETATM   19  C   UNL     1      30.839  44.601  56.303  1.00  0.00     0.000 A 
HETATM   20  C   UNL     1      30.873  43.340  55.713  1.00  0.00     0.002 A 
HETATM   21  C   UNL     1      29.859  42.948  54.834  1.00  0.00     0.029 A 
ENDBRANCH  13  16
ENDBRANCH  10  12
BRANCH   1  22
HETATM   22  C   UNL     1      25.697  45.334  51.301  1.00  0.00     0.015 A 
HETATM   23  C   UNL     1      25.812  46.341  52.310  1.00  0.00     0.061 A 
HETATM   24  C   UNL     1      25.576  46.219  53.772  1.00  0.00     0.073 C 
HETATM   25  N   UNL     1      26.200  47.515  51.802  1.00  0.00    -0.178 NA
HETATM   26  N   UNL     1      26.295  47.290  50.484  1.00  0.00    -0.284 N 
HETATM   27  C   UNL     1      26.762  48.342  49.614  1.00  0.00     0.179 C 
HETATM   28  C   UNL     1      25.974  46.015  50.128  1.00  0.00     0.123 A 
ENDBRANCH   1  22
TORSDOF 3
ENDMDL
MODEL 2
REMARK VINA RESULT:      -8.1      1.893      4.377
REMARK  3 active torsions:
REMARK  status: ('A' for Active; 'I' for Inactive)
REMARK    1  A    between atoms: C_7  and  C_8 
REMARK    2  A    between atoms: C_17  and  C_18 
REMARK       I    between atoms: C_18  and  N_19 
REMARK    3  A    between atoms: N_19  and  C_20 
ROOT
HETATM    1  C   UNL     1      27.080  45.369  51.871  1.00  0.00     0.206 C 
HETATM    2  N   UNL     1      26.075  46.026  51.023  1.00  0.00    -0.084 N 
HETATM    3  C   UNL     1      25.314  47.090  51.433  1.00  0.00     0.725 A 
HETATM    4  N   UNL     1      24.583  47.519  50.436  1.00  0.00    -0.054 NA
HETATM    5  C   UNL     1      24.969  46.703  49.406  1.00  0.00     0.275 A 
HETATM    6  N   UNL     1      25.922  45.811  49.697  1.00  0.00    -0.149 NA
HETATM    7  N   UNL     1      25.418  47.528  52.701  1.00  0.00    -0.192 N 
HETATM    8  C   UNL     1      26.172  46.878  53.670  1.00  0.00     0.037 C 
HETATM    9  C   UNL     1      26.040  47.423  55.072  1.00  0.00     0.070 C 
HETATM   10  C   UNL     1      26.960  45.831  53.321  1.00  0.00     0.063 C 
HETATM   11  H   UNL     1      24.793  48.268  53.011  1.00  0.00     0.184 HD
ENDROOT
BRANCH  10  12
HETATM   12  C   UNL     1      27.621  45.030  54.384  1.00  0.00     0.256 C 
HETATM   13  N   UNL     1      28.858  45.505  54.756  1.00  0.00    -0.323 N 
HETATM   14  H   UNL     1      29.177  46.373  54.351  1.00  0.00     0.169 HD
HETATM   15  O   UNL     1      27.034  44.052  54.836  1.00  0.00    -0.267 OA
BRANCH  13  16
HETATM   16  C   UNL     1      29.746  44.899  55.676  1.00  0.00     0.035 A 
HETATM   17  C   UNL     1      30.445  43.716  55.423  1.00  0.00     0.029 A 
HETATM   18  C   UNL     1      31.316  43.183  56.380  1.00  0.00     0.002 A 
HETATM   19  C   UNL     1      31.496  43.829  57.599  1.00  0.00     0.000 A 
HETATM   20  C   UNL     1      30.807  45.010  57.862  1.00  0.00     0.002 A 
HETATM   21  C   UNL     1      29.938  45.545  56.905  1.00  0.00     0.029 A 
ENDBRANCH  13  16
ENDBRANCH  10  12
BRANCH   1  22
HETATM   22  C   UNL     1      27.070  43.877  51.669  1.00  0.00     0.015 A 
HETATM   23  C   UNL     1      25.920  43.043  51.511  1.00  0.00     0.061 A 
HETATM   24  C   UNL     1      24.484  43.421  51.587  1.00  0.00     0.073 C 
HETATM   25  N   UNL     1      26.253  41.775  51.250  1.00  0.00    -0.178 NA
HETATM   26  N   UNL     1      27.594  41.774  51.279  1.00  0.00    -0.284 N 
HETATM   27  C   UNL     1      28.310  40.561  50.971  1.00  0.00     0.179 C 
HETATM   28  C   UNL     1      28.130  42.994  51.558  1.00  0.00     0.123 A 
ENDBRANCH   1  22
TORSDOF 3
ENDMDL
MODEL 3
REMARK VINA RESULT:      -7.7      1.857      2.691
REMARK  3 active torsions:
REMARK  status: ('A' for Active; 'I' for Inactive)
REMARK    1  A    between atoms: C_7  and  C_8 
REMARK    2  A    between atoms: C_17  and  C_18 
REMARK       I    between atoms: C_18  and  N_19 
REMARK    3  A    between atoms: N_19  and  C_20 
ROOT
HETATM    1  C   UNL     1      26.397  42.579  50.476  1.00  0.00     0.206 C 
HETATM    2  N   UNL     1      26.878  41.858  49.289  1.00  0.00    -0.084 N 
HETATM    3  C   UNL     1      27.849  40.891  49.331  1.00  0.00     0.725 A 
HETATM    4  N   UNL     1      27.995  40.363  48.142  1.00  0.00    -0.054 NA
HETATM    5  C   UNL     1      27.046  41.017  47.403  1.00  0.00     0.275 A 
HETATM    6  N   UNL     1      26.294  41.899  48.071  1.00  0.00    -0.149 NA
HETATM    7  N   UNL     1      28.467  40.624  50.496  1.00  0.00    -0.192 N 
HETATM    8  C   UNL     1      28.263  41.366  51.652  1.00  0.00     0.037 C 
HETATM    9  C   UNL     1      29.163  41.019  52.815  1.00  0.00     0.070 C 
HETATM   10  C   UNL     1      27.302  42.323  51.679  1.00  0.00     0.063 C 
HETATM   11  H   UNL     1      29.237  39.959  50.494  1.00  0.00     0.184 HD
ENDROOT
BRANCH  10  12
HETATM   12  C   UNL     1      27.210  43.230  52.851  1.00  0.00     0.256 C 
HETATM   13  N   UNL     1      28.403  43.826  53.193  1.00  0.00    -0.323 N 
HETATM   14  H   UNL     1      29.203  43.669  52.597  1.00  0.00     0.169 HD
HETATM   15  O   UNL     1      26.123  43.379  53.398  1.00  0.00    -0.267 OA
BRANCH  13  16
HETATM   16  C   UNL     1      28.633  44.664  54.310  1.00  0.00     0.035 A 
HETATM   17  C   UNL     1      27.860  45.788  54.614  1.00  0.00     0.029 A 
HETATM   18  C   UNL     1      28.143  46.564  55.744  1.00  0.00     0.002 A 
HETATM   19  C   UNL     1      29.201  46.222  56.580  1.00  0.00     0.000 A 
HETATM   20  C   UNL     1      29.976  45.103  56.288  1.00  0.00     0.002 A 
HETATM   21  C   UNL     1      29.693  44.326  55.160  1.00  0.00     0.029 A 
ENDBRANCH  13  16
ENDBRANCH  10  12
BRANCH   1  22
HETATM   22  C   UNL     1      26.142  44.030  50.164  1.00  0.00     0.015 A 
HETATM   23  C   UNL     1      24.874  44.691  50.147  1.00  0.00     0.061 A 
HETATM   24  C   UNL     1      23.522  44.106  50.348  1.00  0.00     0.073 C 
HETATM   25  N   UNL     1      24.997  46.004  49.931  1.00  0.00    -0.178 NA
HETATM   26  N   UNL     1      26.315  46.190  49.769  1.00  0.00    -0.284 N 
HETATM   27  C   UNL     1      26.827  47.524  49.577  1.00  0.00     0.179 C 
HETATM   28  C   UNL     1      27.039  45.040  49.864  1.00  0.00     0.123 A 
ENDBRANCH   1  22
TORSDOF 3
ENDMDL
MODEL 4
REMARK VINA RESULT:      -7.7      2.325      4.788
REMARK  3 active torsions:
REMARK  status: ('A' for Active; 'I' for Inactive)
REMARK    1  A    between atoms: C_7  and  C_8 
REMARK    2  A    between atoms: C_17  and  C_18 
REMARK       I    between atoms: C_18  and  N_19 
REMARK    3  A    between atoms: N_19  and  C_20 
ROOT
HETATM    1  C   UNL     1      25.843  42.009  48.641  1.00  0.00     0.206 C 
HETATM    2  N   UNL     1      24.563  41.380  48.287  1.00  0.00    -0.084 N 
HETATM    3  C   UNL     1      23.348  41.816  48.751  1.00  0.00     0.725 A 
HETATM    4  N   UNL     1      22.389  41.125  48.191  1.00  0.00    -0.054 NA
HETATM    5  C   UNL     1      23.071  40.293  47.344  1.00  0.00     0.275 A 
HETATM    6  N   UNL     1      24.399  40.450  47.320  1.00  0.00    -0.149 NA
HETATM    7  N   UNL     1      23.304  42.825  49.641  1.00  0.00    -0.192 N 
HETATM    8  C   UNL     1      24.439  43.377  50.220  1.00  0.00     0.037 C 
HETATM    9  C   UNL     1      24.186  44.388  51.314  1.00  0.00     0.070 C 
HETATM   10  C   UNL     1      25.669  43.001  49.789  1.00  0.00     0.063 C 
HETATM   11  H   UNL     1      22.403  43.086  50.033  1.00  0.00     0.184 HD
ENDROOT
BRANCH  10  12
HETATM   12  C   UNL     1      26.873  43.457  50.530  1.00  0.00     0.256 C 
HETATM   13  N   UNL     1      27.049  42.839  51.747  1.00  0.00    -0.323 N 
HETATM   14  H   UNL     1      26.415  42.094  52.000  1.00  0.00     0.169 HD
HETATM   15  O   UNL     1      27.592  44.309  50.019  1.00  0.00    -0.267 OA
BRANCH  13  16
HETATM   16  C   UNL     1      28.053  43.133  52.700  1.00  0.00     0.035 A 
HETATM   17  C   UNL     1      27.875  44.006  53.776  1.00  0.00     0.029 A 
HETATM   18  C   UNL     1      28.914  44.239  54.684  1.00  0.00     0.002 A 
HETATM   19  C   UNL     1      30.140  43.601  54.524  1.00  0.00     0.000 A 
HETATM   20  C   UNL     1      30.328  42.727  53.456  1.00  0.00     0.002 A 
HETATM   21  C   UNL     1      29.289  42.492  52.549  1.00  0.00     0.029 A 
ENDBRANCH  13  16
ENDBRANCH  10  12
BRANCH   1  22
HETATM   22  C   UNL     1      26.919  40.975  48.844  1.00  0.00     0.015 A 
HETATM   23  C   UNL     1      27.943  40.614  47.914  1.00  0.00     0.061 A 
HETATM   24  C   UNL     1      28.144  41.097  46.522  1.00  0.00     0.073 C 
HETATM   25  N   UNL     1      28.804  39.734  48.435  1.00  0.00    -0.178 NA
HETATM   26  N   UNL     1      28.327  39.495  49.665  1.00  0.00    -0.284 N 
HETATM   27  C   UNL     1      29.056  38.624  50.554  1.00  0.00     0.179 C 
HETATM   28  C   UNL     1      27.186  40.184  49.947  1.00  0.00     0.123 A 
ENDBRANCH   1  22
TORSDOF 3
ENDMDL
MODEL 5
REMARK VINA RESULT:      -7.4      2.519      6.147
REMARK  3 active torsions:
REMARK  status: ('A' for Active; 'I' for Inactive)
REMARK    1  A    between atoms: C_7  and  C_8 
REMARK    2  A    between atoms: C_17  and  C_18 
REMARK       I    between atoms: C_18  and  N_19 
REMARK    3  A    between atoms: N_19  and  C_20 
ROOT
HETATM    1  C   UNL     1      27.172  44.526  52.005  1.00  0.00     0.206 C 
HETATM    2  N   UNL     1      28.138  43.552  52.533  1.00  0.00    -0.084 N 
HETATM    3  C   UNL     1      28.197  42.244  52.125  1.00  0.00     0.725 A 
HETATM    4  N   UNL     1      29.213  41.651  52.697  1.00  0.00    -0.054 NA
HETATM    5  C   UNL     1      29.784  42.663  53.422  1.00  0.00     0.275 A 
HETATM    6  N   UNL     1      29.200  43.860  53.310  1.00  0.00    -0.149 NA
HETATM    7  N   UNL     1      27.283  41.782  51.253  1.00  0.00    -0.192 N 
HETATM    8  C   UNL     1      26.192  42.528  50.827  1.00  0.00     0.037 C 
HETATM    9  C   UNL     1      25.189  41.788  49.975  1.00  0.00     0.070 C 
HETATM   10  C   UNL     1      26.088  43.834  51.181  1.00  0.00     0.063 C 
HETATM   11  H   UNL     1      27.294  40.792  51.020  1.00  0.00     0.184 HD
ENDROOT
BRANCH  10  12
HETATM   12  C   UNL     1      24.837  44.574  50.876  1.00  0.00     0.256 C 
HETATM   13  N   UNL     1      24.957  45.474  49.842  1.00  0.00    -0.323 N 
HETATM   14  H   UNL     1      25.830  45.506  49.335  1.00  0.00     0.169 HD
HETATM   15  O   UNL     1      23.833  44.332  51.538  1.00  0.00    -0.267 OA
BRANCH  13  16
HETATM   16  C   UNL     1      23.961  46.373  49.393  1.00  0.00     0.035 A 
HETATM   17  C   UNL     1      22.877  46.002  48.593  1.00  0.00     0.029 A 
HETATM   18  C   UNL     1      21.925  46.948  48.197  1.00  0.00     0.002 A 
HETATM   19  C   UNL     1      22.048  48.275  48.597  1.00  0.00     0.000 A 
HETATM   20  C   UNL     1      23.123  48.656  49.397  1.00  0.00     0.002 A 
HETATM   21  C   UNL     1      24.074  47.711  49.795  1.00  0.00     0.029 A 
ENDBRANCH  13  16
ENDBRANCH  10  12
BRANCH   1  22
HETATM   22  C   UNL     1      26.667  45.436  53.093  1.00  0.00     0.015 A 
HETATM   23  C   UNL     1      25.993  45.044  54.291  1.00  0.00     0.061 A 
HETATM   24  C   UNL     1      25.562  43.685  54.710  1.00  0.00     0.073 C 
HETATM   25  N   UNL     1      25.765  46.084  55.100  1.00  0.00    -0.178 NA
HETATM   26  N   UNL     1      26.243  47.139  54.423  1.00  0.00    -0.284 N 
HETATM   27  C   UNL     1      26.222  48.445  55.035  1.00  0.00     0.179 C 
HETATM   28  C   UNL     1      26.761  46.813  53.207  1.00  0.00     0.123 A 
ENDBRANCH   1  22
TORSDOF 3
ENDMDL
MODEL 6
REMARK VINA RESULT:      -7.2      5.233      8.772
REMARK  3 active torsions:
REMARK  status: ('A' for Active; 'I' for Inactive)
REMARK    1  A    between atoms: C_7  and  C_8 
REMARK    2  A    between atoms: C_17  and  C_18 
REMARK       I    between atoms: C_18  and  N_19 
REMARK    3  A    between atoms: N_19  and  C_20 
ROOT
HETATM    1  C   UNL     1      21.844  45.384  48.464  1.00  0.00     0.206 C 
HETATM    2  N   UNL     1      22.666  44.167  48.504  1.00  0.00    -0.084 N 
HETATM    3  C   UNL     1      23.911  44.110  49.076  1.00  0.00     0.725 A 
HETATM    4  N   UNL     1      24.354  42.880  49.045  1.00  0.00    -0.054 NA
HETATM    5  C   UNL     1      23.312  42.198  48.477  1.00  0.00     0.275 A 
HETATM    6  N   UNL     1      22.231  42.928  48.181  1.00  0.00    -0.149 NA
HETATM    7  N   UNL     1      24.465  45.235  49.566  1.00  0.00    -0.192 N 
HETATM    8  C   UNL     1      23.895  46.492  49.414  1.00  0.00     0.037 C 
HETATM    9  C   UNL     1      24.739  47.651  49.888  1.00  0.00     0.070 C 
HETATM   10  C   UNL     1      22.656  46.610  48.873  1.00  0.00     0.063 C 
HETATM   11  H   UNL     1      25.418  45.191  49.918  1.00  0.00     0.184 HD
ENDROOT
BRANCH  10  12
HETATM   12  C   UNL     1      22.129  47.960  48.548  1.00  0.00     0.256 C 
HETATM   13  N   UNL     1      21.220  48.441  49.463  1.00  0.00    -0.323 N 
HETATM   14  H   UNL     1      21.046  47.896  50.295  1.00  0.00     0.169 HD
HETATM   15  O   UNL     1      22.532  48.523  47.536  1.00  0.00    -0.267 OA
BRANCH  13  16
HETATM   16  C   UNL     1      20.494  49.652  49.367  1.00  0.00     0.035 A 
HETATM   17  C   UNL     1      20.905  50.751  48.608  1.00  0.00     0.029 A 
HETATM   18  C   UNL     1      20.127  51.912  48.554  1.00  0.00     0.002 A 
HETATM   19  C   UNL     1      18.930  51.986  49.260  1.00  0.00     0.000 A 
HETATM   20  C   UNL     1      18.509  50.897  50.018  1.00  0.00     0.002 A 
HETATM   21  C   UNL     1      19.285  49.735  50.071  1.00  0.00     0.029 A 
ENDBRANCH  13  16
ENDBRANCH  10  12
BRANCH   1  22
HETATM   22  C   UNL     1      21.116  45.505  47.151  1.00  0.00     0.015 A 
HETATM   23  C   UNL     1      19.706  45.650  46.965  1.00  0.00     0.061 A 
HETATM   24  C   UNL     1      18.630  45.635  47.991  1.00  0.00     0.073 C 
HETATM   25  N   UNL     1      19.387  45.833  45.680  1.00  0.00    -0.178 NA
HETATM   26  N   UNL     1      20.561  45.768  45.036  1.00  0.00    -0.284 N 
HETATM   27  C   UNL     1      20.604  45.991  43.612  1.00  0.00     0.179 C 
HETATM   28  C   UNL     1      21.620  45.540  45.862  1.00  0.00     0.123 A 
ENDBRANCH   1  22
TORSDOF 3
ENDMDL
MODEL 7
REMARK VINA RESULT:      -7.1     16.466     18.432
REMARK  3 active torsions:
REMARK  status: ('A' for Active; 'I' for Inactive)
REMARK    1  A    between atoms: C_7  and  C_8 
REMARK    2  A    between atoms: C_17  and  C_18 
REMARK       I    between atoms: C_18  and  N_19 
REMARK    3  A    between atoms: N_19  and  C_20 
ROOT
HETATM    1  C   UNL     1      39.569  46.061  64.316  1.00  0.00     0.206 C 
HETATM    2  N   UNL     1      41.037  45.992  64.349  1.00  0.00    -0.084 N 
HETATM    3  C   UNL     1      41.758  44.941  63.843  1.00  0.00     0.725 A 
HETATM    4  N   UNL     1      43.037  45.205  63.927  1.00  0.00    -0.054 NA
HETATM    5  C   UNL     1      43.051  46.466  64.458  1.00  0.00     0.275 A 
HETATM    6  N   UNL     1      41.852  47.017  64.679  1.00  0.00    -0.149 NA
HETATM    7  N   UNL     1      41.110  43.868  63.354  1.00  0.00    -0.192 N 
HETATM    8  C   UNL     1      39.733  43.705  63.445  1.00  0.00     0.037 C 
HETATM    9  C   UNL     1      39.205  42.366  62.986  1.00  0.00     0.070 C 
HETATM   10  C   UNL     1      38.964  44.716  63.919  1.00  0.00     0.063 C 
HETATM   11  H   UNL     1      41.659  43.066  63.053  1.00  0.00     0.184 HD
ENDROOT
BRANCH  10  12
HETATM   12  C   UNL     1      37.522  44.474  64.182  1.00  0.00     0.256 C 
HETATM   13  N   UNL     1      37.278  43.714  65.303  1.00  0.00    -0.323 N 
HETATM   14  H   UNL     1      38.063  43.454  65.884  1.00  0.00     0.169 HD
HETATM   15  O   UNL     1      36.694  44.955  63.416  1.00  0.00    -0.267 OA
BRANCH  13  16
HETATM   16  C   UNL     1      36.015  43.255  65.747  1.00  0.00     0.035 A 
HETATM   17  C   UNL     1      35.383  42.111  65.254  1.00  0.00     0.029 A 
HETATM   18  C   UNL     1      34.136  41.715  65.751  1.00  0.00     0.002 A 
HETATM   19  C   UNL     1      33.510  42.459  66.745  1.00  0.00     0.000 A 
HETATM   20  C   UNL     1      34.132  43.600  67.246  1.00  0.00     0.002 A 
HETATM   21  C   UNL     1      35.379  43.996  66.752  1.00  0.00     0.029 A 
ENDBRANCH  13  16
ENDBRANCH  10  12
BRANCH   1  22
HETATM   22  C   UNL     1      39.024  46.659  65.586  1.00  0.00     0.015 A 
HETATM   23  C   UNL     1      38.093  47.738  65.692  1.00  0.00     0.061 A 
HETATM   24  C   UNL     1      37.510  48.569  64.606  1.00  0.00     0.073 C 
HETATM   25  N   UNL     1      37.733  47.966  66.960  1.00  0.00    -0.178 NA
HETATM   26  N   UNL     1      38.447  47.080  67.669  1.00  0.00    -0.284 N 
HETATM   27  C   UNL     1      38.259  46.996  69.097  1.00  0.00     0.179 C 
HETATM   28  C   UNL     1      39.258  46.300  66.902  1.00  0.00     0.123 A 
ENDBRANCH   1  22
TORSDOF 3
ENDMDL
MODEL 8
REMARK VINA RESULT:      -7.1     11.771     14.785
REMARK  3 active torsions:
REMARK  status: ('A' for Active; 'I' for Inactive)
REMARK    1  A    between atoms: C_7  and  C_8 
REMARK    2  A    between atoms: C_17  and  C_18 
REMARK       I    between atoms: C_18  and  N_19 
REMARK    3  A    between atoms: N_19  and  C_20 
ROOT
HETATM    1  C   UNL     1      28.577  49.089  41.069  1.00  0.00     0.206 C 
HETATM    2  N   UNL     1      29.874  49.441  41.666  1.00  0.00    -0.084 N 
HETATM    3  C   UNL     1      30.486  50.655  41.487  1.00  0.00     0.725 A 
HETATM    4  N   UNL     1      31.573  50.710  42.214  1.00  0.00    -0.054 NA
HETATM    5  C   UNL     1      31.561  49.506  42.866  1.00  0.00     0.275 A 
HETATM    6  N   UNL     1      30.512  48.717  42.612  1.00  0.00    -0.149 NA
HETATM    7  N   UNL     1      29.930  51.562  40.664  1.00  0.00    -0.192 N 
HETATM    8  C   UNL     1      28.819  51.292  39.875  1.00  0.00     0.037 C 
HETATM    9  C   UNL     1      28.435  52.378  38.898  1.00  0.00     0.070 C 
HETATM   10  C   UNL     1      28.157  50.117  40.021  1.00  0.00     0.063 C 
HETATM   11  H   UNL     1      30.435  52.426  40.483  1.00  0.00     0.184 HD
ENDROOT
BRANCH  10  12
HETATM   12  C   UNL     1      27.085  49.760  39.057  1.00  0.00     0.256 C 
HETATM   13  N   UNL     1      25.843  49.609  39.631  1.00  0.00    -0.323 N 
HETATM   14  H   UNL     1      25.742  49.821  40.613  1.00  0.00     0.169 HD
HETATM   15  O   UNL     1      27.375  49.639  37.871  1.00  0.00    -0.267 OA
BRANCH  13  16
HETATM   16  C   UNL     1      24.662  49.190  38.975  1.00  0.00     0.035 A 
HETATM   17  C   UNL     1      23.627  50.052  38.602  1.00  0.00     0.029 A 
HETATM   18  C   UNL     1      22.492  49.563  37.947  1.00  0.00     0.002 A 
HETATM   19  C   UNL     1      22.381  48.207  37.657  1.00  0.00     0.000 A 
HETATM   20  C   UNL     1      23.406  47.338  38.022  1.00  0.00     0.002 A 
HETATM   21  C   UNL     1      24.542  47.826  38.675  1.00  0.00     0.029 A 
ENDBRANCH  13  16
ENDBRANCH  10  12
BRANCH   1  22
HETATM   22  C   UNL     1      28.563  47.657  40.605  1.00  0.00     0.015 A 
HETATM   23  C   UNL     1      29.514  47.029  39.741  1.00  0.00     0.061 A 
HETATM   24  C   UNL     1      30.674  47.639  39.041  1.00  0.00     0.073 C 
HETATM   25  N   UNL     1      29.275  45.721  39.602  1.00  0.00    -0.178 NA
HETATM   26  N   UNL     1      28.167  45.509  40.326  1.00  0.00    -0.284 N 
HETATM   27  C   UNL     1      27.648  44.169  40.457  1.00  0.00     0.179 C 
HETATM   28  C   UNL     1      27.682  46.636  40.917  1.00  0.00     0.123 A 
ENDBRANCH   1  22
TORSDOF 3
ENDMDL
MODEL 9
REMARK VINA RESULT:      -7.0     16.410     18.634
REMARK  3 active torsions:
REMARK  status: ('A' for Active; 'I' for Inactive)
REMARK    1  A    between atoms: C_7  and  C_8 
REMARK    2  A    between atoms: C_17  and  C_18 
REMARK       I    between atoms: C_18  and  N_19 
REMARK    3  A    between atoms: N_19  and  C_20 
ROOT
HETATM    1  C   UNL     1      38.613  45.845  64.578  1.00  0.00     0.206 C 
HETATM    2  N   UNL     1      38.960  46.990  65.431  1.00  0.00    -0.084 N 
HETATM    3  C   UNL     1      40.230  47.497  65.541  1.00  0.00     0.725 A 
HETATM    4  N   UNL     1      40.212  48.568  66.292  1.00  0.00    -0.054 NA
HETATM    5  C   UNL     1      38.883  48.708  66.588  1.00  0.00     0.275 A 
HETATM    6  N   UNL     1      38.066  47.803  66.037  1.00  0.00    -0.149 NA
HETATM    7  N   UNL     1      41.244  46.884  64.904  1.00  0.00    -0.192 N 
HETATM    8  C   UNL     1      41.100  45.677  64.232  1.00  0.00     0.037 C 
HETATM    9  C   UNL     1      42.380  45.063  63.717  1.00  0.00     0.070 C 
HETATM   10  C   UNL     1      39.867  45.136  64.072  1.00  0.00     0.063 C 
HETATM   11  H   UNL     1      42.189  47.227  65.057  1.00  0.00     0.184 HD
ENDROOT
BRANCH  10  12
HETATM   12  C   UNL     1      39.739  43.765  63.514  1.00  0.00     0.256 C 
HETATM   13  N   UNL     1      40.120  42.769  64.383  1.00  0.00    -0.323 N 
HETATM   14  H   UNL     1      40.373  43.029  65.326  1.00  0.00     0.169 HD
HETATM   15  O   UNL     1      39.314  43.632  62.371  1.00  0.00    -0.267 OA
BRANCH  13  16
HETATM   16  C   UNL     1      40.185  41.385  64.095  1.00  0.00     0.035 A 
HETATM   17  C   UNL     1      39.458  40.764  63.077  1.00  0.00     0.029 A 
HETATM   18  C   UNL     1      39.583  39.389  62.847  1.00  0.00     0.002 A 
HETATM   19  C   UNL     1      40.439  38.623  63.632  1.00  0.00     0.000 A 
HETATM   20  C   UNL     1      41.171  39.232  64.648  1.00  0.00     0.002 A 
HETATM   21  C   UNL     1      41.048  40.606  64.878  1.00  0.00     0.029 A 
ENDBRANCH  13  16
ENDBRANCH  10  12
BRANCH   1  22
HETATM   22  C   UNL     1      37.599  44.956  65.248  1.00  0.00     0.015 A 
HETATM   23  C   UNL     1      37.737  44.305  66.514  1.00  0.00     0.061 A 
HETATM   24  C   UNL     1      38.915  44.280  67.420  1.00  0.00     0.073 C 
HETATM   25  N   UNL     1      36.617  43.668  66.873  1.00  0.00    -0.178 NA
HETATM   26  N   UNL     1      35.781  43.864  65.843  1.00  0.00    -0.284 N 
HETATM   27  C   UNL     1      34.432  43.361  65.917  1.00  0.00     0.179 C 
HETATM   28  C   UNL     1      36.328  44.597  64.834  1.00  0.00     0.123 A 
ENDBRANCH   1  22
TORSDOF 3
ENDMDL
MODEL 10
REMARK VINA RESULT:      -6.8      2.353      5.865
REMARK  3 active torsions:
REMARK  status: ('A' for Active; 'I' for Inactive)
REMARK    1  A    between atoms: C_7  and  C_8 
REMARK    2  A    between atoms: C_17  and  C_18 
REMARK       I    between atoms: C_18  and  N_19 
REMARK    3  A    between atoms: N_19  and  C_20 
ROOT
HETATM    1  C   UNL     1      27.256  43.916  51.945  1.00  0.00     0.206 C 
HETATM    2  N   UNL     1      27.257  44.662  53.211  1.00  0.00    -0.084 N 
HETATM    3  C   UNL     1      27.754  44.161  54.387  1.00  0.00     0.725 A 
HETATM    4  N   UNL     1      27.708  45.084  55.313  1.00  0.00    -0.054 NA
HETATM    5  C   UNL     1      27.210  46.165  54.637  1.00  0.00     0.275 A 
HETATM    6  N   UNL     1      26.974  45.978  53.334  1.00  0.00    -0.149 NA
HETATM    7  N   UNL     1      28.198  42.891  54.429  1.00  0.00    -0.192 N 
HETATM    8  C   UNL     1      28.069  42.005  53.368  1.00  0.00     0.037 C 
HETATM    9  C   UNL     1      28.480  40.581  53.655  1.00  0.00     0.070 C 
HETATM   10  C   UNL     1      27.603  42.447  52.173  1.00  0.00     0.063 C 
HETATM   11  H   UNL     1      28.492  42.511  55.325  1.00  0.00     0.184 HD
ENDROOT
BRANCH  10  12
HETATM   12  C   UNL     1      27.298  41.464  51.101  1.00  0.00     0.256 C 
HETATM   13  N   UNL     1      28.313  41.300  50.186  1.00  0.00    -0.323 N 
HETATM   14  H   UNL     1      29.186  41.783  50.350  1.00  0.00     0.169 HD
HETATM   15  O   UNL     1      26.213  40.893  51.117  1.00  0.00    -0.267 OA
BRANCH  13  16
HETATM   16  C   UNL     1      28.270  40.501  49.019  1.00  0.00     0.035 A 
HETATM   17  C   UNL     1      27.805  40.952  47.781  1.00  0.00     0.029 A 
HETATM   18  C   UNL     1      27.802  40.104  46.669  1.00  0.00     0.002 A 
HETATM   19  C   UNL     1      28.264  38.796  46.784  1.00  0.00     0.000 A 
HETATM   20  C   UNL     1      28.732  38.337  48.012  1.00  0.00     0.002 A 
HETATM   21  C   UNL     1      28.737  39.184  49.124  1.00  0.00     0.029 A 
ENDBRANCH  13  16
ENDBRANCH  10  12
BRANCH   1  22
HETATM   22  C   UNL     1      25.988  44.163  51.170  1.00  0.00     0.015 A 
HETATM   23  C   UNL     1      25.817  45.067  50.076  1.00  0.00     0.061 A 
HETATM   24  C   UNL     1      26.801  46.022  49.501  1.00  0.00     0.073 C 
HETATM   25  N   UNL     1      24.596  44.979  49.541  1.00  0.00    -0.178 NA
HETATM   26  N   UNL     1      23.969  44.066  50.297  1.00  0.00    -0.284 N 
HETATM   27  C   UNL     1      22.625  43.665  49.960  1.00  0.00     0.179 C 
HETATM   28  C   UNL     1      24.743  43.573  51.303  1.00  0.00     0.123 A 
ENDBRANCH   1  22
TORSDOF 3
ENDMDL
