MODEL 1
REMARK VINA RESULT:      -9.2      0.000      0.000
REMARK  1 active torsions:
REMARK  status: ('A' for Active; 'I' for Inactive)
REMARK    1  A    between atoms: C_8  and  C_9 
ROOT
HETATM    1  C   UNL     1      20.959  46.462  45.770  1.00  0.00     0.073 C 
HETATM    2  C   UNL     1      20.348  46.483  47.125  1.00  0.00     0.062 C 
HETATM    3  N   UNL     1      19.770  45.376  47.601  1.00  0.00    -0.178 NA
HETATM    4  N   UNL     1      19.397  45.715  48.838  1.00  0.00    -0.262 N 
HETATM    5  H   UNL     1      18.945  45.010  49.409  1.00  0.00     0.191 HD
HETATM    6  C   UNL     1      19.587  47.038  49.124  1.00  0.00     0.134 C 
HETATM    7  C   UNL     1      20.307  47.565  48.067  1.00  0.00     0.032 C 
HETATM    8  C   UNL     1      20.994  48.888  47.909  1.00  0.00     0.119 C 
HETATM    9  S   UNL     1      20.277  50.377  48.661  1.00  0.00    -0.141 SA
HETATM   10  C   UNL     1      18.660  49.791  49.240  1.00  0.00     0.136 C 
HETATM   11  C   UNL     1      17.827  51.029  49.583  1.00  0.00     0.031 C 
HETATM   12  C   UNL     1      18.801  48.898  50.475  1.00  0.00     0.236 C 
HETATM   13  O   UNL     1      18.528  49.278  51.616  1.00  0.00    -0.272 OA
HETATM   14  N   UNL     1      19.135  47.580  50.300  1.00  0.00    -0.311 N 
HETATM   15  H   UNL     1      18.945  46.993  51.104  1.00  0.00     0.170 HD
ENDROOT
BRANCH   8  16
HETATM   16  C   UNL     1      22.419  48.673  48.414  1.00  0.00    -0.039 A 
HETATM   17  C   UNL     1      23.473  49.541  48.062  1.00  0.00     0.021 A 
HETATM   18  C   UNL     1      24.792  49.316  48.489  1.00  0.00    -0.025 A 
HETATM   19  C   UNL     1      25.075  48.195  49.297  1.00  0.00    -0.026 A 
HETATM   20  C   UNL     1      25.836  50.179  48.117  1.00  0.00     0.012 A 
HETATM   21  C   UNL     1      24.030  47.332  49.657  1.00  0.00     0.013 A 
HETATM   22  C   UNL     1      26.398  47.966  49.711  1.00  0.00     0.012 A 
HETATM   23  C   UNL     1      22.723  47.563  49.219  1.00  0.00     0.009 A 
HETATM   24  C   UNL     1      27.425  48.831  49.331  1.00  0.00     0.001 A 
HETATM   25  C   UNL     1      27.145  49.937  48.535  1.00  0.00     0.001 A 
ENDBRANCH   8  16
TORSDOF 1
ENDMDL
MODEL 2
REMARK VINA RESULT:      -8.6      2.815      6.025
REMARK  1 active torsions:
REMARK  status: ('A' for Active; 'I' for Inactive)
REMARK    1  A    between atoms: C_8  and  C_9 
ROOT
HETATM    1  C   UNL     1      24.195  50.119  48.071  1.00  0.00     0.073 C 
HETATM    2  C   UNL     1      23.952  48.833  48.776  1.00  0.00     0.062 C 
HETATM    3  N   UNL     1      24.665  48.539  49.868  1.00  0.00    -0.178 NA
HETATM    4  N   UNL     1      24.156  47.374  50.279  1.00  0.00    -0.262 N 
HETATM    5  H   UNL     1      24.537  46.960  51.122  1.00  0.00     0.191 HD
HETATM    6  C   UNL     1      23.242  46.840  49.415  1.00  0.00     0.134 C 
HETATM    7  C   UNL     1      22.994  47.812  48.462  1.00  0.00     0.032 C 
HETATM    8  C   UNL     1      21.941  47.898  47.399  1.00  0.00     0.119 C 
HETATM    9  S   UNL     1      21.371  46.390  46.562  1.00  0.00    -0.141 SA
HETATM   10  C   UNL     1      22.532  45.136  47.170  1.00  0.00     0.136 C 
HETATM   11  C   UNL     1      22.370  43.901  46.279  1.00  0.00     0.031 C 
HETATM   12  C   UNL     1      22.245  44.770  48.628  1.00  0.00     0.236 C 
HETATM   13  O   UNL     1      21.693  43.719  48.962  1.00  0.00    -0.272 OA
HETATM   14  N   UNL     1      22.723  45.588  49.618  1.00  0.00    -0.311 N 
HETATM   15  H   UNL     1      22.742  45.159  50.537  1.00  0.00     0.170 HD
ENDROOT
BRANCH   8  16
HETATM   16  C   UNL     1      20.763  48.624  48.046  1.00  0.00    -0.039 A 
HETATM   17  C   UNL     1      20.556  50.008  47.873  1.00  0.00     0.021 A 
HETATM   18  C   UNL     1      19.499  50.683  48.506  1.00  0.00    -0.025 A 
HETATM   19  C   UNL     1      18.615  49.960  49.334  1.00  0.00    -0.026 A 
HETATM   20  C   UNL     1      19.313  52.065  48.341  1.00  0.00     0.012 A 
HETATM   21  C   UNL     1      18.812  48.582  49.504  1.00  0.00     0.013 A 
HETATM   22  C   UNL     1      17.567  50.640  49.976  1.00  0.00     0.012 A 
HETATM   23  C   UNL     1      19.872  47.924  48.873  1.00  0.00     0.009 A 
HETATM   24  C   UNL     1      17.396  52.015  49.803  1.00  0.00     0.001 A 
HETATM   25  C   UNL     1      18.269  52.727  48.986  1.00  0.00     0.001 A 
ENDBRANCH   8  16
TORSDOF 1
ENDMDL
MODEL 3
REMARK VINA RESULT:      -8.2      2.648      3.995
REMARK  1 active torsions:
REMARK  status: ('A' for Active; 'I' for Inactive)
REMARK    1  A    between atoms: C_8  and  C_9 
ROOT
HETATM    1  C   UNL     1      19.390  51.638  49.931  1.00  0.00     0.073 C 
HETATM    2  C   UNL     1      19.168  51.039  48.588  1.00  0.00     0.062 C 
HETATM    3  N   UNL     1      18.598  51.774  47.628  1.00  0.00    -0.178 NA
HETATM    4  N   UNL     1      18.613  50.974  46.559  1.00  0.00    -0.262 N 
HETATM    5  H   UNL     1      18.241  51.336  45.688  1.00  0.00     0.191 HD
HETATM    6  C   UNL     1      19.041  49.704  46.830  1.00  0.00     0.134 C 
HETATM    7  C   UNL     1      19.518  49.725  48.129  1.00  0.00     0.032 C 
HETATM    8  C   UNL     1      20.303  48.710  48.903  1.00  0.00     0.119 C 
HETATM    9  S   UNL     1      20.009  46.938  48.633  1.00  0.00    -0.141 SA
HETATM   10  C   UNL     1      18.542  46.937  47.566  1.00  0.00     0.136 C 
HETATM   11  C   UNL     1      17.997  45.507  47.549  1.00  0.00     0.031 C 
HETATM   12  C   UNL     1      18.889  47.381  46.142  1.00  0.00     0.236 C 
HETATM   13  O   UNL     1      18.978  46.596  45.195  1.00  0.00    -0.272 OA
HETATM   14  N   UNL     1      18.992  48.721  45.877  1.00  0.00    -0.311 N 
HETATM   15  H   UNL     1      18.946  48.954  44.891  1.00  0.00     0.170 HD
ENDROOT
BRANCH   8  16
HETATM   16  C   UNL     1      21.771  49.048  48.651  1.00  0.00    -0.039 A 
HETATM   17  C   UNL     1      22.817  48.320  49.254  1.00  0.00     0.021 A 
HETATM   18  C   UNL     1      24.166  48.661  49.059  1.00  0.00    -0.025 A 
HETATM   19  C   UNL     1      24.488  49.758  48.235  1.00  0.00    -0.026 A 
HETATM   20  C   UNL     1      25.198  47.938  49.680  1.00  0.00     0.012 A 
HETATM   21  C   UNL     1      23.453  50.482  47.625  1.00  0.00     0.013 A 
HETATM   22  C   UNL     1      25.838  50.105  48.052  1.00  0.00     0.012 A 
HETATM   23  C   UNL     1      22.114  50.136  47.834  1.00  0.00     0.009 A 
HETATM   24  C   UNL     1      26.852  49.378  48.677  1.00  0.00     0.001 A 
HETATM   25  C   UNL     1      26.533  48.295  49.491  1.00  0.00     0.001 A 
ENDBRANCH   8  16
TORSDOF 1
ENDMDL
MODEL 4
REMARK VINA RESULT:      -8.1      2.886      4.235
REMARK  1 active torsions:
REMARK  status: ('A' for Active; 'I' for Inactive)
REMARK    1  A    between atoms: C_8  and  C_9 
ROOT
HETATM    1  C   UNL     1      18.740  48.989  51.078  1.00  0.00     0.073 C 
HETATM    2  C   UNL     1      18.526  49.975  49.987  1.00  0.00     0.062 C 
HETATM    3  N   UNL     1      18.054  51.190  50.285  1.00  0.00    -0.178 NA
HETATM    4  N   UNL     1      18.050  51.829  49.111  1.00  0.00    -0.262 N 
HETATM    5  H   UNL     1      17.742  52.795  49.096  1.00  0.00     0.191 HD
HETATM    6  C   UNL     1      18.366  51.028  48.050  1.00  0.00     0.134 C 
HETATM    7  C   UNL     1      18.790  49.824  48.584  1.00  0.00     0.032 C 
HETATM    8  C   UNL     1      19.463  48.648  47.944  1.00  0.00     0.119 C 
HETATM    9  S   UNL     1      19.042  48.181  46.240  1.00  0.00    -0.141 SA
HETATM   10  C   UNL     1      17.624  49.250  45.873  1.00  0.00     0.136 C 
HETATM   11  C   UNL     1      16.969  48.712  44.598  1.00  0.00     0.031 C 
HETATM   12  C   UNL     1      18.060  50.703  45.663  1.00  0.00     0.236 C 
HETATM   13  O   UNL     1      18.126  51.231  44.551  1.00  0.00    -0.272 OA
HETATM   14  N   UNL     1      18.278  51.490  46.762  1.00  0.00    -0.311 N 
HETATM   15  H   UNL     1      18.290  52.485  46.565  1.00  0.00     0.170 HD
ENDROOT
BRANCH   8  16
HETATM   16  C   UNL     1      20.961  48.915  48.066  1.00  0.00    -0.039 A 
HETATM   17  C   UNL     1      21.821  48.034  48.753  1.00  0.00     0.021 A 
HETATM   18  C   UNL     1      23.191  48.304  48.905  1.00  0.00    -0.025 A 
HETATM   19  C   UNL     1      23.728  49.485  48.352  1.00  0.00    -0.026 A 
HETATM   20  C   UNL     1      24.034  47.427  49.607  1.00  0.00     0.012 A 
HETATM   21  C   UNL     1      22.879  50.362  47.660  1.00  0.00     0.013 A 
HETATM   22  C   UNL     1      25.096  49.759  48.517  1.00  0.00     0.012 A 
HETATM   23  C   UNL     1      21.516  50.085  47.523  1.00  0.00     0.009 A 
HETATM   24  C   UNL     1      25.921  48.878  49.219  1.00  0.00     0.001 A 
HETATM   25  C   UNL     1      25.390  47.713  49.764  1.00  0.00     0.001 A 
ENDBRANCH   8  16
TORSDOF 1
ENDMDL
MODEL 5
REMARK VINA RESULT:      -8.1     11.095     13.077
REMARK  1 active torsions:
REMARK  status: ('A' for Active; 'I' for Inactive)
REMARK    1  A    between atoms: C_8  and  C_9 
ROOT
HETATM    1  C   UNL     1      30.183  51.640  37.803  1.00  0.00     0.073 C 
HETATM    2  C   UNL     1      30.165  52.018  39.241  1.00  0.00     0.062 C 
HETATM    3  N   UNL     1      29.443  53.073  39.632  1.00  0.00    -0.178 NA
HETATM    4  N   UNL     1      29.590  53.088  40.960  1.00  0.00    -0.262 N 
HETATM    5  H   UNL     1      29.104  53.807  41.484  1.00  0.00     0.191 HD
HETATM    6  C   UNL     1      30.491  52.171  41.422  1.00  0.00     0.134 C 
HETATM    7  C   UNL     1      30.819  51.371  40.341  1.00  0.00     0.032 C 
HETATM    8  C   UNL     1      31.577  50.080  40.270  1.00  0.00     0.119 C 
HETATM    9  S   UNL     1      32.966  49.780  41.402  1.00  0.00    -0.141 SA
HETATM   10  C   UNL     1      33.181  51.393  42.203  1.00  0.00     0.136 C 
HETATM   11  C   UNL     1      34.531  51.363  42.924  1.00  0.00     0.031 C 
HETATM   12  C   UNL     1      32.059  51.670  43.207  1.00  0.00     0.236 C 
HETATM   13  O   UNL     1      32.213  51.589  44.428  1.00  0.00    -0.272 OA
HETATM   14  N   UNL     1      30.860  52.143  42.741  1.00  0.00    -0.311 N 
HETATM   15  H   UNL     1      30.273  52.560  43.455  1.00  0.00     0.170 HD
ENDROOT
BRANCH   8  16
HETATM   16  C   UNL     1      30.528  48.979  40.414  1.00  0.00    -0.039 A 
HETATM   17  C   UNL     1      30.595  47.784  39.669  1.00  0.00     0.021 A 
HETATM   18  C   UNL     1      29.605  46.793  39.768  1.00  0.00    -0.025 A 
HETATM   19  C   UNL     1      28.513  46.992  40.639  1.00  0.00    -0.026 A 
HETATM   20  C   UNL     1      29.674  45.615  39.007  1.00  0.00     0.012 A 
HETATM   21  C   UNL     1      28.445  48.175  41.389  1.00  0.00     0.013 A 
HETATM   22  C   UNL     1      27.518  46.004  40.726  1.00  0.00     0.012 A 
HETATM   23  C   UNL     1      29.434  49.157  41.275  1.00  0.00     0.009 A 
HETATM   24  C   UNL     1      27.599  44.839  39.962  1.00  0.00     0.001 A 
HETATM   25  C   UNL     1      28.677  44.644  39.103  1.00  0.00     0.001 A 
ENDBRANCH   8  16
TORSDOF 1
ENDMDL
MODEL 6
REMARK VINA RESULT:      -8.0      2.617      6.386
REMARK  1 active torsions:
REMARK  status: ('A' for Active; 'I' for Inactive)
REMARK    1  A    between atoms: C_8  and  C_9 
ROOT
HETATM    1  C   UNL     1      23.285  50.249  47.477  1.00  0.00     0.073 C 
HETATM    2  C   UNL     1      22.697  49.065  48.158  1.00  0.00     0.062 C 
HETATM    3  N   UNL     1      23.368  48.483  49.156  1.00  0.00    -0.178 NA
HETATM    4  N   UNL     1      22.544  47.519  49.578  1.00  0.00    -0.262 N 
HETATM    5  H   UNL     1      22.841  46.947  50.359  1.00  0.00     0.191 HD
HETATM    6  C   UNL     1      21.431  47.370  48.797  1.00  0.00     0.134 C 
HETATM    7  C   UNL     1      21.433  48.433  47.911  1.00  0.00     0.032 C 
HETATM    8  C   UNL     1      20.377  48.928  46.971  1.00  0.00     0.119 C 
HETATM    9  S   UNL     1      19.270  47.746  46.146  1.00  0.00    -0.141 SA
HETATM   10  C   UNL     1      20.005  46.145  46.581  1.00  0.00     0.136 C 
HETATM   11  C   UNL     1      19.367  45.094  45.669  1.00  0.00     0.031 C 
HETATM   12  C   UNL     1      19.744  45.792  48.048  1.00  0.00     0.236 C 
HETATM   13  O   UNL     1      18.910  44.956  48.401  1.00  0.00    -0.272 OA
HETATM   14  N   UNL     1      20.550  46.342  49.010  1.00  0.00    -0.311 N 
HETATM   15  H   UNL     1      20.510  45.868  49.906  1.00  0.00     0.170 HD
ENDROOT
BRANCH   8  16
HETATM   16  C   UNL     1      19.565  49.949  47.765  1.00  0.00    -0.039 A 
HETATM   17  C   UNL     1      18.158  49.890  47.835  1.00  0.00     0.021 A 
HETATM   18  C   UNL     1      17.410  50.856  48.528  1.00  0.00    -0.025 A 
HETATM   19  C   UNL     1      18.079  51.914  49.177  1.00  0.00    -0.026 A 
HETATM   20  C   UNL     1      16.007  50.796  48.575  1.00  0.00     0.012 A 
HETATM   21  C   UNL     1      19.480  51.974  49.117  1.00  0.00     0.013 A 
HETATM   22  C   UNL     1      17.327  52.886  49.857  1.00  0.00     0.012 A 
HETATM   23  C   UNL     1      20.212  51.009  48.418  1.00  0.00     0.009 A 
HETATM   24  C   UNL     1      15.934  52.813  49.894  1.00  0.00     0.001 A 
HETATM   25  C   UNL     1      15.274  51.769  49.253  1.00  0.00     0.001 A 
ENDBRANCH   8  16
TORSDOF 1
ENDMDL
MODEL 7
REMARK VINA RESULT:      -7.8      6.034      7.893
REMARK  1 active torsions:
REMARK  status: ('A' for Active; 'I' for Inactive)
REMARK    1  A    between atoms: C_8  and  C_9 
ROOT
HETATM    1  C   UNL     1      26.196  41.104  49.748  1.00  0.00     0.073 C 
HETATM    2  C   UNL     1      25.431  42.190  50.416  1.00  0.00     0.062 C 
HETATM    3  N   UNL     1      24.200  41.940  50.871  1.00  0.00    -0.178 NA
HETATM    4  N   UNL     1      23.838  43.083  51.462  1.00  0.00    -0.262 N 
HETATM    5  H   UNL     1      22.927  43.121  51.906  1.00  0.00     0.191 HD
HETATM    6  C   UNL     1      24.732  44.100  51.281  1.00  0.00     0.134 C 
HETATM    7  C   UNL     1      25.848  43.536  50.689  1.00  0.00     0.032 C 
HETATM    8  C   UNL     1      27.219  44.092  50.450  1.00  0.00     0.119 C 
HETATM    9  S   UNL     1      27.428  45.852  50.056  1.00  0.00    -0.141 SA
HETATM   10  C   UNL     1      25.718  46.412  49.822  1.00  0.00     0.136 C 
HETATM   11  C   UNL     1      25.781  47.789  49.154  1.00  0.00     0.031 C 
HETATM   12  C   UNL     1      24.977  46.513  51.158  1.00  0.00     0.236 C 
HETATM   13  O   UNL     1      24.738  47.587  51.715  1.00  0.00    -0.272 OA
HETATM   14  N   UNL     1      24.452  45.373  51.707  1.00  0.00    -0.311 N 
HETATM   15  H   UNL     1      23.755  45.540  52.424  1.00  0.00     0.170 HD
ENDROOT
BRANCH   8  16
HETATM   16  C   UNL     1      28.032  43.726  51.690  1.00  0.00    -0.039 A 
HETATM   17  C   UNL     1      28.147  44.600  52.790  1.00  0.00     0.021 A 
HETATM   18  C   UNL     1      28.933  44.282  53.910  1.00  0.00    -0.025 A 
HETATM   19  C   UNL     1      29.625  43.054  53.942  1.00  0.00    -0.026 A 
HETATM   20  C   UNL     1      29.052  45.169  54.992  1.00  0.00     0.012 A 
HETATM   21  C   UNL     1      29.509  42.176  52.854  1.00  0.00     0.013 A 
HETATM   22  C   UNL     1      30.421  42.744  55.058  1.00  0.00     0.012 A 
HETATM   23  C   UNL     1      28.729  42.508  51.742  1.00  0.00     0.009 A 
HETATM   24  C   UNL     1      30.531  43.637  56.125  1.00  0.00     0.001 A 
HETATM   25  C   UNL     1      29.847  44.849  56.093  1.00  0.00     0.001 A 
ENDBRANCH   8  16
TORSDOF 1
ENDMDL
MODEL 8
REMARK VINA RESULT:      -7.8     22.598     24.403
REMARK  1 active torsions:
REMARK  status: ('A' for Active; 'I' for Inactive)
REMARK    1  A    between atoms: C_8  and  C_9 
ROOT
HETATM    1  C   UNL     1      41.404  44.501  67.573  1.00  0.00     0.073 C 
HETATM    2  C   UNL     1      40.917  45.499  66.585  1.00  0.00     0.062 C 
HETATM    3  N   UNL     1      41.773  46.395  66.083  1.00  0.00    -0.178 NA
HETATM    4  N   UNL     1      41.042  47.076  65.196  1.00  0.00    -0.262 N 
HETATM    5  H   UNL     1      41.498  47.811  64.667  1.00  0.00     0.191 HD
HETATM    6  C   UNL     1      39.715  46.746  65.211  1.00  0.00     0.134 C 
HETATM    7  C   UNL     1      39.600  45.639  66.034  1.00  0.00     0.032 C 
HETATM    8  C   UNL     1      38.452  44.705  66.266  1.00  0.00     0.119 C 
HETATM    9  S   UNL     1      36.749  45.336  66.235  1.00  0.00    -0.141 SA
HETATM   10  C   UNL     1      36.992  47.132  66.151  1.00  0.00     0.136 C 
HETATM   11  C   UNL     1      35.643  47.785  66.463  1.00  0.00     0.031 C 
HETATM   12  C   UNL     1      37.473  47.564  64.763  1.00  0.00     0.236 C 
HETATM   13  O   UNL     1      36.741  48.114  63.938  1.00  0.00    -0.272 OA
HETATM   14  N   UNL     1      38.804  47.442  64.461  1.00  0.00    -0.311 N 
HETATM   15  H   UNL     1      39.099  47.987  63.658  1.00  0.00     0.170 HD
ENDROOT
BRANCH   8  16
HETATM   16  C   UNL     1      38.621  43.584  65.243  1.00  0.00    -0.039 A 
HETATM   17  C   UNL     1      39.056  42.296  65.615  1.00  0.00     0.021 A 
HETATM   18  C   UNL     1      39.256  41.279  64.666  1.00  0.00    -0.025 A 
HETATM   19  C   UNL     1      39.011  41.547  63.304  1.00  0.00    -0.026 A 
HETATM   20  C   UNL     1      39.707  40.005  65.048  1.00  0.00     0.012 A 
HETATM   21  C   UNL     1      38.569  42.825  62.928  1.00  0.00     0.013 A 
HETATM   22  C   UNL     1      39.224  40.532  62.356  1.00  0.00     0.012 A 
HETATM   23  C   UNL     1      38.382  43.830  63.882  1.00  0.00     0.009 A 
HETATM   24  C   UNL     1      39.674  39.271  62.751  1.00  0.00     0.001 A 
HETATM   25  C   UNL     1      39.916  39.007  64.096  1.00  0.00     0.001 A 
ENDBRANCH   8  16
TORSDOF 1
ENDMDL
MODEL 9
REMARK VINA RESULT:      -7.7      4.178      7.313
REMARK  1 active torsions:
REMARK  status: ('A' for Active; 'I' for Inactive)
REMARK    1  A    between atoms: C_8  and  C_9 
ROOT
HETATM    1  C   UNL     1      20.216  51.061  50.077  1.00  0.00     0.073 C 
HETATM    2  C   UNL     1      19.405  49.816  50.118  1.00  0.00     0.062 C 
HETATM    3  N   UNL     1      18.966  49.358  51.295  1.00  0.00    -0.178 NA
HETATM    4  N   UNL     1      18.231  48.290  50.970  1.00  0.00    -0.262 N 
HETATM    5  H   UNL     1      17.772  47.783  51.718  1.00  0.00     0.191 HD
HETATM    6  C   UNL     1      18.296  47.963  49.644  1.00  0.00     0.134 C 
HETATM    7  C   UNL     1      18.971  48.998  49.021  1.00  0.00     0.032 C 
HETATM    8  C   UNL     1      19.159  49.314  47.569  1.00  0.00     0.119 C 
HETATM    9  S   UNL     1      19.331  47.966  46.363  1.00  0.00    -0.141 SA
HETATM   10  C   UNL     1      19.467  46.500  47.423  1.00  0.00     0.136 C 
HETATM   11  C   UNL     1      19.957  45.349  46.540  1.00  0.00     0.031 C 
HETATM   12  C   UNL     1      18.118  46.140  48.051  1.00  0.00     0.236 C 
HETATM   13  O   UNL     1      17.426  45.195  47.663  1.00  0.00    -0.272 OA
HETATM   14  N   UNL     1      17.709  46.820  49.167  1.00  0.00    -0.311 N 
HETATM   15  H   UNL     1      16.966  46.362  49.684  1.00  0.00     0.170 HD
ENDROOT
BRANCH   8  16
HETATM   16  C   UNL     1      17.987  50.217  47.190  1.00  0.00    -0.039 A 
HETATM   17  C   UNL     1      18.061  51.117  46.106  1.00  0.00     0.021 A 
HETATM   18  C   UNL     1      17.000  51.981  45.788  1.00  0.00    -0.025 A 
HETATM   19  C   UNL     1      15.825  51.948  46.567  1.00  0.00    -0.026 A 
HETATM   20  C   UNL     1      17.092  52.885  44.717  1.00  0.00     0.012 A 
HETATM   21  C   UNL     1      15.742  51.050  47.641  1.00  0.00     0.013 A 
HETATM   22  C   UNL     1      14.770  52.822  46.253  1.00  0.00     0.012 A 
HETATM   23  C   UNL     1      16.809  50.201  47.952  1.00  0.00     0.009 A 
HETATM   24  C   UNL     1      14.878  53.717  45.187  1.00  0.00     0.001 A 
HETATM   25  C   UNL     1      16.038  53.748  44.419  1.00  0.00     0.001 A 
ENDBRANCH   8  16
TORSDOF 1
ENDMDL
MODEL 10
REMARK VINA RESULT:      -7.6      1.709      2.133
REMARK  1 active torsions:
REMARK  status: ('A' for Active; 'I' for Inactive)
REMARK    1  A    between atoms: C_8  and  C_9 
ROOT
HETATM    1  C   UNL     1      20.025  46.385  45.530  1.00  0.00     0.073 C 
HETATM    2  C   UNL     1      19.402  46.520  46.873  1.00  0.00     0.062 C 
HETATM    3  N   UNL     1      18.343  45.765  47.183  1.00  0.00    -0.178 NA
HETATM    4  N   UNL     1      18.085  46.081  48.456  1.00  0.00    -0.262 N 
HETATM    5  H   UNL     1      17.318  45.606  48.918  1.00  0.00     0.191 HD
HETATM    6  C   UNL     1      18.848  47.111  48.930  1.00  0.00     0.134 C 
HETATM    7  C   UNL     1      19.803  47.365  47.961  1.00  0.00     0.032 C 
HETATM    8  C   UNL     1      21.036  48.216  47.998  1.00  0.00     0.119 C 
HETATM    9  S   UNL     1      21.044  49.760  48.955  1.00  0.00    -0.141 SA
HETATM   10  C   UNL     1      19.305  49.936  49.440  1.00  0.00     0.136 C 
HETATM   11  C   UNL     1      19.122  51.365  49.956  1.00  0.00     0.031 C 
HETATM   12  C   UNL     1      18.927  48.933  50.533  1.00  0.00     0.236 C 
HETATM   13  O   UNL     1      18.783  49.249  51.716  1.00  0.00    -0.272 OA
HETATM   14  N   UNL     1      18.621  47.648  50.170  1.00  0.00    -0.311 N 
HETATM   15  H   UNL     1      18.123  47.123  50.881  1.00  0.00     0.170 HD
ENDROOT
BRANCH   8  16
HETATM   16  C   UNL     1      22.158  47.294  48.469  1.00  0.00    -0.039 A 
HETATM   17  C   UNL     1      23.169  47.739  49.345  1.00  0.00     0.021 A 
HETATM   18  C   UNL     1      24.226  46.903  49.742  1.00  0.00    -0.025 A 
HETATM   19  C   UNL     1      24.280  45.580  49.256  1.00  0.00    -0.026 A 
HETATM   20  C   UNL     1      25.237  47.364  50.601  1.00  0.00     0.012 A 
HETATM   21  C   UNL     1      23.273  45.129  48.391  1.00  0.00     0.013 A 
HETATM   22  C   UNL     1      25.346  44.751  49.644  1.00  0.00     0.012 A 
HETATM   23  C   UNL     1      22.230  45.974  47.998  1.00  0.00     0.009 A 
HETATM   24  C   UNL     1      26.345  45.224  50.498  1.00  0.00     0.001 A 
HETATM   25  C   UNL     1      26.290  46.530  50.976  1.00  0.00     0.001 A 
ENDBRANCH   8  16
TORSDOF 1
ENDMDL
