MODEL 1
REMARK VINA RESULT:      -9.2      0.000      0.000
REMARK  9 active torsions:
REMARK  status: ('A' for Active; 'I' for Inactive)
REMARK    1  A    between atoms: C_3  and  N_4 
REMARK       I    between atoms: N_4  and  C_5 
REMARK    2  A    between atoms: C_5  and  C_6 
REMARK    3  A    between atoms: C_13  and  C_14 
REMARK    4  A    between atoms: C_14  and  O_15 
REMARK    5  A    between atoms: O_15  and  C_16 
REMARK    6  A    between atoms: C_16  and  C_17 
REMARK       I    between atoms: C_17  and  N_18 
REMARK    7  A    between atoms: N_18  and  C_19 
REMARK    8  A    between atoms: C_19  and  C_20 
REMARK    9  A    between atoms: C_22  and  O_23 
ROOT
HETATM    1  C   UNL     1      25.376  45.790  51.353  1.00  0.00     0.293 C 
HETATM    2  O   UNL     1      25.425  45.864  52.572  1.00  0.00    -0.259 OA
ENDROOT
BRANCH   1   3
HETATM    3  C   UNL     1      25.426  46.975  50.461  1.00  0.00     0.041 A 
HETATM    4  C   UNL     1      24.207  47.535  50.053  1.00  0.00     0.047 A 
HETATM    5  C   UNL     1      24.164  48.657  49.217  1.00  0.00     0.042 A 
HETATM    6  C   UNL     1      25.378  49.215  48.764  1.00  0.00    -0.035 A 
HETATM    7  C   UNL     1      25.431  50.408  47.844  1.00  0.00     0.050 C 
HETATM    8  C   UNL     1      26.598  48.637  49.165  1.00  0.00     0.010 A 
HETATM    9  C   UNL     1      26.624  47.530  50.015  1.00  0.00     0.018 A 
BRANCH   5  10
HETATM   10  N   UNL     1      22.942  49.232  48.804  1.00  0.00    -0.321 N 
HETATM   11  C   UNL     1      22.216  50.235  49.427  1.00  0.00     0.279 C 
HETATM   12  O   UNL     1      22.569  50.845  50.431  1.00  0.00    -0.265 OA
HETATM   13  H   UNL     1      22.552  48.929  47.918  1.00  0.00     0.169 HD
BRANCH  11  14
HETATM   14  C   UNL     1      20.978  50.548  48.738  1.00  0.00     0.142 A 
HETATM   15  O   UNL     1      20.275  49.547  48.116  1.00  0.00    -0.317 OA
HETATM   16  C   UNL     1      19.172  50.118  47.565  1.00  0.00     0.143 A 
HETATM   17  C   UNL     1      19.153  51.470  47.811  1.00  0.00     0.027 A 
HETATM   18  C   UNL     1      20.316  51.749  48.567  1.00  0.00     0.045 A 
ENDBRANCH  11  14
ENDBRANCH   5  10
ENDBRANCH   1   3
BRANCH   1  19
HETATM   19  O   UNL     1      25.334  44.639  50.642  1.00  0.00    -0.308 OA
BRANCH  19  20
HETATM   20  C   UNL     1      25.210  43.444  51.421  1.00  0.00     0.281 C 
BRANCH  20  21
HETATM   21  C   UNL     1      26.537  42.745  51.740  1.00  0.00     0.242 C 
HETATM   22  N   UNL     1      26.946  42.865  53.048  1.00  0.00    -0.355 N 
HETATM   23  H   UNL     1      26.402  43.460  53.672  1.00  0.00     0.162 HD
HETATM   24  O   UNL     1      27.155  42.100  50.895  1.00  0.00    -0.271 OA
BRANCH  22  25
HETATM   25  C   UNL     1      28.226  42.389  53.511  1.00  0.00     0.161 C 
BRANCH  25  26
HETATM   26  C   UNL     1      28.908  43.392  54.409  1.00  0.00    -0.038 A 
HETATM   27  C   UNL     1      28.287  44.613  54.732  1.00  0.00     0.045 A 
HETATM   28  C   UNL     1      28.925  45.535  55.566  1.00  0.00     0.068 A 
HETATM   29  C   UNL     1      30.184  45.229  56.090  1.00  0.00     0.037 A 
HETATM   30  C   UNL     1      30.812  44.027  55.772  1.00  0.00     0.003 A 
HETATM   31  C   UNL     1      30.178  43.114  54.931  1.00  0.00     0.009 A 
BRANCH  28  32
HETATM   32  O   UNL     1      28.430  46.752  55.951  1.00  0.00    -0.356 OA
HETATM   33  C   UNL     1      27.455  47.340  55.100  1.00  0.00     0.210 C 
ENDBRANCH  28  32
ENDBRANCH  25  26
ENDBRANCH  22  25
ENDBRANCH  20  21
ENDBRANCH  19  20
ENDBRANCH   1  19
TORSDOF 9
ENDMDL
MODEL 2
REMARK VINA RESULT:      -9.0      1.536      1.682
REMARK  9 active torsions:
REMARK  status: ('A' for Active; 'I' for Inactive)
REMARK    1  A    between atoms: C_3  and  N_4 
REMARK       I    between atoms: N_4  and  C_5 
REMARK    2  A    between atoms: C_5  and  C_6 
REMARK    3  A    between atoms: C_13  and  C_14 
REMARK    4  A    between atoms: C_14  and  O_15 
REMARK    5  A    between atoms: O_15  and  C_16 
REMARK    6  A    between atoms: C_16  and  C_17 
REMARK       I    between atoms: C_17  and  N_18 
REMARK    7  A    between atoms: N_18  and  C_19 
REMARK    8  A    between atoms: C_19  and  C_20 
REMARK    9  A    between atoms: C_22  and  O_23 
ROOT
HETATM    1  C   UNL     1      26.381  46.216  50.955  1.00  0.00     0.293 C 
HETATM    2  O   UNL     1      26.386  46.160  52.176  1.00  0.00    -0.259 OA
ENDROOT
BRANCH   1   3
HETATM    3  C   UNL     1      25.763  47.330  50.192  1.00  0.00     0.041 A 
HETATM    4  C   UNL     1      24.363  47.417  50.185  1.00  0.00     0.047 A 
HETATM    5  C   UNL     1      23.701  48.440  49.496  1.00  0.00     0.042 A 
HETATM    6  C   UNL     1      24.466  49.384  48.779  1.00  0.00    -0.035 A 
HETATM    7  C   UNL     1      23.840  50.505  47.989  1.00  0.00     0.050 C 
HETATM    8  C   UNL     1      25.870  49.280  48.778  1.00  0.00     0.010 A 
HETATM    9  C   UNL     1      26.517  48.266  49.486  1.00  0.00     0.018 A 
BRANCH   5  10
HETATM   10  N   UNL     1      22.292  48.539  49.485  1.00  0.00    -0.321 N 
HETATM   11  C   UNL     1      21.396  47.880  48.658  1.00  0.00     0.279 C 
HETATM   12  O   UNL     1      21.694  47.030  47.826  1.00  0.00    -0.265 OA
HETATM   13  H   UNL     1      21.853  49.116  50.194  1.00  0.00     0.169 HD
BRANCH  11  14
HETATM   14  C   UNL     1      20.017  48.260  48.903  1.00  0.00     0.142 A 
HETATM   15  O   UNL     1      19.033  47.303  48.864  1.00  0.00    -0.317 OA
HETATM   16  C   UNL     1      17.858  47.930  49.130  1.00  0.00     0.143 A 
HETATM   17  C   UNL     1      18.061  49.275  49.332  1.00  0.00     0.027 A 
HETATM   18  C   UNL     1      19.452  49.489  49.186  1.00  0.00     0.045 A 
ENDBRANCH  11  14
ENDBRANCH   5  10
ENDBRANCH   1   3
BRANCH   1  19
HETATM   19  O   UNL     1      26.979  45.325  50.130  1.00  0.00    -0.308 OA
BRANCH  19  20
HETATM   20  C   UNL     1      26.475  43.988  50.208  1.00  0.00     0.281 C 
BRANCH  20  21
HETATM   21  C   UNL     1      27.384  43.002  50.952  1.00  0.00     0.242 C 
HETATM   22  N   UNL     1      27.807  43.436  52.187  1.00  0.00    -0.355 N 
HETATM   23  H   UNL     1      27.566  44.383  52.475  1.00  0.00     0.162 HD
HETATM   24  O   UNL     1      27.670  41.900  50.488  1.00  0.00    -0.271 OA
BRANCH  22  25
HETATM   25  C   UNL     1      28.768  42.710  52.981  1.00  0.00     0.161 C 
BRANCH  25  26
HETATM   26  C   UNL     1      29.290  43.539  54.129  1.00  0.00    -0.038 A 
HETATM   27  C   UNL     1      28.607  44.691  54.558  1.00  0.00     0.045 A 
HETATM   28  C   UNL     1      29.097  45.452  55.624  1.00  0.00     0.068 A 
HETATM   29  C   UNL     1      30.270  45.051  56.269  1.00  0.00     0.037 A 
HETATM   30  C   UNL     1      30.960  43.916  55.848  1.00  0.00     0.003 A 
HETATM   31  C   UNL     1      30.475  43.166  54.779  1.00  0.00     0.009 A 
BRANCH  28  32
HETATM   32  O   UNL     1      28.529  46.588  56.132  1.00  0.00    -0.356 OA
HETATM   33  C   UNL     1      27.682  47.323  55.258  1.00  0.00     0.210 C 
ENDBRANCH  28  32
ENDBRANCH  25  26
ENDBRANCH  22  25
ENDBRANCH  20  21
ENDBRANCH  19  20
ENDBRANCH   1  19
TORSDOF 9
ENDMDL
MODEL 3
REMARK VINA RESULT:      -8.8      1.785      2.620
REMARK  9 active torsions:
REMARK  status: ('A' for Active; 'I' for Inactive)
REMARK    1  A    between atoms: C_3  and  N_4 
REMARK       I    between atoms: N_4  and  C_5 
REMARK    2  A    between atoms: C_5  and  C_6 
REMARK    3  A    between atoms: C_13  and  C_14 
REMARK    4  A    between atoms: C_14  and  O_15 
REMARK    5  A    between atoms: O_15  and  C_16 
REMARK    6  A    between atoms: C_16  and  C_17 
REMARK       I    between atoms: C_17  and  N_18 
REMARK    7  A    between atoms: N_18  and  C_19 
REMARK    8  A    between atoms: C_19  and  C_20 
REMARK    9  A    between atoms: C_22  and  O_23 
ROOT
HETATM    1  C   UNL     1      24.627  42.607  49.662  1.00  0.00     0.293 C 
HETATM    2  O   UNL     1      23.835  42.206  48.822  1.00  0.00    -0.259 OA
ENDROOT
BRANCH   1   3
HETATM    3  C   UNL     1      25.109  44.010  49.725  1.00  0.00     0.041 A 
HETATM    4  C   UNL     1      24.145  45.028  49.762  1.00  0.00     0.047 A 
HETATM    5  C   UNL     1      24.513  46.376  49.829  1.00  0.00     0.042 A 
HETATM    6  C   UNL     1      25.884  46.709  49.837  1.00  0.00    -0.035 A 
HETATM    7  C   UNL     1      26.375  48.133  49.884  1.00  0.00     0.050 C 
HETATM    8  C   UNL     1      26.845  45.682  49.783  1.00  0.00     0.010 A 
HETATM    9  C   UNL     1      26.463  44.340  49.737  1.00  0.00     0.018 A 
BRANCH   5  10
HETATM   10  N   UNL     1      23.551  47.410  49.871  1.00  0.00    -0.321 N 
HETATM   11  C   UNL     1      22.770  47.891  48.831  1.00  0.00     0.279 C 
HETATM   12  O   UNL     1      22.745  47.434  47.693  1.00  0.00    -0.265 OA
HETATM   13  H   UNL     1      23.349  47.832  50.769  1.00  0.00     0.169 HD
BRANCH  11  14
HETATM   14  C   UNL     1      21.915  48.995  49.231  1.00  0.00     0.142 A 
HETATM   15  O   UNL     1      20.569  48.784  49.395  1.00  0.00    -0.317 OA
HETATM   16  C   UNL     1      20.024  49.970  49.770  1.00  0.00     0.143 A 
HETATM   17  C   UNL     1      20.990  50.946  49.844  1.00  0.00     0.027 A 
HETATM   18  C   UNL     1      22.210  50.318  49.496  1.00  0.00     0.045 A 
ENDBRANCH  11  14
ENDBRANCH   5  10
ENDBRANCH   1   3
BRANCH   1  19
HETATM   19  O   UNL     1      25.128  41.867  50.678  1.00  0.00    -0.308 OA
BRANCH  19  20
HETATM   20  C   UNL     1      25.946  40.761  50.284  1.00  0.00     0.281 C 
BRANCH  20  21
HETATM   21  C   UNL     1      27.299  40.675  51.000  1.00  0.00     0.242 C 
HETATM   22  N   UNL     1      27.271  41.055  52.322  1.00  0.00    -0.355 N 
HETATM   23  H   UNL     1      26.402  41.434  52.697  1.00  0.00     0.162 HD
HETATM   24  O   UNL     1      28.311  40.261  50.437  1.00  0.00    -0.271 OA
BRANCH  22  25
HETATM   25  C   UNL     1      28.462  41.166  53.127  1.00  0.00     0.161 C 
BRANCH  25  26
HETATM   26  C   UNL     1      28.612  42.545  53.721  1.00  0.00    -0.038 A 
HETATM   27  C   UNL     1      27.716  43.578  53.390  1.00  0.00     0.045 A 
HETATM   28  C   UNL     1      27.861  44.851  53.947  1.00  0.00     0.068 A 
HETATM   29  C   UNL     1      28.901  45.089  54.849  1.00  0.00     0.037 A 
HETATM   30  C   UNL     1      29.800  44.077  55.180  1.00  0.00     0.003 A 
HETATM   31  C   UNL     1      29.659  42.812  54.614  1.00  0.00     0.009 A 
BRANCH  28  32
HETATM   32  O   UNL     1      27.061  45.934  53.704  1.00  0.00    -0.356 OA
HETATM   33  C   UNL     1      27.012  46.930  54.717  1.00  0.00     0.210 C 
ENDBRANCH  28  32
ENDBRANCH  25  26
ENDBRANCH  22  25
ENDBRANCH  20  21
ENDBRANCH  19  20
ENDBRANCH   1  19
TORSDOF 9
ENDMDL
MODEL 4
REMARK VINA RESULT:      -8.8      2.085      3.127
REMARK  9 active torsions:
REMARK  status: ('A' for Active; 'I' for Inactive)
REMARK    1  A    between atoms: C_3  and  N_4 
REMARK       I    between atoms: N_4  and  C_5 
REMARK    2  A    between atoms: C_5  and  C_6 
REMARK    3  A    between atoms: C_13  and  C_14 
REMARK    4  A    between atoms: C_14  and  O_15 
REMARK    5  A    between atoms: O_15  and  C_16 
REMARK    6  A    between atoms: C_16  and  C_17 
REMARK       I    between atoms: C_17  and  N_18 
REMARK    7  A    between atoms: N_18  and  C_19 
REMARK    8  A    between atoms: C_19  and  C_20 
REMARK    9  A    between atoms: C_22  and  O_23 
ROOT
HETATM    1  C   UNL     1      26.427  46.341  50.202  1.00  0.00     0.293 C 
HETATM    2  O   UNL     1      27.243  45.711  49.545  1.00  0.00    -0.259 OA
ENDROOT
BRANCH   1   3
HETATM    3  C   UNL     1      25.674  47.505  49.669  1.00  0.00     0.041 A 
HETATM    4  C   UNL     1      24.273  47.450  49.714  1.00  0.00     0.047 A 
HETATM    5  C   UNL     1      23.488  48.506  49.238  1.00  0.00     0.042 A 
HETATM    6  C   UNL     1      24.128  49.635  48.685  1.00  0.00    -0.035 A 
HETATM    7  C   UNL     1      23.365  50.810  48.127  1.00  0.00     0.050 C 
HETATM    8  C   UNL     1      25.534  49.676  48.629  1.00  0.00     0.010 A 
HETATM    9  C   UNL     1      26.304  48.623  49.125  1.00  0.00     0.018 A 
BRANCH   5  10
HETATM   10  N   UNL     1      22.077  48.463  49.283  1.00  0.00    -0.321 N 
HETATM   11  C   UNL     1      21.212  47.876  48.372  1.00  0.00     0.279 C 
HETATM   12  O   UNL     1      21.553  47.222  47.392  1.00  0.00    -0.265 OA
HETATM   13  H   UNL     1      21.617  48.857  50.095  1.00  0.00     0.169 HD
BRANCH  11  14
HETATM   14  C   UNL     1      19.815  48.064  48.718  1.00  0.00     0.142 A 
HETATM   15  O   UNL     1      18.944  47.007  48.624  1.00  0.00    -0.317 OA
HETATM   16  C   UNL     1      17.723  47.462  49.007  1.00  0.00     0.143 A 
HETATM   17  C   UNL     1      17.785  48.795  49.338  1.00  0.00     0.027 A 
HETATM   18  C   UNL     1      19.133  49.184  49.152  1.00  0.00     0.045 A 
ENDBRANCH  11  14
ENDBRANCH   5  10
ENDBRANCH   1   3
BRANCH   1  19
HETATM   19  O   UNL     1      26.046  46.045  51.466  1.00  0.00    -0.308 OA
BRANCH  19  20
HETATM   20  C   UNL     1      26.146  47.123  52.402  1.00  0.00     0.281 C 
BRANCH  20  21
HETATM   21  C   UNL     1      26.403  46.694  53.852  1.00  0.00     0.242 C 
HETATM   22  N   UNL     1      27.637  47.053  54.343  1.00  0.00    -0.355 N 
HETATM   23  H   UNL     1      28.302  47.489  53.706  1.00  0.00     0.162 HD
HETATM   24  O   UNL     1      25.552  46.111  54.521  1.00  0.00    -0.271 OA
BRANCH  22  25
HETATM   25  C   UNL     1      28.113  46.629  55.636  1.00  0.00     0.161 C 
BRANCH  25  26
HETATM   26  C   UNL     1      29.011  45.419  55.535  1.00  0.00    -0.038 A 
HETATM   27  C   UNL     1      28.656  44.320  54.731  1.00  0.00     0.045 A 
HETATM   28  C   UNL     1      29.495  43.206  54.642  1.00  0.00     0.068 A 
HETATM   29  C   UNL     1      30.698  43.195  55.352  1.00  0.00     0.037 A 
HETATM   30  C   UNL     1      31.057  44.274  56.158  1.00  0.00     0.003 A 
HETATM   31  C   UNL     1      30.214  45.379  56.253  1.00  0.00     0.009 A 
BRANCH  28  32
HETATM   32  O   UNL     1      29.263  42.080  53.900  1.00  0.00    -0.356 OA
HETATM   33  C   UNL     1      28.027  42.021  53.201  1.00  0.00     0.210 C 
ENDBRANCH  28  32
ENDBRANCH  25  26
ENDBRANCH  22  25
ENDBRANCH  20  21
ENDBRANCH  19  20
ENDBRANCH   1  19
TORSDOF 9
ENDMDL
MODEL 5
REMARK VINA RESULT:      -8.6      1.945     10.129
REMARK  9 active torsions:
REMARK  status: ('A' for Active; 'I' for Inactive)
REMARK    1  A    between atoms: C_3  and  N_4 
REMARK       I    between atoms: N_4  and  C_5 
REMARK    2  A    between atoms: C_5  and  C_6 
REMARK    3  A    between atoms: C_13  and  C_14 
REMARK    4  A    between atoms: C_14  and  O_15 
REMARK    5  A    between atoms: O_15  and  C_16 
REMARK    6  A    between atoms: C_16  and  C_17 
REMARK       I    between atoms: C_17  and  N_18 
REMARK    7  A    between atoms: N_18  and  C_19 
REMARK    8  A    between atoms: C_19  and  C_20 
REMARK    9  A    between atoms: C_22  and  O_23 
ROOT
HETATM    1  C   UNL     1      25.880  46.079  49.603  1.00  0.00     0.293 C 
HETATM    2  O   UNL     1      24.683  46.288  49.475  1.00  0.00    -0.259 OA
ENDROOT
BRANCH   1   3
HETATM    3  C   UNL     1      26.435  44.799  50.112  1.00  0.00     0.041 A 
HETATM    4  C   UNL     1      27.267  44.852  51.240  1.00  0.00     0.047 A 
HETATM    5  C   UNL     1      27.827  43.692  51.786  1.00  0.00     0.042 A 
HETATM    6  C   UNL     1      27.559  42.451  51.171  1.00  0.00    -0.035 A 
HETATM    7  C   UNL     1      28.136  41.153  51.674  1.00  0.00     0.050 C 
HETATM    8  C   UNL     1      26.737  42.408  50.029  1.00  0.00     0.010 A 
HETATM    9  C   UNL     1      26.170  43.572  49.507  1.00  0.00     0.018 A 
BRANCH   5  10
HETATM   10  N   UNL     1      28.663  43.734  52.924  1.00  0.00    -0.321 N 
HETATM   11  C   UNL     1      28.394  44.302  54.160  1.00  0.00     0.279 C 
HETATM   12  O   UNL     1      27.329  44.814  54.488  1.00  0.00    -0.265 OA
HETATM   13  H   UNL     1      29.552  43.250  52.876  1.00  0.00     0.169 HD
BRANCH  11  14
HETATM   14  C   UNL     1      29.507  44.193  55.086  1.00  0.00     0.142 A 
HETATM   15  O   UNL     1      29.634  45.104  56.105  1.00  0.00    -0.317 OA
HETATM   16  C   UNL     1      30.744  44.763  56.808  1.00  0.00     0.143 A 
HETATM   17  C   UNL     1      31.344  43.654  56.259  1.00  0.00     0.027 A 
HETATM   18  C   UNL     1      30.547  43.285  55.149  1.00  0.00     0.045 A 
ENDBRANCH  11  14
ENDBRANCH   5  10
ENDBRANCH   1   3
BRANCH   1  19
HETATM   19  O   UNL     1      26.865  46.938  49.251  1.00  0.00    -0.308 OA
BRANCH  19  20
HETATM   20  C   UNL     1      26.740  48.261  49.781  1.00  0.00     0.281 C 
BRANCH  20  21
HETATM   21  C   UNL     1      26.194  49.300  48.795  1.00  0.00     0.242 C 
HETATM   22  N   UNL     1      24.823  49.417  48.789  1.00  0.00    -0.355 N 
HETATM   23  H   UNL     1      24.280  48.769  49.358  1.00  0.00     0.162 HD
HETATM   24  O   UNL     1      26.934  49.993  48.100  1.00  0.00    -0.271 OA
BRANCH  22  25
HETATM   25  C   UNL     1      24.116  50.243  47.842  1.00  0.00     0.161 C 
BRANCH  25  26
HETATM   26  C   UNL     1      22.620  50.143  48.016  1.00  0.00    -0.038 A 
HETATM   27  C   UNL     1      21.858  51.264  48.394  1.00  0.00     0.045 A 
HETATM   28  C   UNL     1      20.473  51.162  48.550  1.00  0.00     0.068 A 
HETATM   29  C   UNL     1      19.846  49.936  48.317  1.00  0.00     0.037 A 
HETATM   30  C   UNL     1      20.589  48.816  47.950  1.00  0.00     0.003 A 
HETATM   31  C   UNL     1      21.971  48.918  47.805  1.00  0.00     0.009 A 
BRANCH  28  32
HETATM   32  O   UNL     1      19.626  52.174  48.914  1.00  0.00    -0.356 OA
HETATM   33  C   UNL     1      18.548  51.824  49.771  1.00  0.00     0.210 C 
ENDBRANCH  28  32
ENDBRANCH  25  26
ENDBRANCH  22  25
ENDBRANCH  20  21
ENDBRANCH  19  20
ENDBRANCH   1  19
TORSDOF 9
ENDMDL
MODEL 6
REMARK VINA RESULT:      -8.5      2.414      3.939
REMARK  9 active torsions:
REMARK  status: ('A' for Active; 'I' for Inactive)
REMARK    1  A    between atoms: C_3  and  N_4 
REMARK       I    between atoms: N_4  and  C_5 
REMARK    2  A    between atoms: C_5  and  C_6 
REMARK    3  A    between atoms: C_13  and  C_14 
REMARK    4  A    between atoms: C_14  and  O_15 
REMARK    5  A    between atoms: O_15  and  C_16 
REMARK    6  A    between atoms: C_16  and  C_17 
REMARK       I    between atoms: C_17  and  N_18 
REMARK    7  A    between atoms: N_18  and  C_19 
REMARK    8  A    between atoms: C_19  and  C_20 
REMARK    9  A    between atoms: C_22  and  O_23 
ROOT
HETATM    1  C   UNL     1      23.950  47.900  49.565  1.00  0.00     0.293 C 
HETATM    2  O   UNL     1      24.596  48.937  49.575  1.00  0.00    -0.259 OA
ENDROOT
BRANCH   1   3
HETATM    3  C   UNL     1      22.643  47.759  48.874  1.00  0.00     0.041 A 
HETATM    4  C   UNL     1      21.681  48.757  49.091  1.00  0.00     0.047 A 
HETATM    5  C   UNL     1      20.426  48.703  48.473  1.00  0.00     0.042 A 
HETATM    6  C   UNL     1      20.125  47.610  47.635  1.00  0.00    -0.035 A 
HETATM    7  C   UNL     1      18.793  47.456  46.947  1.00  0.00     0.050 C 
HETATM    8  C   UNL     1      21.090  46.604  47.436  1.00  0.00     0.010 A 
HETATM    9  C   UNL     1      22.345  46.681  48.043  1.00  0.00     0.018 A 
BRANCH   5  10
HETATM   10  N   UNL     1      19.452  49.705  48.681  1.00  0.00    -0.321 N 
HETATM   11  C   UNL     1      18.642  49.890  49.791  1.00  0.00     0.279 C 
HETATM   12  O   UNL     1      18.696  49.233  50.826  1.00  0.00    -0.265 OA
HETATM   13  H   UNL     1      19.348  50.419  47.970  1.00  0.00     0.169 HD
BRANCH  11  14
HETATM   14  C   UNL     1      17.721  51.002  49.640  1.00  0.00     0.142 A 
HETATM   15  O   UNL     1      16.466  50.780  49.130  1.00  0.00    -0.317 OA
HETATM   16  C   UNL     1      15.829  51.979  49.105  1.00  0.00     0.143 A 
HETATM   17  C   UNL     1      16.649  52.974  49.581  1.00  0.00     0.027 A 
HETATM   18  C   UNL     1      17.870  52.346  49.926  1.00  0.00     0.045 A 
ENDBRANCH  11  14
ENDBRANCH   5  10
ENDBRANCH   1   3
BRANCH   1  19
HETATM   19  O   UNL     1      24.345  46.728  50.115  1.00  0.00    -0.308 OA
BRANCH  19  20
HETATM   20  C   UNL     1      25.711  46.683  50.539  1.00  0.00     0.281 C 
BRANCH  20  21
HETATM   21  C   UNL     1      25.913  46.698  52.059  1.00  0.00     0.242 C 
HETATM   22  N   UNL     1      26.690  45.670  52.542  1.00  0.00    -0.355 N 
HETATM   23  H   UNL     1      26.996  44.949  51.891  1.00  0.00     0.162 HD
HETATM   24  O   UNL     1      25.445  47.584  52.771  1.00  0.00    -0.271 OA
BRANCH  22  25
HETATM   25  C   UNL     1      26.887  45.439  53.952  1.00  0.00     0.161 C 
BRANCH  25  26
HETATM   26  C   UNL     1      28.168  44.689  54.225  1.00  0.00    -0.038 A 
HETATM   27  C   UNL     1      28.963  44.999  55.343  1.00  0.00     0.045 A 
HETATM   28  C   UNL     1      30.147  44.297  55.589  1.00  0.00     0.068 A 
HETATM   29  C   UNL     1      30.531  43.274  54.718  1.00  0.00     0.037 A 
HETATM   30  C   UNL     1      29.756  42.963  53.603  1.00  0.00     0.003 A 
HETATM   31  C   UNL     1      28.582  43.671  53.354  1.00  0.00     0.009 A 
BRANCH  28  32
HETATM   32  O   UNL     1      31.005  44.504  56.635  1.00  0.00    -0.356 OA
HETATM   33  C   UNL     1      31.700  43.365  57.123  1.00  0.00     0.210 C 
ENDBRANCH  28  32
ENDBRANCH  25  26
ENDBRANCH  22  25
ENDBRANCH  20  21
ENDBRANCH  19  20
ENDBRANCH   1  19
TORSDOF 9
ENDMDL
MODEL 7
REMARK VINA RESULT:      -8.3      2.275     10.531
REMARK  9 active torsions:
REMARK  status: ('A' for Active; 'I' for Inactive)
REMARK    1  A    between atoms: C_3  and  N_4 
REMARK       I    between atoms: N_4  and  C_5 
REMARK    2  A    between atoms: C_5  and  C_6 
REMARK    3  A    between atoms: C_13  and  C_14 
REMARK    4  A    between atoms: C_14  and  O_15 
REMARK    5  A    between atoms: O_15  and  C_16 
REMARK    6  A    between atoms: C_16  and  C_17 
REMARK       I    between atoms: C_17  and  N_18 
REMARK    7  A    between atoms: N_18  and  C_19 
REMARK    8  A    between atoms: C_19  and  C_20 
REMARK    9  A    between atoms: C_22  and  O_23 
ROOT
HETATM    1  C   UNL     1      26.193  47.124  49.984  1.00  0.00     0.293 C 
HETATM    2  O   UNL     1      27.103  46.909  49.197  1.00  0.00    -0.259 OA
ENDROOT
BRANCH   1   3
HETATM    3  C   UNL     1      25.910  46.262  51.159  1.00  0.00     0.041 A 
HETATM    4  C   UNL     1      26.759  46.376  52.270  1.00  0.00     0.047 A 
HETATM    5  C   UNL     1      26.559  45.605  53.420  1.00  0.00     0.042 A 
HETATM    6  C   UNL     1      25.492  44.682  53.446  1.00  0.00    -0.035 A 
HETATM    7  C   UNL     1      25.214  43.793  54.631  1.00  0.00     0.050 C 
HETATM    8  C   UNL     1      24.655  44.562  52.320  1.00  0.00     0.010 A 
HETATM    9  C   UNL     1      24.855  45.352  51.187  1.00  0.00     0.018 A 
BRANCH   5  10
HETATM   10  N   UNL     1      27.405  45.715  54.546  1.00  0.00    -0.321 N 
HETATM   11  C   UNL     1      28.625  45.092  54.760  1.00  0.00     0.279 C 
HETATM   12  O   UNL     1      29.209  44.380  53.950  1.00  0.00    -0.265 OA
HETATM   13  H   UNL     1      27.137  46.362  55.278  1.00  0.00     0.169 HD
BRANCH  11  14
HETATM   14  C   UNL     1      29.200  45.406  56.056  1.00  0.00     0.142 A 
HETATM   15  O   UNL     1      28.429  46.027  57.008  1.00  0.00    -0.317 OA
HETATM   16  C   UNL     1      29.210  46.190  58.107  1.00  0.00     0.143 A 
HETATM   17  C   UNL     1      30.473  45.696  57.882  1.00  0.00     0.027 A 
HETATM   18  C   UNL     1      30.468  45.189  56.561  1.00  0.00     0.045 A 
ENDBRANCH  11  14
ENDBRANCH   5  10
ENDBRANCH   1   3
BRANCH   1  19
HETATM   19  O   UNL     1      25.361  48.190  49.943  1.00  0.00    -0.308 OA
BRANCH  19  20
HETATM   20  C   UNL     1      24.156  47.997  49.194  1.00  0.00     0.281 C 
BRANCH  20  21
HETATM   21  C   UNL     1      23.607  49.261  48.522  1.00  0.00     0.242 C 
HETATM   22  N   UNL     1      22.575  49.866  49.202  1.00  0.00    -0.355 N 
HETATM   23  H   UNL     1      22.204  49.402  50.030  1.00  0.00     0.162 HD
HETATM   24  O   UNL     1      24.085  49.708  47.482  1.00  0.00    -0.271 OA
BRANCH  22  25
HETATM   25  C   UNL     1      21.842  50.987  48.668  1.00  0.00     0.161 C 
BRANCH  25  26
HETATM   26  C   UNL     1      20.408  50.998  49.138  1.00  0.00    -0.038 A 
HETATM   27  C   UNL     1      19.563  52.088  48.860  1.00  0.00     0.045 A 
HETATM   28  C   UNL     1      18.236  52.088  49.299  1.00  0.00     0.068 A 
HETATM   29  C   UNL     1      17.749  50.987  50.008  1.00  0.00     0.037 A 
HETATM   30  C   UNL     1      18.578  49.905  50.296  1.00  0.00     0.003 A 
HETATM   31  C   UNL     1      19.903  49.912  49.868  1.00  0.00     0.009 A 
BRANCH  28  32
HETATM   32  O   UNL     1      17.320  53.083  49.095  1.00  0.00    -0.356 OA
HETATM   33  C   UNL     1      16.248  53.162  50.025  1.00  0.00     0.210 C 
ENDBRANCH  28  32
ENDBRANCH  25  26
ENDBRANCH  22  25
ENDBRANCH  20  21
ENDBRANCH  19  20
ENDBRANCH   1  19
TORSDOF 9
ENDMDL
MODEL 8
REMARK VINA RESULT:      -8.0      2.373     10.097
REMARK  9 active torsions:
REMARK  status: ('A' for Active; 'I' for Inactive)
REMARK    1  A    between atoms: C_3  and  N_4 
REMARK       I    between atoms: N_4  and  C_5 
REMARK    2  A    between atoms: C_5  and  C_6 
REMARK    3  A    between atoms: C_13  and  C_14 
REMARK    4  A    between atoms: C_14  and  O_15 
REMARK    5  A    between atoms: O_15  and  C_16 
REMARK    6  A    between atoms: C_16  and  C_17 
REMARK       I    between atoms: C_17  and  N_18 
REMARK    7  A    between atoms: N_18  and  C_19 
REMARK    8  A    between atoms: C_19  and  C_20 
REMARK    9  A    between atoms: C_22  and  O_23 
ROOT
HETATM    1  C   UNL     1      25.426  47.072  50.414  1.00  0.00     0.293 C 
HETATM    2  O   UNL     1      24.259  47.418  50.528  1.00  0.00    -0.259 OA
ENDROOT
BRANCH   1   3
HETATM    3  C   UNL     1      26.080  46.097  51.322  1.00  0.00     0.041 A 
HETATM    4  C   UNL     1      26.441  44.851  50.789  1.00  0.00     0.047 A 
HETATM    5  C   UNL     1      27.067  43.876  51.574  1.00  0.00     0.042 A 
HETATM    6  C   UNL     1      27.318  44.155  52.934  1.00  0.00    -0.035 A 
HETATM    7  C   UNL     1      27.966  43.159  53.862  1.00  0.00     0.050 C 
HETATM    8  C   UNL     1      26.938  45.402  53.466  1.00  0.00     0.010 A 
HETATM    9  C   UNL     1      26.332  46.371  52.665  1.00  0.00     0.018 A 
BRANCH   5  10
HETATM   10  N   UNL     1      27.438  42.620  51.046  1.00  0.00    -0.321 N 
HETATM   11  C   UNL     1      26.610  41.566  50.689  1.00  0.00     0.279 C 
HETATM   12  O   UNL     1      25.384  41.589  50.713  1.00  0.00    -0.265 OA
HETATM   13  H   UNL     1      28.418  42.462  50.844  1.00  0.00     0.169 HD
BRANCH  11  14
HETATM   14  C   UNL     1      27.344  40.405  50.218  1.00  0.00     0.142 A 
HETATM   15  O   UNL     1      28.496  40.025  50.860  1.00  0.00    -0.317 OA
HETATM   16  C   UNL     1      28.963  38.922  50.219  1.00  0.00     0.143 A 
HETATM   17  C   UNL     1      28.140  38.586  49.171  1.00  0.00     0.027 A 
HETATM   18  C   UNL     1      27.096  39.542  49.169  1.00  0.00     0.045 A 
ENDBRANCH  11  14
ENDBRANCH   5  10
ENDBRANCH   1   3
BRANCH   1  19
HETATM   19  O   UNL     1      26.264  47.467  49.428  1.00  0.00    -0.308 OA
BRANCH  19  20
HETATM   20  C   UNL     1      26.514  48.875  49.366  1.00  0.00     0.281 C 
BRANCH  20  21
HETATM   21  C   UNL     1      25.666  49.633  48.337  1.00  0.00     0.242 C 
HETATM   22  N   UNL     1      24.327  49.705  48.643  1.00  0.00    -0.355 N 
HETATM   23  H   UNL     1      23.989  49.196  49.458  1.00  0.00     0.162 HD
HETATM   24  O   UNL     1      26.163  50.162  47.345  1.00  0.00    -0.271 OA
BRANCH  22  25
HETATM   25  C   UNL     1      23.351  50.262  47.739  1.00  0.00     0.161 C 
BRANCH  25  26
HETATM   26  C   UNL     1      22.058  50.594  48.443  1.00  0.00    -0.038 A 
HETATM   27  C   UNL     1      20.857  50.731  47.723  1.00  0.00     0.045 A 
HETATM   28  C   UNL     1      19.664  51.037  48.384  1.00  0.00     0.068 A 
HETATM   29  C   UNL     1      19.671  51.195  49.773  1.00  0.00     0.037 A 
HETATM   30  C   UNL     1      20.855  51.069  50.496  1.00  0.00     0.003 A 
HETATM   31  C   UNL     1      22.044  50.775  49.833  1.00  0.00     0.009 A 
BRANCH  28  32
HETATM   32  O   UNL     1      18.437  51.198  47.800  1.00  0.00    -0.356 OA
HETATM   33  C   UNL     1      17.395  50.349  48.263  1.00  0.00     0.210 C 
ENDBRANCH  28  32
ENDBRANCH  25  26
ENDBRANCH  22  25
ENDBRANCH  20  21
ENDBRANCH  19  20
ENDBRANCH   1  19
TORSDOF 9
ENDMDL
MODEL 9
REMARK VINA RESULT:      -8.0      2.031     10.901
REMARK  9 active torsions:
REMARK  status: ('A' for Active; 'I' for Inactive)
REMARK    1  A    between atoms: C_3  and  N_4 
REMARK       I    between atoms: N_4  and  C_5 
REMARK    2  A    between atoms: C_5  and  C_6 
REMARK    3  A    between atoms: C_13  and  C_14 
REMARK    4  A    between atoms: C_14  and  O_15 
REMARK    5  A    between atoms: O_15  and  C_16 
REMARK    6  A    between atoms: C_16  and  C_17 
REMARK       I    between atoms: C_17  and  N_18 
REMARK    7  A    between atoms: N_18  and  C_19 
REMARK    8  A    between atoms: C_19  and  C_20 
REMARK    9  A    between atoms: C_22  and  O_23 
ROOT
HETATM    1  C   UNL     1      25.448  47.066  50.051  1.00  0.00     0.293 C 
HETATM    2  O   UNL     1      26.132  48.060  50.245  1.00  0.00    -0.259 OA
ENDROOT
BRANCH   1   3
HETATM    3  C   UNL     1      25.899  45.689  50.372  1.00  0.00     0.041 A 
HETATM    4  C   UNL     1      26.826  45.533  51.412  1.00  0.00     0.047 A 
HETATM    5  C   UNL     1      27.299  44.269  51.783  1.00  0.00     0.042 A 
HETATM    6  C   UNL     1      26.842  43.137  51.076  1.00  0.00    -0.035 A 
HETATM    7  C   UNL     1      27.313  41.740  51.389  1.00  0.00     0.050 C 
HETATM    8  C   UNL     1      25.924  43.303  50.022  1.00  0.00     0.010 A 
HETATM    9  C   UNL     1      25.447  44.569  49.677  1.00  0.00     0.018 A 
BRANCH   5  10
HETATM   10  N   UNL     1      28.230  44.101  52.832  1.00  0.00    -0.321 N 
HETATM   11  C   UNL     1      28.059  44.384  54.178  1.00  0.00     0.279 C 
HETATM   12  O   UNL     1      27.016  44.774  54.694  1.00  0.00    -0.265 OA
HETATM   13  H   UNL     1      29.121  43.672  52.610  1.00  0.00     0.169 HD
BRANCH  11  14
HETATM   14  C   UNL     1      29.250  44.124  54.966  1.00  0.00     0.142 A 
HETATM   15  O   UNL     1      29.672  45.052  55.886  1.00  0.00    -0.317 OA
HETATM   16  C   UNL     1      30.790  44.551  56.472  1.00  0.00     0.143 A 
HETATM   17  C   UNL     1      31.105  43.322  55.944  1.00  0.00     0.027 A 
HETATM   18  C   UNL     1      30.113  43.045  54.973  1.00  0.00     0.045 A 
ENDBRANCH  11  14
ENDBRANCH   5  10
ENDBRANCH   1   3
BRANCH   1  19
HETATM   19  O   UNL     1      24.178  47.073  49.583  1.00  0.00    -0.308 OA
BRANCH  19  20
HETATM   20  C   UNL     1      23.577  48.366  49.464  1.00  0.00     0.281 C 
BRANCH  20  21
HETATM   21  C   UNL     1      22.242  48.389  48.710  1.00  0.00     0.242 C 
HETATM   22  N   UNL     1      21.138  48.576  49.509  1.00  0.00    -0.355 N 
HETATM   23  H   UNL     1      21.271  48.602  50.519  1.00  0.00     0.162 HD
HETATM   24  O   UNL     1      22.182  48.285  47.487  1.00  0.00    -0.271 OA
BRANCH  22  25
HETATM   25  C   UNL     1      19.790  48.498  49.005  1.00  0.00     0.161 C 
BRANCH  25  26
HETATM   26  C   UNL     1      19.294  49.837  48.515  1.00  0.00    -0.038 A 
HETATM   27  C   UNL     1      18.507  49.937  47.353  1.00  0.00     0.045 A 
HETATM   28  C   UNL     1      18.051  51.181  46.909  1.00  0.00     0.068 A 
HETATM   29  C   UNL     1      18.374  52.329  47.636  1.00  0.00     0.037 A 
HETATM   30  C   UNL     1      19.159  52.245  48.784  1.00  0.00     0.003 A 
HETATM   31  C   UNL     1      19.622  51.004  49.219  1.00  0.00     0.009 A 
BRANCH  28  32
HETATM   32  O   UNL     1      17.284  51.409  45.798  1.00  0.00    -0.356 OA
HETATM   33  C   UNL     1      16.211  52.329  45.944  1.00  0.00     0.210 C 
ENDBRANCH  28  32
ENDBRANCH  25  26
ENDBRANCH  22  25
ENDBRANCH  20  21
ENDBRANCH  19  20
ENDBRANCH   1  19
TORSDOF 9
ENDMDL
MODEL 10
REMARK VINA RESULT:      -7.9      2.633      9.992
REMARK  9 active torsions:
REMARK  status: ('A' for Active; 'I' for Inactive)
REMARK    1  A    between atoms: C_3  and  N_4 
REMARK       I    between atoms: N_4  and  C_5 
REMARK    2  A    between atoms: C_5  and  C_6 
REMARK    3  A    between atoms: C_13  and  C_14 
REMARK    4  A    between atoms: C_14  and  O_15 
REMARK    5  A    between atoms: O_15  and  C_16 
REMARK    6  A    between atoms: C_16  and  C_17 
REMARK       I    between atoms: C_17  and  N_18 
REMARK    7  A    between atoms: N_18  and  C_19 
REMARK    8  A    between atoms: C_19  and  C_20 
REMARK    9  A    between atoms: C_22  and  O_23 
ROOT
HETATM    1  C   UNL     1      21.888  44.860  48.435  1.00  0.00     0.293 C 
HETATM    2  O   UNL     1      21.821  43.643  48.356  1.00  0.00    -0.259 OA
ENDROOT
BRANCH   1   3
HETATM    3  C   UNL     1      23.000  45.574  49.112  1.00  0.00     0.041 A 
HETATM    4  C   UNL     1      23.919  44.806  49.841  1.00  0.00     0.047 A 
HETATM    5  C   UNL     1      24.999  45.399  50.504  1.00  0.00     0.042 A 
HETATM    6  C   UNL     1      25.146  46.801  50.450  1.00  0.00    -0.035 A 
HETATM    7  C   UNL     1      26.263  47.529  51.152  1.00  0.00     0.050 C 
HETATM    8  C   UNL     1      24.209  47.567  49.730  1.00  0.00     0.010 A 
HETATM    9  C   UNL     1      23.148  46.959  49.057  1.00  0.00     0.018 A 
BRANCH   5  10
HETATM   10  N   UNL     1      25.933  44.634  51.237  1.00  0.00    -0.321 N 
HETATM   11  C   UNL     1      25.780  44.080  52.499  1.00  0.00     0.279 C 
HETATM   12  O   UNL     1      24.751  44.112  53.166  1.00  0.00    -0.265 OA
HETATM   13  H   UNL     1      26.812  44.402  50.789  1.00  0.00     0.169 HD
BRANCH  11  14
HETATM   14  C   UNL     1      26.970  43.389  52.962  1.00  0.00     0.142 A 
HETATM   15  O   UNL     1      27.199  42.094  52.567  1.00  0.00    -0.317 OA
HETATM   16  C   UNL     1      28.369  41.706  53.137  1.00  0.00     0.143 A 
HETATM   17  C   UNL     1      28.897  42.721  53.899  1.00  0.00     0.027 A 
HETATM   18  C   UNL     1      27.996  43.807  53.787  1.00  0.00     0.045 A 
ENDBRANCH  11  14
ENDBRANCH   5  10
ENDBRANCH   1   3
BRANCH   1  19
HETATM   19  O   UNL     1      21.014  45.728  47.875  1.00  0.00    -0.308 OA
BRANCH  19  20
HETATM   20  C   UNL     1      19.634  45.476  48.163  1.00  0.00     0.281 C 
BRANCH  20  21
HETATM   21  C   UNL     1      18.867  46.676  48.731  1.00  0.00     0.242 C 
HETATM   22  N   UNL     1      19.506  47.326  49.761  1.00  0.00    -0.355 N 
HETATM   23  H   UNL     1      20.374  46.929  50.119  1.00  0.00     0.162 HD
HETATM   24  O   UNL     1      17.787  47.038  48.269  1.00  0.00    -0.271 OA
BRANCH  22  25
HETATM   25  C   UNL     1      18.889  48.393  50.510  1.00  0.00     0.161 C 
BRANCH  25  26
HETATM   26  C   UNL     1      19.035  49.725  49.815  1.00  0.00    -0.038 A 
HETATM   27  C   UNL     1      17.940  50.599  49.690  1.00  0.00     0.045 A 
HETATM   28  C   UNL     1      18.085  51.831  49.046  1.00  0.00     0.068 A 
HETATM   29  C   UNL     1      19.334  52.195  48.535  1.00  0.00     0.037 A 
HETATM   30  C   UNL     1      20.424  51.334  48.646  1.00  0.00     0.003 A 
HETATM   31  C   UNL     1      20.274  50.102  49.278  1.00  0.00     0.009 A 
BRANCH  28  32
HETATM   32  O   UNL     1      17.102  52.765  48.860  1.00  0.00    -0.356 OA
HETATM   33  C   UNL     1      16.371  53.159  50.014  1.00  0.00     0.210 C 
ENDBRANCH  28  32
ENDBRANCH  25  26
ENDBRANCH  22  25
ENDBRANCH  20  21
ENDBRANCH  19  20
ENDBRANCH   1  19
TORSDOF 9
ENDMDL
