MODEL 1
REMARK VINA RESULT:      -8.9      0.000      0.000
REMARK  2 active torsions:
REMARK  status: ('A' for Active; 'I' for Inactive)
REMARK    1  A    between atoms: C_4  and  N_5 
REMARK       I    between atoms: N_5  and  C_6 
REMARK    2  A    between atoms: C_6  and  C_7 
ROOT
HETATM    1  C   UNL     1      25.746  45.978  53.543  1.00  0.00     0.099 C 
HETATM    2  C   UNL     1      27.032  45.863  53.930  1.00  0.00     0.079 C 
HETATM    3  S   UNL     1      28.144  44.672  53.373  1.00  0.00    -0.082 SA
HETATM    4  C   UNL     1      29.209  44.493  54.779  1.00  0.00     0.032 A 
HETATM    5  C   UNL     1      29.342  45.490  55.745  1.00  0.00     0.052 A 
HETATM    6  N   UNL     1      28.566  46.653  55.715  1.00  0.00    -0.321 N 
HETATM    7  C   UNL     1      29.991  43.335  54.882  1.00  0.00     0.021 A 
HETATM    8  C   UNL     1      30.900  43.181  55.932  1.00  0.00     0.002 A 
HETATM    9  C   UNL     1      31.044  44.191  56.878  1.00  0.00     0.002 A 
HETATM   10  C   UNL     1      30.270  45.348  56.784  1.00  0.00     0.031 A 
HETATM   11  C   UNL     1      27.490  46.900  54.914  1.00  0.00     0.263 C 
HETATM   12  O   UNL     1      26.888  47.968  55.051  1.00  0.00    -0.267 OA
HETATM   13  H   UNL     1      28.749  47.383  56.391  1.00  0.00     0.169 HD
ENDROOT
BRANCH   1  14
HETATM   14  C   UNL     1      25.031  45.140  52.549  1.00  0.00     0.247 C 
HETATM   15  N   UNL     1      24.706  45.647  51.323  1.00  0.00    -0.324 N 
HETATM   16  H   UNL     1      23.994  45.065  50.892  1.00  0.00     0.169 HD
HETATM   17  O   UNL     1      24.619  44.013  52.816  1.00  0.00    -0.268 OA
BRANCH  15  18
HETATM   18  C   UNL     1      25.115  46.758  50.568  1.00  0.00     0.035 A 
HETATM   19  C   UNL     1      26.444  47.106  50.318  1.00  0.00     0.029 A 
HETATM   20  C   UNL     1      26.745  48.232  49.545  1.00  0.00     0.002 A 
HETATM   21  C   UNL     1      25.724  49.003  48.993  1.00  0.00     0.000 A 
HETATM   22  C   UNL     1      24.397  48.638  49.197  1.00  0.00     0.002 A 
HETATM   23  C   UNL     1      24.098  47.514  49.971  1.00  0.00     0.029 A 
ENDBRANCH  15  18
ENDBRANCH   1  14
TORSDOF 2
ENDMDL
MODEL 2
REMARK VINA RESULT:      -8.3      2.749      7.633
REMARK  2 active torsions:
REMARK  status: ('A' for Active; 'I' for Inactive)
REMARK    1  A    between atoms: C_4  and  N_5 
REMARK       I    between atoms: N_5  and  C_6 
REMARK    2  A    between atoms: C_6  and  C_7 
ROOT
HETATM    1  C   UNL     1      26.915  45.908  49.715  1.00  0.00     0.099 C 
HETATM    2  C   UNL     1      26.104  46.985  49.717  1.00  0.00     0.079 C 
HETATM    3  S   UNL     1      24.443  46.991  50.173  1.00  0.00    -0.082 SA
HETATM    4  C   UNL     1      23.802  48.306  49.173  1.00  0.00     0.032 A 
HETATM    5  C   UNL     1      24.615  49.318  48.660  1.00  0.00     0.052 A 
HETATM    6  N   UNL     1      26.003  49.300  48.824  1.00  0.00    -0.321 N 
HETATM    7  C   UNL     1      22.420  48.362  48.947  1.00  0.00     0.021 A 
HETATM    8  C   UNL     1      21.859  49.419  48.227  1.00  0.00     0.002 A 
HETATM    9  C   UNL     1      22.674  50.437  47.740  1.00  0.00     0.002 A 
HETATM   10  C   UNL     1      24.051  50.391  47.961  1.00  0.00     0.031 A 
HETATM   11  C   UNL     1      26.761  48.270  49.300  1.00  0.00     0.263 C 
HETATM   12  O   UNL     1      27.985  48.408  49.335  1.00  0.00    -0.267 OA
HETATM   13  H   UNL     1      26.546  50.092  48.503  1.00  0.00     0.169 HD
ENDROOT
BRANCH   1  14
HETATM   14  C   UNL     1      26.567  44.526  50.127  1.00  0.00     0.247 C 
HETATM   15  N   UNL     1      26.854  44.088  51.389  1.00  0.00    -0.324 N 
HETATM   16  H   UNL     1      26.818  43.074  51.414  1.00  0.00     0.169 HD
HETATM   17  O   UNL     1      26.111  43.701  49.339  1.00  0.00    -0.268 OA
BRANCH  15  18
HETATM   18  C   UNL     1      27.187  44.710  52.604  1.00  0.00     0.035 A 
HETATM   19  C   UNL     1      26.457  45.741  53.197  1.00  0.00     0.029 A 
HETATM   20  C   UNL     1      26.871  46.288  54.417  1.00  0.00     0.002 A 
HETATM   21  C   UNL     1      28.000  45.793  55.065  1.00  0.00     0.000 A 
HETATM   22  C   UNL     1      28.707  44.733  54.505  1.00  0.00     0.002 A 
HETATM   23  C   UNL     1      28.293  44.190  53.288  1.00  0.00     0.029 A 
ENDBRANCH  15  18
ENDBRANCH   1  14
TORSDOF 2
ENDMDL
MODEL 3
REMARK VINA RESULT:      -8.2      1.758      7.488
REMARK  2 active torsions:
REMARK  status: ('A' for Active; 'I' for Inactive)
REMARK    1  A    between atoms: C_4  and  N_5 
REMARK       I    between atoms: N_5  and  C_6 
REMARK    2  A    between atoms: C_6  and  C_7 
ROOT
HETATM    1  C   UNL     1      25.392  45.257  53.219  1.00  0.00     0.099 C 
HETATM    2  C   UNL     1      25.116  45.569  51.937  1.00  0.00     0.079 C 
HETATM    3  S   UNL     1      25.628  46.995  51.119  1.00  0.00    -0.082 SA
HETATM    4  C   UNL     1      24.317  47.226  49.949  1.00  0.00     0.032 A 
HETATM    5  C   UNL     1      23.493  46.178  49.536  1.00  0.00     0.052 A 
HETATM    6  N   UNL     1      23.590  44.901  50.097  1.00  0.00    -0.321 N 
HETATM    7  C   UNL     1      24.149  48.492  49.373  1.00  0.00     0.021 A 
HETATM    8  C   UNL     1      23.178  48.705  48.392  1.00  0.00     0.002 A 
HETATM    9  C   UNL     1      22.377  47.649  47.968  1.00  0.00     0.002 A 
HETATM   10  C   UNL     1      22.537  46.384  48.535  1.00  0.00     0.031 A 
HETATM   11  C   UNL     1      24.310  44.540  51.197  1.00  0.00     0.263 C 
HETATM   12  O   UNL     1      24.246  43.372  51.585  1.00  0.00    -0.267 OA
HETATM   13  H   UNL     1      23.026  44.153  49.714  1.00  0.00     0.169 HD
ENDROOT
BRANCH   1  14
HETATM   14  C   UNL     1      26.208  46.045  54.177  1.00  0.00     0.247 C 
HETATM   15  N   UNL     1      27.427  45.586  54.587  1.00  0.00    -0.324 N 
HETATM   16  H   UNL     1      27.711  46.079  55.427  1.00  0.00     0.169 HD
HETATM   17  O   UNL     1      25.787  47.070  54.709  1.00  0.00    -0.268 OA
BRANCH  15  18
HETATM   18  C   UNL     1      28.328  44.612  54.125  1.00  0.00     0.035 A 
HETATM   19  C   UNL     1      28.311  44.055  52.846  1.00  0.00     0.029 A 
HETATM   20  C   UNL     1      29.262  43.094  52.482  1.00  0.00     0.002 A 
HETATM   21  C   UNL     1      30.251  42.704  53.382  1.00  0.00     0.000 A 
HETATM   22  C   UNL     1      30.305  43.289  54.643  1.00  0.00     0.002 A 
HETATM   23  C   UNL     1      29.355  44.246  55.005  1.00  0.00     0.029 A 
ENDBRANCH  15  18
ENDBRANCH   1  14
TORSDOF 2
ENDMDL
MODEL 4
REMARK VINA RESULT:      -7.9     12.701     13.656
REMARK  2 active torsions:
REMARK  status: ('A' for Active; 'I' for Inactive)
REMARK    1  A    between atoms: C_4  and  N_5 
REMARK       I    between atoms: N_5  and  C_6 
REMARK    2  A    between atoms: C_6  and  C_7 
ROOT
HETATM    1  C   UNL     1      28.513  48.083  40.115  1.00  0.00     0.099 C 
HETATM    2  C   UNL     1      29.677  48.194  40.786  1.00  0.00     0.079 C 
HETATM    3  S   UNL     1      29.907  49.054  42.260  1.00  0.00    -0.082 SA
HETATM    4  C   UNL     1      31.603  49.553  42.120  1.00  0.00     0.032 A 
HETATM    5  C   UNL     1      32.511  48.887  41.295  1.00  0.00     0.052 A 
HETATM    6  N   UNL     1      32.112  47.846  40.452  1.00  0.00    -0.321 N 
HETATM    7  C   UNL     1      32.056  50.611  42.918  1.00  0.00     0.021 A 
HETATM    8  C   UNL     1      33.400  50.993  42.898  1.00  0.00     0.002 A 
HETATM    9  C   UNL     1      34.304  50.309  42.091  1.00  0.00     0.002 A 
HETATM   10  C   UNL     1      33.862  49.253  41.293  1.00  0.00     0.031 A 
HETATM   11  C   UNL     1      30.834  47.466  40.165  1.00  0.00     0.263 C 
HETATM   12  O   UNL     1      30.660  46.550  39.358  1.00  0.00    -0.267 OA
HETATM   13  H   UNL     1      32.816  47.342  39.928  1.00  0.00     0.169 HD
ENDROOT
BRANCH   1  14
HETATM   14  C   UNL     1      27.196  48.643  40.509  1.00  0.00     0.247 C 
HETATM   15  N   UNL     1      27.005  49.994  40.558  1.00  0.00    -0.324 N 
HETATM   16  H   UNL     1      26.175  50.202  41.103  1.00  0.00     0.169 HD
HETATM   17  O   UNL     1      26.272  47.932  40.900  1.00  0.00    -0.268 OA
BRANCH  15  18
HETATM   18  C   UNL     1      27.688  51.112  40.050  1.00  0.00     0.035 A 
HETATM   19  C   UNL     1      27.846  51.399  38.693  1.00  0.00     0.029 A 
HETATM   20  C   UNL     1      28.540  52.547  38.291  1.00  0.00     0.002 A 
HETATM   21  C   UNL     1      29.055  53.428  39.239  1.00  0.00     0.000 A 
HETATM   22  C   UNL     1      28.860  53.175  40.593  1.00  0.00     0.002 A 
HETATM   23  C   UNL     1      28.170  52.029  40.993  1.00  0.00     0.029 A 
ENDBRANCH  15  18
ENDBRANCH   1  14
TORSDOF 2
ENDMDL
MODEL 5
REMARK VINA RESULT:      -7.8      2.783      3.694
REMARK  2 active torsions:
REMARK  status: ('A' for Active; 'I' for Inactive)
REMARK    1  A    between atoms: C_4  and  N_5 
REMARK       I    between atoms: N_5  and  C_6 
REMARK    2  A    between atoms: C_6  and  C_7 
ROOT
HETATM    1  C   UNL     1      25.147  44.592  49.671  1.00  0.00     0.099 C 
HETATM    2  C   UNL     1      25.891  43.994  50.622  1.00  0.00     0.079 C 
HETATM    3  S   UNL     1      25.628  44.106  52.321  1.00  0.00    -0.082 SA
HETATM    4  C   UNL     1      27.275  43.921  52.950  1.00  0.00     0.032 A 
HETATM    5  C   UNL     1      28.287  43.299  52.218  1.00  0.00     0.052 A 
HETATM    6  N   UNL     1      28.088  42.872  50.902  1.00  0.00    -0.321 N 
HETATM    7  C   UNL     1      27.546  44.358  54.253  1.00  0.00     0.021 A 
HETATM    8  C   UNL     1      28.808  44.168  54.820  1.00  0.00     0.002 A 
HETATM    9  C   UNL     1      29.805  43.524  54.092  1.00  0.00     0.002 A 
HETATM   10  C   UNL     1      29.545  43.085  52.794  1.00  0.00     0.031 A 
HETATM   11  C   UNL     1      27.018  43.148  50.102  1.00  0.00     0.263 C 
HETATM   12  O   UNL     1      27.025  42.727  48.944  1.00  0.00    -0.267 OA
HETATM   13  H   UNL     1      28.824  42.357  50.436  1.00  0.00     0.169 HD
ENDROOT
BRANCH   1  14
HETATM   14  C   UNL     1      23.944  45.437  49.875  1.00  0.00     0.247 C 
HETATM   15  N   UNL     1      24.057  46.798  49.933  1.00  0.00    -0.324 N 
HETATM   16  H   UNL     1      23.220  47.191  50.351  1.00  0.00     0.169 HD
HETATM   17  O   UNL     1      22.835  44.957  50.099  1.00  0.00    -0.268 OA
BRANCH  15  18
HETATM   18  C   UNL     1      25.044  47.728  49.568  1.00  0.00     0.035 A 
HETATM   19  C   UNL     1      26.408  47.586  49.827  1.00  0.00     0.029 A 
HETATM   20  C   UNL     1      27.311  48.571  49.413  1.00  0.00     0.002 A 
HETATM   21  C   UNL     1      26.864  49.689  48.714  1.00  0.00     0.000 A 
HETATM   22  C   UNL     1      25.513  49.817  48.408  1.00  0.00     0.002 A 
HETATM   23  C   UNL     1      24.612  48.834  48.824  1.00  0.00     0.029 A 
ENDBRANCH  15  18
ENDBRANCH   1  14
TORSDOF 2
ENDMDL
MODEL 6
REMARK VINA RESULT:      -7.7      2.199      6.724
REMARK  2 active torsions:
REMARK  status: ('A' for Active; 'I' for Inactive)
REMARK    1  A    between atoms: C_4  and  N_5 
REMARK       I    between atoms: N_5  and  C_6 
REMARK    2  A    between atoms: C_6  and  C_7 
ROOT
HETATM    1  C   UNL     1      26.186  43.575  52.009  1.00  0.00     0.099 C 
HETATM    2  C   UNL     1      25.906  44.477  51.047  1.00  0.00     0.079 C 
HETATM    3  S   UNL     1      27.058  45.228  50.010  1.00  0.00    -0.082 SA
HETATM    4  C   UNL     1      26.284  46.790  49.688  1.00  0.00     0.032 A 
HETATM    5  C   UNL     1      24.908  46.981  49.821  1.00  0.00     0.052 A 
HETATM    6  N   UNL     1      24.069  45.977  50.313  1.00  0.00    -0.321 N 
HETATM    7  C   UNL     1      27.077  47.846  49.221  1.00  0.00     0.021 A 
HETATM    8  C   UNL     1      26.502  49.073  48.883  1.00  0.00     0.002 A 
HETATM    9  C   UNL     1      25.125  49.248  48.995  1.00  0.00     0.002 A 
HETATM   10  C   UNL     1      24.327  48.202  49.458  1.00  0.00     0.031 A 
HETATM   11  C   UNL     1      24.448  44.801  50.891  1.00  0.00     0.263 C 
HETATM   12  O   UNL     1      23.571  44.044  51.314  1.00  0.00    -0.267 OA
HETATM   13  H   UNL     1      23.069  46.132  50.320  1.00  0.00     0.169 HD
ENDROOT
BRANCH   1  14
HETATM   14  C   UNL     1      27.518  43.021  52.357  1.00  0.00     0.247 C 
HETATM   15  N   UNL     1      28.364  43.718  53.173  1.00  0.00    -0.324 N 
HETATM   16  H   UNL     1      29.306  43.351  53.079  1.00  0.00     0.169 HD
HETATM   17  O   UNL     1      27.949  41.985  51.856  1.00  0.00    -0.268 OA
BRANCH  15  18
HETATM   18  C   UNL     1      28.222  44.793  54.065  1.00  0.00     0.035 A 
HETATM   19  C   UNL     1      27.196  45.738  54.016  1.00  0.00     0.029 A 
HETATM   20  C   UNL     1      27.141  46.770  54.960  1.00  0.00     0.002 A 
HETATM   21  C   UNL     1      28.091  46.849  55.975  1.00  0.00     0.000 A 
HETATM   22  C   UNL     1      29.090  45.883  56.061  1.00  0.00     0.002 A 
HETATM   23  C   UNL     1      29.144  44.856  55.117  1.00  0.00     0.029 A 
ENDBRANCH  15  18
ENDBRANCH   1  14
TORSDOF 2
ENDMDL
MODEL 7
REMARK VINA RESULT:      -7.7     13.117     14.332
REMARK  2 active torsions:
REMARK  status: ('A' for Active; 'I' for Inactive)
REMARK    1  A    between atoms: C_4  and  N_5 
REMARK       I    between atoms: N_5  and  C_6 
REMARK    2  A    between atoms: C_6  and  C_7 
ROOT
HETATM    1  C   UNL     1      32.378  49.195  42.020  1.00  0.00     0.099 C 
HETATM    2  C   UNL     1      33.235  50.228  42.156  1.00  0.00     0.079 C 
HETATM    3  S   UNL     1      34.571  50.565  41.123  1.00  0.00    -0.082 SA
HETATM    4  C   UNL     1      35.693  51.362  42.241  1.00  0.00     0.032 A 
HETATM    5  C   UNL     1      35.263  51.981  43.415  1.00  0.00     0.052 A 
HETATM    6  N   UNL     1      33.929  51.924  43.831  1.00  0.00    -0.321 N 
HETATM    7  C   UNL     1      37.050  51.425  41.895  1.00  0.00     0.021 A 
HETATM    8  C   UNL     1      37.960  52.106  42.707  1.00  0.00     0.002 A 
HETATM    9  C   UNL     1      37.518  52.742  43.863  1.00  0.00     0.002 A 
HETATM   10  C   UNL     1      36.170  52.684  44.216  1.00  0.00     0.031 A 
HETATM   11  C   UNL     1      32.939  51.145  43.307  1.00  0.00     0.263 C 
HETATM   12  O   UNL     1      31.822  51.185  43.828  1.00  0.00    -0.267 OA
HETATM   13  H   UNL     1      33.646  52.450  44.647  1.00  0.00     0.169 HD
ENDROOT
BRANCH   1  14
HETATM   14  C   UNL     1      32.383  48.163  40.954  1.00  0.00     0.247 C 
HETATM   15  N   UNL     1      31.631  48.330  39.826  1.00  0.00    -0.324 N 
HETATM   16  H   UNL     1      31.524  47.439  39.353  1.00  0.00     0.169 HD
HETATM   17  O   UNL     1      32.969  47.090  41.083  1.00  0.00    -0.268 OA
BRANCH  15  18
HETATM   18  C   UNL     1      30.989  49.419  39.214  1.00  0.00     0.035 A 
HETATM   19  C   UNL     1      29.616  49.664  39.261  1.00  0.00     0.029 A 
HETATM   20  C   UNL     1      29.077  50.786  38.621  1.00  0.00     0.002 A 
HETATM   21  C   UNL     1      29.906  51.686  37.955  1.00  0.00     0.000 A 
HETATM   22  C   UNL     1      31.282  51.476  37.944  1.00  0.00     0.002 A 
HETATM   23  C   UNL     1      31.818  50.355  38.581  1.00  0.00     0.029 A 
ENDBRANCH  15  18
ENDBRANCH   1  14
TORSDOF 2
ENDMDL
MODEL 8
REMARK VINA RESULT:      -7.4      5.356      7.604
REMARK  2 active torsions:
REMARK  status: ('A' for Active; 'I' for Inactive)
REMARK    1  A    between atoms: C_4  and  N_5 
REMARK       I    between atoms: N_5  and  C_6 
REMARK    2  A    between atoms: C_6  and  C_7 
ROOT
HETATM    1  C   UNL     1      22.401  48.594  47.880  1.00  0.00     0.099 C 
HETATM    2  C   UNL     1      22.983  47.639  48.632  1.00  0.00     0.079 C 
HETATM    3  S   UNL     1      24.370  47.853  49.629  1.00  0.00    -0.082 SA
HETATM    4  C   UNL     1      25.095  46.236  49.586  1.00  0.00     0.032 A 
HETATM    5  C   UNL     1      24.352  45.094  49.281  1.00  0.00     0.052 A 
HETATM    6  N   UNL     1      23.011  45.170  48.894  1.00  0.00    -0.321 N 
HETATM    7  C   UNL     1      26.445  46.098  49.934  1.00  0.00     0.021 A 
HETATM    8  C   UNL     1      27.041  44.836  49.987  1.00  0.00     0.002 A 
HETATM    9  C   UNL     1      26.287  43.700  49.705  1.00  0.00     0.002 A 
HETATM   10  C   UNL     1      24.942  43.827  49.358  1.00  0.00     0.031 A 
HETATM   11  C   UNL     1      22.311  46.297  48.578  1.00  0.00     0.263 C 
HETATM   12  O   UNL     1      21.140  46.178  48.210  1.00  0.00    -0.267 OA
HETATM   13  H   UNL     1      22.490  44.313  48.757  1.00  0.00     0.169 HD
ENDROOT
BRANCH   1  14
HETATM   14  C   UNL     1      22.803  50.019  47.775  1.00  0.00     0.247 C 
HETATM   15  N   UNL     1      21.910  51.012  48.062  1.00  0.00    -0.324 N 
HETATM   16  H   UNL     1      22.241  51.890  47.675  1.00  0.00     0.169 HD
HETATM   17  O   UNL     1      23.899  50.361  47.335  1.00  0.00    -0.268 OA
BRANCH  15  18
HETATM   18  C   UNL     1      20.679  51.076  48.736  1.00  0.00     0.035 A 
HETATM   19  C   UNL     1      20.303  50.240  49.788  1.00  0.00     0.029 A 
HETATM   20  C   UNL     1      19.053  50.393  50.398  1.00  0.00     0.002 A 
HETATM   21  C   UNL     1      18.182  51.398  49.982  1.00  0.00     0.000 A 
HETATM   22  C   UNL     1      18.568  52.267  48.966  1.00  0.00     0.002 A 
HETATM   23  C   UNL     1      19.815  52.112  48.357  1.00  0.00     0.029 A 
ENDBRANCH  15  18
ENDBRANCH   1  14
TORSDOF 2
ENDMDL
MODEL 9
REMARK VINA RESULT:      -7.4      2.810      7.797
REMARK  2 active torsions:
REMARK  status: ('A' for Active; 'I' for Inactive)
REMARK    1  A    between atoms: C_4  and  N_5 
REMARK       I    between atoms: N_5  and  C_6 
REMARK    2  A    between atoms: C_6  and  C_7 
ROOT
HETATM    1  C   UNL     1      26.733  45.177  50.494  1.00  0.00     0.099 C 
HETATM    2  C   UNL     1      25.493  45.667  50.295  1.00  0.00     0.079 C 
HETATM    3  S   UNL     1      24.145  44.773  49.702  1.00  0.00    -0.082 SA
HETATM    4  C   UNL     1      23.216  46.037  48.874  1.00  0.00     0.032 A 
HETATM    5  C   UNL     1      23.353  47.390  49.188  1.00  0.00     0.052 A 
HETATM    6  N   UNL     1      24.306  47.839  50.106  1.00  0.00    -0.321 N 
HETATM    7  C   UNL     1      22.265  45.651  47.920  1.00  0.00     0.021 A 
HETATM    8  C   UNL     1      21.458  46.603  47.294  1.00  0.00     0.002 A 
HETATM    9  C   UNL     1      21.584  47.948  47.630  1.00  0.00     0.002 A 
HETATM   10  C   UNL     1      22.527  48.342  48.580  1.00  0.00     0.031 A 
HETATM   11  C   UNL     1      25.319  47.113  50.660  1.00  0.00     0.263 C 
HETATM   12  O   UNL     1      26.102  47.683  51.422  1.00  0.00    -0.267 OA
HETATM   13  H   UNL     1      24.319  48.819  50.360  1.00  0.00     0.169 HD
ENDROOT
BRANCH   1  14
HETATM   14  C   UNL     1      27.190  43.782  50.279  1.00  0.00     0.247 C 
HETATM   15  N   UNL     1      28.074  43.203  51.144  1.00  0.00    -0.324 N 
HETATM   16  H   UNL     1      28.489  42.385  50.709  1.00  0.00     0.169 HD
HETATM   17  O   UNL     1      26.880  43.136  49.279  1.00  0.00    -0.268 OA
BRANCH  15  18
HETATM   18  C   UNL     1      28.524  43.490  52.443  1.00  0.00     0.035 A 
HETATM   19  C   UNL     1      27.805  44.217  53.393  1.00  0.00     0.029 A 
HETATM   20  C   UNL     1      28.342  44.441  54.665  1.00  0.00     0.002 A 
HETATM   21  C   UNL     1      29.587  43.918  55.008  1.00  0.00     0.000 A 
HETATM   22  C   UNL     1      30.291  43.152  54.084  1.00  0.00     0.002 A 
HETATM   23  C   UNL     1      29.754  42.931  52.814  1.00  0.00     0.029 A 
ENDBRANCH  15  18
ENDBRANCH   1  14
TORSDOF 2
ENDMDL
MODEL 10
REMARK VINA RESULT:      -7.2     12.613     13.820
REMARK  2 active torsions:
REMARK  status: ('A' for Active; 'I' for Inactive)
REMARK    1  A    between atoms: C_4  and  N_5 
REMARK       I    between atoms: N_5  and  C_6 
REMARK    2  A    between atoms: C_6  and  C_7 
ROOT
HETATM    1  C   UNL     1      32.149  50.155  43.074  1.00  0.00     0.099 C 
HETATM    2  C   UNL     1      33.263  50.877  42.840  1.00  0.00     0.079 C 
HETATM    3  S   UNL     1      34.211  50.823  41.403  1.00  0.00    -0.082 SA
HETATM    4  C   UNL     1      35.824  51.214  42.025  1.00  0.00     0.032 A 
HETATM    5  C   UNL     1      36.015  51.903  43.224  1.00  0.00     0.052 A 
HETATM    6  N   UNL     1      34.944  52.240  44.057  1.00  0.00    -0.321 N 
HETATM    7  C   UNL     1      36.940  50.875  41.249  1.00  0.00     0.021 A 
HETATM    8  C   UNL     1      38.228  51.228  41.661  1.00  0.00     0.002 A 
HETATM    9  C   UNL     1      38.407  51.936  42.846  1.00  0.00     0.002 A 
HETATM   10  C   UNL     1      37.302  52.279  43.625  1.00  0.00     0.031 A 
HETATM   11  C   UNL     1      33.654  51.811  43.950  1.00  0.00     0.263 C 
HETATM   12  O   UNL     1      32.841  52.171  44.804  1.00  0.00    -0.267 OA
HETATM   13  H   UNL     1      35.120  52.805  44.878  1.00  0.00     0.169 HD
ENDROOT
BRANCH   1  14
HETATM   14  C   UNL     1      31.492  49.198  42.149  1.00  0.00     0.247 C 
HETATM   15  N   UNL     1      30.444  49.598  41.370  1.00  0.00    -0.324 N 
HETATM   16  H   UNL     1      29.945  48.784  41.027  1.00  0.00     0.169 HD
HETATM   17  O   UNL     1      31.789  48.006  42.120  1.00  0.00    -0.268 OA
BRANCH  15  18
HETATM   18  C   UNL     1      29.922  50.839  40.970  1.00  0.00     0.035 A 
HETATM   19  C   UNL     1      30.508  51.684  40.026  1.00  0.00     0.029 A 
HETATM   20  C   UNL     1      29.901  52.899  39.692  1.00  0.00     0.002 A 
HETATM   21  C   UNL     1      28.690  53.267  40.276  1.00  0.00     0.000 A 
HETATM   22  C   UNL     1      28.073  52.410  41.182  1.00  0.00     0.002 A 
HETATM   23  C   UNL     1      28.682  51.198  41.515  1.00  0.00     0.029 A 
ENDBRANCH  15  18
ENDBRANCH   1  14
TORSDOF 2
ENDMDL
