MODEL 1
REMARK VINA RESULT:      -9.2      0.000      0.000
REMARK  5 active torsions:
REMARK  status: ('A' for Active; 'I' for Inactive)
REMARK    1  A    between atoms: C_3  and  N_4 
REMARK    2  A    between atoms: N_5  and  C_6 
REMARK    3  A    between atoms: C_6  and  C_7 
REMARK    4  A    between atoms: C_7  and  C_8 
REMARK    5  A    between atoms: C_19  and  C_20 
ROOT
HETATM    1  C   UNL     1      24.563  44.428  49.018  1.00  0.00     0.175 C 
HETATM    2  N   UNL     1      25.172  44.791  50.289  1.00  0.00    -0.186 N 
HETATM    3  C   UNL     1      25.328  43.954  51.308  1.00  0.00     0.680 C 
HETATM    4  N   UNL     1      26.193  44.480  52.168  1.00  0.00    -0.184 N 
HETATM    5  C   UNL     1      26.459  45.781  51.766  1.00  0.00     0.140 C 
HETATM    6  C   UNL     1      25.756  46.032  50.606  1.00  0.00     0.077 C 
ENDROOT
BRANCH   4   7
HETATM    7  C   UNL     1      26.839  43.812  53.317  1.00  0.00     0.231 C 
BRANCH   7   8
HETATM    8  C   UNL     1      28.362  43.797  53.238  1.00  0.00     0.178 C 
HETATM    9  O   UNL     1      28.960  43.626  52.173  1.00  0.00    -0.290 OA
BRANCH   8  10
HETATM   10  C   UNL     1      29.147  44.049  54.476  1.00  0.00     0.014 A 
HETATM   11  C   UNL     1      28.836  45.105  55.340  1.00  0.00     0.055 A 
HETATM   12  C   UNL     1      29.637  45.272  56.452  1.00  0.00     0.106 A 
HETATM   13  C   UNL     1      30.701  44.444  56.720  1.00  0.00     0.105 A 
HETATM   14  O   UNL     1      29.490  46.247  57.389  1.00  0.00    -0.323 OA
HETATM   15  O   UNL     1      31.354  44.790  57.859  1.00  0.00    -0.323 OA
HETATM   16  C   UNL     1      31.033  43.400  55.887  1.00  0.00     0.040 A 
HETATM   17  C   UNL     1      30.599  45.950  58.270  1.00  0.00     0.352 A 
HETATM   18  C   UNL     1      30.248  43.204  54.746  1.00  0.00     0.018 A 
ENDBRANCH   8  10
ENDBRANCH   7   8
ENDBRANCH   4   7
BRANCH   3  19
HETATM   19  N   UNL     1      24.720  42.778  51.420  1.00  0.00    -0.234 N 
HETATM   20  H   UNL     1      23.817  42.603  51.011  1.00  0.00     0.174 HD
HETATM   21  H   UNL     1      25.004  42.160  52.180  1.00  0.00     0.174 HD
ENDBRANCH   3  19
BRANCH   6  22
HETATM   22  C   UNL     1      25.687  47.348  49.886  1.00  0.00    -0.007 A 
HETATM   23  C   UNL     1      24.444  47.913  49.567  1.00  0.00     0.014 A 
HETATM   24  C   UNL     1      24.378  49.130  48.886  1.00  0.00     0.001 A 
HETATM   25  C   UNL     1      25.548  49.785  48.508  1.00  0.00     0.000 A 
HETATM   26  C   UNL     1      26.786  49.220  48.804  1.00  0.00     0.001 A 
HETATM   27  C   UNL     1      26.857  48.004  49.490  1.00  0.00     0.014 A 
ENDBRANCH   6  22
TORSDOF 5
ENDMDL
MODEL 2
REMARK VINA RESULT:      -9.1      2.848      8.099
REMARK  5 active torsions:
REMARK  status: ('A' for Active; 'I' for Inactive)
REMARK    1  A    between atoms: C_3  and  N_4 
REMARK    2  A    between atoms: N_5  and  C_6 
REMARK    3  A    between atoms: C_6  and  C_7 
REMARK    4  A    between atoms: C_7  and  C_8 
REMARK    5  A    between atoms: C_19  and  C_20 
ROOT
HETATM    1  C   UNL     1      27.809  47.612  55.033  1.00  0.00     0.175 C 
HETATM    2  N   UNL     1      27.520  46.361  54.348  1.00  0.00    -0.186 N 
HETATM    3  C   UNL     1      26.531  46.198  53.477  1.00  0.00     0.680 C 
HETATM    4  N   UNL     1      26.736  45.075  52.798  1.00  0.00    -0.184 N 
HETATM    5  C   UNL     1      27.802  44.408  53.387  1.00  0.00     0.140 C 
HETATM    6  C   UNL     1      28.273  45.175  54.432  1.00  0.00     0.077 C 
ENDROOT
BRANCH   4   7
HETATM    7  C   UNL     1      26.030  44.614  51.585  1.00  0.00     0.231 C 
BRANCH   7   8
HETATM    8  C   UNL     1      26.517  45.283  50.304  1.00  0.00     0.178 C 
HETATM    9  O   UNL     1      27.371  44.765  49.580  1.00  0.00    -0.290 OA
BRANCH   8  10
HETATM   10  C   UNL     1      25.905  46.573  49.890  1.00  0.00     0.014 A 
HETATM   11  C   UNL     1      24.517  46.739  49.826  1.00  0.00     0.055 A 
HETATM   12  C   UNL     1      24.043  47.968  49.408  1.00  0.00     0.106 A 
HETATM   13  C   UNL     1      24.884  49.000  49.066  1.00  0.00     0.105 A 
HETATM   14  O   UNL     1      22.732  48.302  49.277  1.00  0.00    -0.323 OA
HETATM   15  O   UNL     1      24.209  50.113  48.681  1.00  0.00    -0.323 OA
HETATM   16  C   UNL     1      26.253  48.864  49.116  1.00  0.00     0.040 A 
HETATM   17  C   UNL     1      22.843  49.660  48.792  1.00  0.00     0.352 A 
HETATM   18  C   UNL     1      26.770  47.631  49.527  1.00  0.00     0.018 A 
ENDBRANCH   8  10
ENDBRANCH   7   8
ENDBRANCH   4   7
BRANCH   3  19
HETATM   19  N   UNL     1      25.519  47.044  53.315  1.00  0.00    -0.234 N 
HETATM   20  H   UNL     1      25.578  48.007  53.601  1.00  0.00     0.174 HD
HETATM   21  H   UNL     1      24.582  46.657  53.206  1.00  0.00     0.174 HD
ENDBRANCH   3  19
BRANCH   6  22
HETATM   22  C   UNL     1      29.359  44.780  55.392  1.00  0.00    -0.007 A 
HETATM   23  C   UNL     1      30.102  43.612  55.173  1.00  0.00     0.014 A 
HETATM   24  C   UNL     1      31.103  43.236  56.072  1.00  0.00     0.001 A 
HETATM   25  C   UNL     1      31.360  44.014  57.198  1.00  0.00     0.000 A 
HETATM   26  C   UNL     1      30.612  45.165  57.432  1.00  0.00     0.001 A 
HETATM   27  C   UNL     1      29.613  45.548  56.533  1.00  0.00     0.014 A 
ENDBRANCH   6  22
TORSDOF 5
ENDMDL
MODEL 3
REMARK VINA RESULT:      -8.9      2.904      7.542
REMARK  5 active torsions:
REMARK  status: ('A' for Active; 'I' for Inactive)
REMARK    1  A    between atoms: C_3  and  N_4 
REMARK    2  A    between atoms: N_5  and  C_6 
REMARK    3  A    between atoms: C_6  and  C_7 
REMARK    4  A    between atoms: C_7  and  C_8 
REMARK    5  A    between atoms: C_19  and  C_20 
ROOT
HETATM    1  C   UNL     1      28.389  40.874  53.432  1.00  0.00     0.175 C 
HETATM    2  N   UNL     1      27.999  42.086  52.728  1.00  0.00    -0.186 N 
HETATM    3  C   UNL     1      27.321  42.101  51.586  1.00  0.00     0.680 C 
HETATM    4  N   UNL     1      26.844  43.325  51.385  1.00  0.00    -0.184 N 
HETATM    5  C   UNL     1      27.393  44.161  52.347  1.00  0.00     0.140 C 
HETATM    6  C   UNL     1      28.199  43.407  53.173  1.00  0.00     0.077 C 
ENDROOT
BRANCH   4   7
HETATM    7  C   UNL     1      25.850  43.749  50.377  1.00  0.00     0.231 C 
BRANCH   7   8
HETATM    8  C   UNL     1      24.960  44.897  50.843  1.00  0.00     0.178 C 
HETATM    9  O   UNL     1      24.142  44.761  51.755  1.00  0.00    -0.290 OA
BRANCH   8  10
HETATM   10  C   UNL     1      25.124  46.233  50.211  1.00  0.00     0.014 A 
HETATM   11  C   UNL     1      26.386  46.811  50.033  1.00  0.00     0.055 A 
HETATM   12  C   UNL     1      26.435  48.066  49.458  1.00  0.00     0.106 A 
HETATM   13  C   UNL     1      25.300  48.736  49.066  1.00  0.00     0.105 A 
HETATM   14  O   UNL     1      27.567  48.779  49.220  1.00  0.00    -0.323 OA
HETATM   15  O   UNL     1      25.576  49.953  48.530  1.00  0.00    -0.323 OA
HETATM   16  C   UNL     1      24.045  48.195  49.232  1.00  0.00     0.040 A 
HETATM   17  C   UNL     1      27.014  49.989  48.651  1.00  0.00     0.352 A 
HETATM   18  C   UNL     1      23.957  46.928  49.819  1.00  0.00     0.018 A 
ENDBRANCH   8  10
ENDBRANCH   7   8
ENDBRANCH   4   7
BRANCH   3  19
HETATM   19  N   UNL     1      27.145  41.047  50.798  1.00  0.00    -0.234 N 
HETATM   20  H   UNL     1      27.332  40.109  51.112  1.00  0.00     0.174 HD
HETATM   21  H   UNL     1      27.136  41.196  49.789  1.00  0.00     0.174 HD
ENDBRANCH   3  19
BRANCH   6  22
HETATM   22  C   UNL     1      29.055  43.935  54.289  1.00  0.00    -0.007 A 
HETATM   23  C   UNL     1      30.206  43.239  54.684  1.00  0.00     0.014 A 
HETATM   24  C   UNL     1      30.996  43.722  55.730  1.00  0.00     0.001 A 
HETATM   25  C   UNL     1      30.636  44.891  56.396  1.00  0.00     0.000 A 
HETATM   26  C   UNL     1      29.483  45.576  56.022  1.00  0.00     0.001 A 
HETATM   27  C   UNL     1      28.693  45.100  54.973  1.00  0.00     0.014 A 
ENDBRANCH   6  22
TORSDOF 5
ENDMDL
MODEL 4
REMARK VINA RESULT:      -8.9      2.895      7.910
REMARK  5 active torsions:
REMARK  status: ('A' for Active; 'I' for Inactive)
REMARK    1  A    between atoms: C_3  and  N_4 
REMARK    2  A    between atoms: N_5  and  C_6 
REMARK    3  A    between atoms: C_6  and  C_7 
REMARK    4  A    between atoms: C_7  and  C_8 
REMARK    5  A    between atoms: C_19  and  C_20 
ROOT
HETATM    1  C   UNL     1      25.860  43.944  54.878  1.00  0.00     0.175 C 
HETATM    2  N   UNL     1      26.659  43.859  53.665  1.00  0.00    -0.186 N 
HETATM    3  C   UNL     1      26.158  43.640  52.455  1.00  0.00     0.680 C 
HETATM    4  N   UNL     1      27.078  43.946  51.547  1.00  0.00    -0.184 N 
HETATM    5  C   UNL     1      28.269  44.197  52.213  1.00  0.00     0.140 C 
HETATM    6  C   UNL     1      28.047  44.072  53.568  1.00  0.00     0.077 C 
ENDROOT
BRANCH   4   7
HETATM    7  C   UNL     1      26.893  44.078  50.087  1.00  0.00     0.231 C 
BRANCH   7   8
HETATM    8  C   UNL     1      26.862  45.525  49.604  1.00  0.00     0.178 C 
HETATM    9  O   UNL     1      27.889  46.134  49.298  1.00  0.00    -0.290 OA
BRANCH   8  10
HETATM   10  C   UNL     1      25.546  46.201  49.448  1.00  0.00     0.014 A 
HETATM   11  C   UNL     1      25.407  47.583  49.620  1.00  0.00     0.055 A 
HETATM   12  C   UNL     1      24.141  48.116  49.478  1.00  0.00     0.106 A 
HETATM   13  C   UNL     1      23.048  47.338  49.176  1.00  0.00     0.105 A 
HETATM   14  O   UNL     1      23.819  49.429  49.619  1.00  0.00    -0.323 OA
HETATM   15  O   UNL     1      21.904  48.063  49.087  1.00  0.00    -0.323 OA
HETATM   16  C   UNL     1      23.154  45.976  49.005  1.00  0.00     0.040 A 
HETATM   17  C   UNL     1      22.391  49.388  49.393  1.00  0.00     0.352 A 
HETATM   18  C   UNL     1      24.420  45.400  49.150  1.00  0.00     0.018 A 
ENDBRANCH   8  10
ENDBRANCH   7   8
ENDBRANCH   4   7
BRANCH   3  19
HETATM   19  N   UNL     1      24.927  43.203  52.215  1.00  0.00    -0.234 N 
HETATM   20  H   UNL     1      24.115  43.656  52.599  1.00  0.00     0.174 HD
HETATM   21  H   UNL     1      24.811  42.234  51.917  1.00  0.00     0.174 HD
ENDBRANCH   3  19
BRANCH   6  22
HETATM   22  C   UNL     1      29.091  44.171  54.644  1.00  0.00    -0.007 A 
HETATM   23  C   UNL     1      29.975  43.106  54.867  1.00  0.00     0.014 A 
HETATM   24  C   UNL     1      30.938  43.191  55.875  1.00  0.00     0.001 A 
HETATM   25  C   UNL     1      31.016  44.329  56.674  1.00  0.00     0.000 A 
HETATM   26  C   UNL     1      30.128  45.382  56.471  1.00  0.00     0.001 A 
HETATM   27  C   UNL     1      29.167  45.304  55.460  1.00  0.00     0.014 A 
ENDBRANCH   6  22
TORSDOF 5
ENDMDL
MODEL 5
REMARK VINA RESULT:      -8.8      2.988      8.294
REMARK  5 active torsions:
REMARK  status: ('A' for Active; 'I' for Inactive)
REMARK    1  A    between atoms: C_3  and  N_4 
REMARK    2  A    between atoms: N_5  and  C_6 
REMARK    3  A    between atoms: C_6  and  C_7 
REMARK    4  A    between atoms: C_7  and  C_8 
REMARK    5  A    between atoms: C_19  and  C_20 
ROOT
HETATM    1  C   UNL     1      27.746  41.836  53.393  1.00  0.00     0.175 C 
HETATM    2  N   UNL     1      27.625  43.248  53.062  1.00  0.00    -0.186 N 
HETATM    3  C   UNL     1      26.907  43.719  52.049  1.00  0.00     0.680 C 
HETATM    4  N   UNL     1      26.734  45.025  52.215  1.00  0.00    -0.184 N 
HETATM    5  C   UNL     1      27.527  45.430  53.280  1.00  0.00     0.140 C 
HETATM    6  C   UNL     1      28.168  44.322  53.792  1.00  0.00     0.077 C 
ENDROOT
BRANCH   4   7
HETATM    7  C   UNL     1      25.818  45.914  51.469  1.00  0.00     0.231 C 
BRANCH   7   8
HETATM    8  C   UNL     1      26.385  46.397  50.138  1.00  0.00     0.178 C 
HETATM    9  O   UNL     1      27.297  45.802  49.561  1.00  0.00    -0.290 OA
BRANCH   8  10
HETATM   10  C   UNL     1      25.781  47.594  49.494  1.00  0.00     0.014 A 
HETATM   11  C   UNL     1      24.399  47.706  49.303  1.00  0.00     0.055 A 
HETATM   12  C   UNL     1      23.935  48.845  48.675  1.00  0.00     0.106 A 
HETATM   13  C   UNL     1      24.780  49.843  48.249  1.00  0.00     0.105 A 
HETATM   14  O   UNL     1      22.633  49.116  48.398  1.00  0.00    -0.323 OA
HETATM   15  O   UNL     1      24.116  50.867  47.655  1.00  0.00    -0.323 OA
HETATM   16  C   UNL     1      26.144  49.758  48.420  1.00  0.00     0.040 A 
HETATM   17  C   UNL     1      22.754  50.392  47.728  1.00  0.00     0.352 A 
HETATM   18  C   UNL     1      26.651  48.615  49.046  1.00  0.00     0.018 A 
ENDBRANCH   8  10
ENDBRANCH   7   8
ENDBRANCH   4   7
BRANCH   3  19
HETATM   19  N   UNL     1      26.433  42.980  51.052  1.00  0.00    -0.234 N 
HETATM   20  H   UNL     1      26.115  42.035  51.191  1.00  0.00     0.174 HD
HETATM   21  H   UNL     1      26.686  43.240  50.098  1.00  0.00     0.174 HD
ENDBRANCH   3  19
BRANCH   6  22
HETATM   22  C   UNL     1      29.191  44.329  54.892  1.00  0.00    -0.007 A 
HETATM   23  C   UNL     1      29.237  45.393  55.804  1.00  0.00     0.014 A 
HETATM   24  C   UNL     1      30.196  45.408  56.820  1.00  0.00     0.001 A 
HETATM   25  C   UNL     1      31.120  44.371  56.925  1.00  0.00     0.000 A 
HETATM   26  C   UNL     1      31.092  43.322  56.011  1.00  0.00     0.001 A 
HETATM   27  C   UNL     1      30.132  43.300  54.996  1.00  0.00     0.014 A 
ENDBRANCH   6  22
TORSDOF 5
ENDMDL
MODEL 6
REMARK VINA RESULT:      -8.6      4.020      7.491
REMARK  5 active torsions:
REMARK  status: ('A' for Active; 'I' for Inactive)
REMARK    1  A    between atoms: C_3  and  N_4 
REMARK    2  A    between atoms: N_5  and  C_6 
REMARK    3  A    between atoms: C_6  and  C_7 
REMARK    4  A    between atoms: C_7  and  C_8 
REMARK    5  A    between atoms: C_19  and  C_20 
ROOT
HETATM    1  C   UNL     1      25.810  44.136  54.659  1.00  0.00     0.175 C 
HETATM    2  N   UNL     1      26.641  43.916  53.485  1.00  0.00    -0.186 N 
HETATM    3  C   UNL     1      26.167  43.653  52.273  1.00  0.00     0.680 C 
HETATM    4  N   UNL     1      27.136  43.834  51.383  1.00  0.00    -0.184 N 
HETATM    5  C   UNL     1      28.319  44.047  52.076  1.00  0.00     0.140 C 
HETATM    6  C   UNL     1      28.043  44.027  53.427  1.00  0.00     0.077 C 
ENDROOT
BRANCH   4   7
HETATM    7  C   UNL     1      27.008  43.882  49.911  1.00  0.00     0.231 C 
BRANCH   7   8
HETATM    8  C   UNL     1      26.371  42.632  49.312  1.00  0.00     0.178 C 
HETATM    9  O   UNL     1      25.193  42.608  48.950  1.00  0.00    -0.290 OA
BRANCH   8  10
HETATM   10  C   UNL     1      27.214  41.423  49.113  1.00  0.00     0.014 A 
HETATM   11  C   UNL     1      27.782  40.738  50.193  1.00  0.00     0.055 A 
HETATM   12  C   UNL     1      28.568  39.639  49.906  1.00  0.00     0.106 A 
HETATM   13  C   UNL     1      28.794  39.217  48.617  1.00  0.00     0.105 A 
HETATM   14  O   UNL     1      29.204  38.865  50.824  1.00  0.00    -0.323 OA
HETATM   15  O   UNL     1      29.597  38.124  48.563  1.00  0.00    -0.323 OA
HETATM   16  C   UNL     1      28.253  39.874  47.535  1.00  0.00     0.040 A 
HETATM   17  C   UNL     1      29.877  37.916  49.964  1.00  0.00     0.352 A 
HETATM   18  C   UNL     1      27.456  40.996  47.787  1.00  0.00     0.018 A 
ENDBRANCH   8  10
ENDBRANCH   7   8
ENDBRANCH   4   7
BRANCH   3  19
HETATM   19  N   UNL     1      24.916  43.285  52.015  1.00  0.00    -0.234 N 
HETATM   20  H   UNL     1      24.689  42.659  51.260  1.00  0.00     0.174 HD
HETATM   21  H   UNL     1      24.160  43.876  52.361  1.00  0.00     0.174 HD
ENDBRANCH   3  19
BRANCH   6  22
HETATM   22  C   UNL     1      29.055  44.126  54.532  1.00  0.00    -0.007 A 
HETATM   23  C   UNL     1      29.129  45.284  55.319  1.00  0.00     0.014 A 
HETATM   24  C   UNL     1      30.078  45.384  56.338  1.00  0.00     0.001 A 
HETATM   25  C   UNL     1      30.967  44.337  56.571  1.00  0.00     0.000 A 
HETATM   26  C   UNL     1      30.912  43.192  55.781  1.00  0.00     0.001 A 
HETATM   27  C   UNL     1      29.961  43.086  54.763  1.00  0.00     0.014 A 
ENDBRANCH   6  22
TORSDOF 5
ENDMDL
MODEL 7
REMARK VINA RESULT:      -8.4      1.927      3.041
REMARK  5 active torsions:
REMARK  status: ('A' for Active; 'I' for Inactive)
REMARK    1  A    between atoms: C_3  and  N_4 
REMARK    2  A    between atoms: N_5  and  C_6 
REMARK    3  A    between atoms: C_6  and  C_7 
REMARK    4  A    between atoms: C_7  and  C_8 
REMARK    5  A    between atoms: C_19  and  C_20 
ROOT
HETATM    1  C   UNL     1      22.495  45.715  48.228  1.00  0.00     0.175 C 
HETATM    2  N   UNL     1      23.474  46.087  49.237  1.00  0.00    -0.186 N 
HETATM    3  C   UNL     1      24.138  45.217  49.990  1.00  0.00     0.680 C 
HETATM    4  N   UNL     1      25.168  45.836  50.556  1.00  0.00    -0.184 N 
HETATM    5  C   UNL     1      25.048  47.193  50.294  1.00  0.00     0.140 C 
HETATM    6  C   UNL     1      23.927  47.391  49.516  1.00  0.00     0.077 C 
ENDROOT
BRANCH   4   7
HETATM    7  C   UNL     1      26.300  45.221  51.280  1.00  0.00     0.231 C 
BRANCH   7   8
HETATM    8  C   UNL     1      26.031  45.008  52.766  1.00  0.00     0.178 C 
HETATM    9  O   UNL     1      24.947  44.595  53.182  1.00  0.00    -0.290 OA
BRANCH   8  10
HETATM   10  C   UNL     1      27.130  45.258  53.736  1.00  0.00     0.014 A 
HETATM   11  C   UNL     1      28.121  44.301  53.985  1.00  0.00     0.055 A 
HETATM   12  C   UNL     1      29.087  44.616  54.921  1.00  0.00     0.106 A 
HETATM   13  C   UNL     1      29.095  45.816  55.590  1.00  0.00     0.105 A 
HETATM   14  O   UNL     1      30.113  43.807  55.295  1.00  0.00    -0.323 OA
HETATM   15  O   UNL     1      30.128  45.915  56.466  1.00  0.00    -0.323 OA
HETATM   16  C   UNL     1      28.132  46.775  55.369  1.00  0.00     0.040 A 
HETATM   17  C   UNL     1      30.760  44.628  56.295  1.00  0.00     0.352 A 
HETATM   18  C   UNL     1      27.132  46.488  54.433  1.00  0.00     0.018 A 
ENDBRANCH   8  10
ENDBRANCH   7   8
ENDBRANCH   4   7
BRANCH   3  19
HETATM   19  N   UNL     1      23.816  43.936  50.125  1.00  0.00    -0.234 N 
HETATM   20  H   UNL     1      23.423  43.401  49.368  1.00  0.00     0.174 HD
HETATM   21  H   UNL     1      23.659  43.576  51.067  1.00  0.00     0.174 HD
ENDBRANCH   3  19
BRANCH   6  22
HETATM   22  C   UNL     1      23.379  48.721  49.084  1.00  0.00    -0.007 A 
HETATM   23  C   UNL     1      24.174  49.599  48.334  1.00  0.00     0.014 A 
HETATM   24  C   UNL     1      23.672  50.843  47.942  1.00  0.00     0.001 A 
HETATM   25  C   UNL     1      22.382  51.222  48.307  1.00  0.00     0.000 A 
HETATM   26  C   UNL     1      21.595  50.363  49.068  1.00  0.00     0.001 A 
HETATM   27  C   UNL     1      22.091  49.116  49.458  1.00  0.00     0.014 A 
ENDBRANCH   6  22
TORSDOF 5
ENDMDL
MODEL 8
REMARK VINA RESULT:      -8.0      3.067      4.723
REMARK  5 active torsions:
REMARK  status: ('A' for Active; 'I' for Inactive)
REMARK    1  A    between atoms: C_3  and  N_4 
REMARK    2  A    between atoms: N_5  and  C_6 
REMARK    3  A    between atoms: C_6  and  C_7 
REMARK    4  A    between atoms: C_7  and  C_8 
REMARK    5  A    between atoms: C_19  and  C_20 
ROOT
HETATM    1  C   UNL     1      21.268  46.615  47.154  1.00  0.00     0.175 C 
HETATM    2  N   UNL     1      22.146  46.896  48.280  1.00  0.00    -0.186 N 
HETATM    3  C   UNL     1      23.046  46.044  48.756  1.00  0.00     0.680 C 
HETATM    4  N   UNL     1      23.890  46.704  49.541  1.00  0.00    -0.184 N 
HETATM    5  C   UNL     1      23.398  47.990  49.713  1.00  0.00     0.140 C 
HETATM    6  C   UNL     1      22.239  48.116  48.977  1.00  0.00     0.077 C 
ENDROOT
BRANCH   4   7
HETATM    7  C   UNL     1      25.171  46.218  50.095  1.00  0.00     0.231 C 
BRANCH   7   8
HETATM    8  C   UNL     1      25.020  45.461  51.411  1.00  0.00     0.178 C 
HETATM    9  O   UNL     1      24.241  44.513  51.534  1.00  0.00    -0.290 OA
BRANCH   8  10
HETATM   10  C   UNL     1      25.877  45.848  52.563  1.00  0.00     0.014 A 
HETATM   11  C   UNL     1      26.861  44.989  53.066  1.00  0.00     0.055 A 
HETATM   12  C   UNL     1      27.591  45.427  54.153  1.00  0.00     0.106 A 
HETATM   13  C   UNL     1      27.377  46.656  54.732  1.00  0.00     0.105 A 
HETATM   14  O   UNL     1      28.574  44.725  54.776  1.00  0.00    -0.323 OA
HETATM   15  O   UNL     1      28.200  46.882  55.788  1.00  0.00    -0.323 OA
HETATM   16  C   UNL     1      26.414  47.520  54.261  1.00  0.00     0.040 A 
HETATM   17  C   UNL     1      28.943  45.645  55.830  1.00  0.00     0.352 A 
HETATM   18  C   UNL     1      25.650  47.107  53.165  1.00  0.00     0.018 A 
ENDBRANCH   8  10
ENDBRANCH   7   8
ENDBRANCH   4   7
BRANCH   3  19
HETATM   19  N   UNL     1      23.087  44.748  48.465  1.00  0.00    -0.234 N 
HETATM   20  H   UNL     1      23.591  44.396  47.668  1.00  0.00     0.174 HD
HETATM   21  H   UNL     1      22.357  44.147  48.846  1.00  0.00     0.174 HD
ENDBRANCH   3  19
BRANCH   6  22
HETATM   22  C   UNL     1      21.337  49.317  48.955  1.00  0.00    -0.007 A 
HETATM   23  C   UNL     1      21.772  50.514  48.368  1.00  0.00     0.014 A 
HETATM   24  C   UNL     1      20.941  51.636  48.359  1.00  0.00     0.001 A 
HETATM   25  C   UNL     1      19.678  51.576  48.944  1.00  0.00     0.000 A 
HETATM   26  C   UNL     1      19.248  50.397  49.546  1.00  0.00     0.001 A 
HETATM   27  C   UNL     1      20.074  49.270  49.553  1.00  0.00     0.014 A 
ENDBRANCH   6  22
TORSDOF 5
ENDMDL
MODEL 9
REMARK VINA RESULT:      -7.7      4.479      6.729
REMARK  5 active torsions:
REMARK  status: ('A' for Active; 'I' for Inactive)
REMARK    1  A    between atoms: C_3  and  N_4 
REMARK    2  A    between atoms: N_5  and  C_6 
REMARK    3  A    between atoms: C_6  and  C_7 
REMARK    4  A    between atoms: C_7  and  C_8 
REMARK    5  A    between atoms: C_19  and  C_20 
ROOT
HETATM    1  C   UNL     1      18.212  47.183  48.588  1.00  0.00     0.175 C 
HETATM    2  N   UNL     1      19.585  47.589  48.845  1.00  0.00    -0.186 N 
HETATM    3  C   UNL     1      20.600  46.744  48.983  1.00  0.00     0.680 C 
HETATM    4  N   UNL     1      21.739  47.419  48.875  1.00  0.00    -0.184 N 
HETATM    5  C   UNL     1      21.434  48.772  48.847  1.00  0.00     0.140 C 
HETATM    6  C   UNL     1      20.063  48.912  48.905  1.00  0.00     0.077 C 
ENDROOT
BRANCH   4   7
HETATM    7  C   UNL     1      23.102  46.867  48.733  1.00  0.00     0.231 C 
BRANCH   7   8
HETATM    8  C   UNL     1      24.086  47.392  49.773  1.00  0.00     0.178 C 
HETATM    9  O   UNL     1      24.406  48.582  49.827  1.00  0.00    -0.290 OA
BRANCH   8  10
HETATM   10  C   UNL     1      24.634  46.449  50.784  1.00  0.00     0.014 A 
HETATM   11  C   UNL     1      25.484  46.883  51.808  1.00  0.00     0.055 A 
HETATM   12  C   UNL     1      25.959  45.929  52.685  1.00  0.00     0.106 A 
HETATM   13  C   UNL     1      25.622  44.600  52.577  1.00  0.00     0.105 A 
HETATM   14  O   UNL     1      26.799  46.166  53.727  1.00  0.00    -0.323 OA
HETATM   15  O   UNL     1      26.203  43.837  53.538  1.00  0.00    -0.323 OA
HETATM   16  C   UNL     1      24.791  44.144  51.578  1.00  0.00     0.040 A 
HETATM   17  C   UNL     1      26.970  44.829  54.253  1.00  0.00     0.352 A 
HETATM   18  C   UNL     1      24.295  45.081  50.666  1.00  0.00     0.018 A 
ENDBRANCH   8  10
ENDBRANCH   7   8
ENDBRANCH   4   7
BRANCH   3  19
HETATM   19  N   UNL     1      20.473  45.437  49.180  1.00  0.00    -0.234 N 
HETATM   20  H   UNL     1      21.032  44.765  48.680  1.00  0.00     0.174 HD
HETATM   21  H   UNL     1      19.603  45.094  49.586  1.00  0.00     0.174 HD
ENDBRANCH   3  19
BRANCH   6  22
HETATM   22  C   UNL     1      19.315  50.212  48.991  1.00  0.00    -0.007 A 
HETATM   23  C   UNL     1      19.734  51.317  48.237  1.00  0.00     0.014 A 
HETATM   24  C   UNL     1      19.047  52.530  48.326  1.00  0.00     0.001 A 
HETATM   25  C   UNL     1      17.950  52.652  49.175  1.00  0.00     0.000 A 
HETATM   26  C   UNL     1      17.541  51.564  49.942  1.00  0.00     0.001 A 
HETATM   27  C   UNL     1      18.221  50.347  49.852  1.00  0.00     0.014 A 
ENDBRANCH   6  22
TORSDOF 5
ENDMDL
MODEL 10
REMARK VINA RESULT:      -7.7     15.860     17.505
REMARK  5 active torsions:
REMARK  status: ('A' for Active; 'I' for Inactive)
REMARK    1  A    between atoms: C_3  and  N_4 
REMARK    2  A    between atoms: N_5  and  C_6 
REMARK    3  A    between atoms: C_6  and  C_7 
REMARK    4  A    between atoms: C_7  and  C_8 
REMARK    5  A    between atoms: C_19  and  C_20 
ROOT
HETATM    1  C   UNL     1      35.281  41.542  65.379  1.00  0.00     0.175 C 
HETATM    2  N   UNL     1      36.250  42.623  65.286  1.00  0.00    -0.186 N 
HETATM    3  C   UNL     1      36.004  43.879  65.642  1.00  0.00     0.680 C 
HETATM    4  N   UNL     1      37.157  44.529  65.750  1.00  0.00    -0.184 N 
HETATM    5  C   UNL     1      38.162  43.701  65.270  1.00  0.00     0.140 C 
HETATM    6  C   UNL     1      37.596  42.501  64.894  1.00  0.00     0.077 C 
ENDROOT
BRANCH   4   7
HETATM    7  C   UNL     1      37.384  45.866  66.338  1.00  0.00     0.231 C 
BRANCH   7   8
HETATM    8  C   UNL     1      37.133  47.012  65.364  1.00  0.00     0.178 C 
HETATM    9  O   UNL     1      36.411  46.882  64.373  1.00  0.00    -0.290 OA
BRANCH   8  10
HETATM   10  C   UNL     1      37.735  48.341  65.650  1.00  0.00     0.014 A 
HETATM   11  C   UNL     1      37.146  49.235  66.552  1.00  0.00     0.055 A 
HETATM   12  C   UNL     1      37.768  50.455  66.735  1.00  0.00     0.106 A 
HETATM   13  C   UNL     1      38.920  50.797  66.068  1.00  0.00     0.105 A 
HETATM   14  O   UNL     1      37.333  51.444  67.559  1.00  0.00    -0.323 OA
HETATM   15  O   UNL     1      39.357  52.041  66.392  1.00  0.00    -0.323 OA
HETATM   16  C   UNL     1      39.520  49.940  65.172  1.00  0.00     0.040 A 
HETATM   17  C   UNL     1      38.334  52.460  67.321  1.00  0.00     0.352 A 
HETATM   18  C   UNL     1      38.914  48.698  64.956  1.00  0.00     0.018 A 
ENDBRANCH   8  10
ENDBRANCH   7   8
ENDBRANCH   4   7
BRANCH   3  19
HETATM   19  N   UNL     1      34.793  44.377  65.864  1.00  0.00    -0.234 N 
HETATM   20  H   UNL     1      34.644  45.170  66.466  1.00  0.00     0.174 HD
HETATM   21  H   UNL     1      33.986  43.776  65.694  1.00  0.00     0.174 HD
ENDBRANCH   3  19
BRANCH   6  22
HETATM   22  C   UNL     1      38.316  41.358  64.236  1.00  0.00    -0.007 A 
HETATM   23  C   UNL     1      38.737  40.259  64.998  1.00  0.00     0.014 A 
HETATM   24  C   UNL     1      39.418  39.201  64.391  1.00  0.00     0.001 A 
HETATM   25  C   UNL     1      39.694  39.239  63.027  1.00  0.00     0.000 A 
HETATM   26  C   UNL     1      39.297  40.336  62.268  1.00  0.00     0.001 A 
HETATM   27  C   UNL     1      38.611  41.394  62.870  1.00  0.00     0.014 A 
ENDBRANCH   6  22
TORSDOF 5
ENDMDL
