MODEL 1
REMARK VINA RESULT:      -8.8      0.000      0.000
REMARK  3 active torsions:
REMARK  status: ('A' for Active; 'I' for Inactive)
REMARK       I    between atoms: C_2  and  N_3 
REMARK    1  A    between atoms: N_3  and  N_4 
REMARK       I    between atoms: N_4  and  C_5 
REMARK    2  A    between atoms: C_5  and  C_6 
REMARK    3  A    between atoms: C_11  and  C_12 
ROOT
HETATM    1  C   UNL     1      26.716  44.955  53.589  1.00  0.00     0.115 A 
HETATM    2  N   UNL     1      26.994  45.872  54.584  1.00  0.00    -0.350 N 
HETATM    3  H   UNL     1      26.455  46.708  54.761  1.00  0.00     0.166 HD
HETATM    4  C   UNL     1      28.134  45.540  55.273  1.00  0.00     0.044 A 
HETATM    5  C   UNL     1      28.627  44.370  54.701  1.00  0.00     0.005 A 
HETATM    6  C   UNL     1      27.737  44.010  53.635  1.00  0.00     0.019 A 
HETATM    7  C   UNL     1      28.762  46.188  56.342  1.00  0.00     0.032 A 
HETATM    8  C   UNL     1      29.933  45.615  56.850  1.00  0.00     0.021 A 
HETATM    9  C   UNL     1      30.443  44.441  56.301  1.00  0.00     0.012 A 
HETATM   10 BR   UNL     1      32.029  43.694  57.014  1.00  0.00    -0.051 Br
HETATM   11  C   UNL     1      29.806  43.805  55.232  1.00  0.00     0.033 A 
ENDROOT
BRANCH   1  12
HETATM   12  C   UNL     1      25.591  45.078  52.683  1.00  0.00     0.287 C 
HETATM   13  N   UNL     1      25.717  46.100  51.754  1.00  0.00    -0.262 N 
HETATM   14  H   UNL     1      26.334  46.892  51.922  1.00  0.00     0.190 HD
HETATM   15  O   UNL     1      24.587  44.367  52.701  1.00  0.00    -0.264 OA
BRANCH  13  16
HETATM   16  N   UNL     1      24.608  46.382  50.936  1.00  0.00    -0.268 N 
HETATM   17  C   UNL     1      24.666  47.527  50.172  1.00  0.00     0.232 C 
HETATM   18  C   UNL     1      23.391  47.859  49.447  1.00  0.00     0.119 C 
HETATM   19  O   UNL     1      25.685  48.208  50.076  1.00  0.00    -0.272 OA
HETATM   20  H   UNL     1      23.726  45.961  51.230  1.00  0.00     0.190 HD
ENDBRANCH  13  16
ENDBRANCH   1  12
BRANCH   6  21
HETATM   21  C   UNL     1      27.847  42.866  52.743  1.00  0.00    -0.023 A 
HETATM   22  C   UNL     1      28.248  41.615  53.229  1.00  0.00     0.012 A 
HETATM   23  C   UNL     1      28.382  40.532  52.356  1.00  0.00     0.001 A 
HETATM   24  C   UNL     1      28.124  40.696  50.995  1.00  0.00     0.000 A 
HETATM   25  C   UNL     1      27.731  41.939  50.504  1.00  0.00     0.001 A 
HETATM   26  C   UNL     1      27.592  43.021  51.375  1.00  0.00     0.012 A 
ENDBRANCH   6  21
TORSDOF 3
ENDMDL
MODEL 2
REMARK VINA RESULT:      -8.6      3.692      5.789
REMARK  3 active torsions:
REMARK  status: ('A' for Active; 'I' for Inactive)
REMARK       I    between atoms: C_2  and  N_3 
REMARK    1  A    between atoms: N_3  and  N_4 
REMARK       I    between atoms: N_4  and  C_5 
REMARK    2  A    between atoms: C_5  and  C_6 
REMARK    3  A    between atoms: C_11  and  C_12 
ROOT
HETATM    1  C   UNL     1      28.015  41.742  51.390  1.00  0.00     0.115 A 
HETATM    2  N   UNL     1      29.020  41.372  52.263  1.00  0.00    -0.350 N 
HETATM    3  H   UNL     1      29.500  40.483  52.242  1.00  0.00     0.166 HD
HETATM    4  C   UNL     1      29.252  42.342  53.206  1.00  0.00     0.044 A 
HETATM    5  C   UNL     1      28.359  43.379  52.950  1.00  0.00     0.005 A 
HETATM    6  C   UNL     1      27.576  42.993  51.812  1.00  0.00     0.019 A 
HETATM    7  C   UNL     1      30.171  42.372  54.262  1.00  0.00     0.032 A 
HETATM    8  C   UNL     1      30.181  43.506  55.079  1.00  0.00     0.021 A 
HETATM    9  C   UNL     1      29.304  44.561  54.840  1.00  0.00     0.012 A 
HETATM   10 BR   UNL     1      29.347  46.081  55.967  1.00  0.00    -0.051 Br
HETATM   11  C   UNL     1      28.391  44.518  53.783  1.00  0.00     0.033 A 
ENDROOT
BRANCH   1  12
HETATM   12  C   UNL     1      27.539  40.892  50.316  1.00  0.00     0.287 C 
HETATM   13  N   UNL     1      26.918  39.728  50.744  1.00  0.00    -0.262 N 
HETATM   14  H   UNL     1      27.103  39.340  51.667  1.00  0.00     0.190 HD
HETATM   15  O   UNL     1      27.658  41.135  49.116  1.00  0.00    -0.264 OA
BRANCH  13  16
HETATM   16  N   UNL     1      26.560  38.781  49.769  1.00  0.00    -0.268 N 
HETATM   17  C   UNL     1      27.464  37.775  49.508  1.00  0.00     0.232 C 
HETATM   18  C   UNL     1      27.099  36.892  48.347  1.00  0.00     0.119 C 
HETATM   19  O   UNL     1      28.476  37.603  50.184  1.00  0.00    -0.272 OA
HETATM   20  H   UNL     1      25.872  39.093  49.082  1.00  0.00     0.190 HD
ENDBRANCH  13  16
ENDBRANCH   1  12
BRANCH   6  21
HETATM   21  C   UNL     1      26.507  43.752  51.179  1.00  0.00    -0.023 A 
HETATM   22  C   UNL     1      26.777  44.618  50.113  1.00  0.00     0.012 A 
HETATM   23  C   UNL     1      25.747  45.366  49.536  1.00  0.00     0.001 A 
HETATM   24  C   UNL     1      24.446  45.257  50.026  1.00  0.00     0.000 A 
HETATM   25  C   UNL     1      24.171  44.401  51.091  1.00  0.00     0.001 A 
HETATM   26  C   UNL     1      25.198  43.651  51.666  1.00  0.00     0.012 A 
ENDBRANCH   6  21
TORSDOF 3
ENDMDL
MODEL 3
REMARK VINA RESULT:      -8.6      3.801      5.301
REMARK  3 active torsions:
REMARK  status: ('A' for Active; 'I' for Inactive)
REMARK       I    between atoms: C_2  and  N_3 
REMARK    1  A    between atoms: N_3  and  N_4 
REMARK       I    between atoms: N_4  and  C_5 
REMARK    2  A    between atoms: C_5  and  C_6 
REMARK    3  A    between atoms: C_11  and  C_12 
ROOT
HETATM    1  C   UNL     1      28.179  41.520  51.407  1.00  0.00     0.115 A 
HETATM    2  N   UNL     1      29.186  41.321  52.332  1.00  0.00    -0.350 N 
HETATM    3  H   UNL     1      29.763  40.492  52.382  1.00  0.00     0.166 HD
HETATM    4  C   UNL     1      29.273  42.366  53.217  1.00  0.00     0.044 A 
HETATM    5  C   UNL     1      28.280  43.277  52.869  1.00  0.00     0.005 A 
HETATM    6  C   UNL     1      27.587  42.737  51.735  1.00  0.00     0.019 A 
HETATM    7  C   UNL     1      30.145  42.563  54.295  1.00  0.00     0.032 A 
HETATM    8  C   UNL     1      29.999  43.739  55.038  1.00  0.00     0.021 A 
HETATM    9  C   UNL     1      29.019  44.670  54.706  1.00  0.00     0.012 A 
HETATM   10 BR   UNL     1      28.851  46.250  55.734  1.00  0.00    -0.051 Br
HETATM   11  C   UNL     1      28.155  44.460  53.628  1.00  0.00     0.033 A 
ENDROOT
BRANCH   1  12
HETATM   12  C   UNL     1      27.840  40.559  50.377  1.00  0.00     0.287 C 
HETATM   13  N   UNL     1      28.819  40.392  49.409  1.00  0.00    -0.262 N 
HETATM   14  H   UNL     1      29.515  41.114  49.234  1.00  0.00     0.190 HD
HETATM   15  O   UNL     1      26.787  39.925  50.319  1.00  0.00    -0.264 OA
BRANCH  13  16
HETATM   16  N   UNL     1      28.510  39.590  48.297  1.00  0.00    -0.268 N 
HETATM   17  C   UNL     1      28.209  40.238  47.119  1.00  0.00     0.232 C 
HETATM   18  C   UNL     1      27.729  39.337  46.015  1.00  0.00     0.119 C 
HETATM   19  O   UNL     1      28.342  41.452  46.978  1.00  0.00    -0.272 OA
HETATM   20  H   UNL     1      28.169  38.652  48.510  1.00  0.00     0.190 HD
ENDBRANCH  13  16
ENDBRANCH   1  12
BRANCH   6  21
HETATM   21  C   UNL     1      26.464  43.329  51.024  1.00  0.00    -0.023 A 
HETATM   22  C   UNL     1      25.153  42.907  51.278  1.00  0.00     0.012 A 
HETATM   23  C   UNL     1      24.086  43.459  50.565  1.00  0.00     0.001 A 
HETATM   24  C   UNL     1      24.325  44.430  49.591  1.00  0.00     0.000 A 
HETATM   25  C   UNL     1      25.627  44.850  49.330  1.00  0.00     0.001 A 
HETATM   26  C   UNL     1      26.694  44.302  50.044  1.00  0.00     0.012 A 
ENDBRANCH   6  21
TORSDOF 3
ENDMDL
MODEL 4
REMARK VINA RESULT:      -8.6      1.005      1.211
REMARK  3 active torsions:
REMARK  status: ('A' for Active; 'I' for Inactive)
REMARK       I    between atoms: C_2  and  N_3 
REMARK    1  A    between atoms: N_3  and  N_4 
REMARK       I    between atoms: N_4  and  C_5 
REMARK    2  A    between atoms: C_5  and  C_6 
REMARK    3  A    between atoms: C_11  and  C_12 
ROOT
HETATM    1  C   UNL     1      25.951  45.179  52.650  1.00  0.00     0.115 A 
HETATM    2  N   UNL     1      26.160  46.104  53.654  1.00  0.00    -0.350 N 
HETATM    3  H   UNL     1      25.584  46.919  53.812  1.00  0.00     0.166 HD
HETATM    4  C   UNL     1      27.286  45.813  54.383  1.00  0.00     0.044 A 
HETATM    5  C   UNL     1      27.842  44.663  53.829  1.00  0.00     0.005 A 
HETATM    6  C   UNL     1      27.004  44.272  52.732  1.00  0.00     0.019 A 
HETATM    7  C   UNL     1      27.850  46.482  55.475  1.00  0.00     0.032 A 
HETATM    8  C   UNL     1      29.022  45.951  56.025  1.00  0.00     0.021 A 
HETATM    9  C   UNL     1      29.594  44.798  55.495  1.00  0.00     0.012 A 
HETATM   10 BR   UNL     1      31.179  44.108  56.264  1.00  0.00    -0.051 Br
HETATM   11  C   UNL     1      29.020  44.140  54.403  1.00  0.00     0.033 A 
ENDROOT
BRANCH   1  12
HETATM   12  C   UNL     1      24.856  45.263  51.704  1.00  0.00     0.287 C 
HETATM   13  N   UNL     1      24.960  46.311  50.802  1.00  0.00    -0.262 N 
HETATM   14  H   UNL     1      25.527  47.131  51.011  1.00  0.00     0.190 HD
HETATM   15  O   UNL     1      23.893  44.498  51.667  1.00  0.00    -0.264 OA
BRANCH  13  16
HETATM   16  N   UNL     1      23.870  46.551  49.948  1.00  0.00    -0.268 N 
HETATM   17  C   UNL     1      23.642  47.857  49.571  1.00  0.00     0.232 C 
HETATM   18  C   UNL     1      22.372  48.071  48.795  1.00  0.00     0.119 C 
HETATM   19  O   UNL     1      24.426  48.768  49.832  1.00  0.00    -0.272 OA
HETATM   20  H   UNL     1      23.129  45.849  49.970  1.00  0.00     0.190 HD
ENDBRANCH  13  16
ENDBRANCH   1  12
BRANCH   6  21
HETATM   21  C   UNL     1      27.188  43.134  51.844  1.00  0.00    -0.023 A 
HETATM   22  C   UNL     1      27.534  41.876  52.354  1.00  0.00     0.012 A 
HETATM   23  C   UNL     1      27.741  40.800  51.488  1.00  0.00     0.001 A 
HETATM   24  C   UNL     1      27.611  40.976  50.111  1.00  0.00     0.000 A 
HETATM   25  C   UNL     1      27.273  42.226  49.597  1.00  0.00     0.001 A 
HETATM   26  C   UNL     1      27.062  43.302  50.460  1.00  0.00     0.012 A 
ENDBRANCH   6  21
TORSDOF 3
ENDMDL
MODEL 5
REMARK VINA RESULT:      -8.5      3.332      5.996
REMARK  3 active torsions:
REMARK  status: ('A' for Active; 'I' for Inactive)
REMARK       I    between atoms: C_2  and  N_3 
REMARK    1  A    between atoms: N_3  and  N_4 
REMARK       I    between atoms: N_4  and  C_5 
REMARK    2  A    between atoms: C_5  and  C_6 
REMARK    3  A    between atoms: C_11  and  C_12 
ROOT
HETATM    1  C   UNL     1      28.594  43.762  53.364  1.00  0.00     0.115 A 
HETATM    2  N   UNL     1      27.563  44.341  52.649  1.00  0.00    -0.350 N 
HETATM    3  H   UNL     1      27.231  44.012  51.753  1.00  0.00     0.166 HD
HETATM    4  C   UNL     1      27.076  45.458  53.279  1.00  0.00     0.044 A 
HETATM    5  C   UNL     1      27.823  45.626  54.442  1.00  0.00     0.005 A 
HETATM    6  C   UNL     1      28.783  44.562  54.487  1.00  0.00     0.019 A 
HETATM    7  C   UNL     1      26.046  46.329  52.903  1.00  0.00     0.032 A 
HETATM    8  C   UNL     1      25.766  47.405  53.751  1.00  0.00     0.021 A 
HETATM    9  C   UNL     1      26.492  47.591  54.924  1.00  0.00     0.012 A 
HETATM   10 BR   UNL     1      26.084  49.058  56.048  1.00  0.00    -0.051 Br
HETATM   11  C   UNL     1      27.519  46.715  55.287  1.00  0.00     0.033 A 
ENDROOT
BRANCH   1  12
HETATM   12  C   UNL     1      29.317  42.589  52.913  1.00  0.00     0.287 C 
HETATM   13  N   UNL     1      28.505  41.540  52.507  1.00  0.00    -0.262 N 
HETATM   14  H   UNL     1      27.544  41.461  52.833  1.00  0.00     0.190 HD
HETATM   15  O   UNL     1      30.542  42.484  52.880  1.00  0.00    -0.264 OA
BRANCH  13  16
HETATM   16  N   UNL     1      29.124  40.317  52.196  1.00  0.00    -0.268 N 
HETATM   17  C   UNL     1      28.885  39.793  50.944  1.00  0.00     0.232 C 
HETATM   18  C   UNL     1      29.438  38.411  50.730  1.00  0.00     0.119 C 
HETATM   19  O   UNL     1      28.288  40.415  50.069  1.00  0.00    -0.272 OA
HETATM   20  H   UNL     1      29.379  39.736  52.995  1.00  0.00     0.190 HD
ENDBRANCH  13  16
ENDBRANCH   1  12
BRANCH   6  21
HETATM   21  C   UNL     1      29.789  44.325  55.511  1.00  0.00    -0.023 A 
HETATM   22  C   UNL     1      30.367  43.059  55.669  1.00  0.00     0.012 A 
HETATM   23  C   UNL     1      31.307  42.836  56.679  1.00  0.00     0.001 A 
HETATM   24  C   UNL     1      31.669  43.874  57.538  1.00  0.00     0.000 A 
HETATM   25  C   UNL     1      31.094  45.134  57.390  1.00  0.00     0.001 A 
HETATM   26  C   UNL     1      30.157  45.360  56.380  1.00  0.00     0.012 A 
ENDBRANCH   6  21
TORSDOF 3
ENDMDL
MODEL 6
REMARK VINA RESULT:      -8.3      3.765      5.901
REMARK  3 active torsions:
REMARK  status: ('A' for Active; 'I' for Inactive)
REMARK       I    between atoms: C_2  and  N_3 
REMARK    1  A    between atoms: N_3  and  N_4 
REMARK       I    between atoms: N_4  and  C_5 
REMARK    2  A    between atoms: C_5  and  C_6 
REMARK    3  A    between atoms: C_11  and  C_12 
ROOT
HETATM    1  C   UNL     1      24.217  45.567  50.212  1.00  0.00     0.115 A 
HETATM    2  N   UNL     1      24.163  44.719  51.301  1.00  0.00    -0.350 N 
HETATM    3  H   UNL     1      23.604  43.879  51.346  1.00  0.00     0.166 HD
HETATM    4  C   UNL     1      24.922  45.188  52.344  1.00  0.00     0.044 A 
HETATM    5  C   UNL     1      25.482  46.392  51.930  1.00  0.00     0.005 A 
HETATM    6  C   UNL     1      25.030  46.633  50.590  1.00  0.00     0.019 A 
HETATM    7  C   UNL     1      25.141  44.643  53.615  1.00  0.00     0.032 A 
HETATM    8  C   UNL     1      25.970  45.353  54.489  1.00  0.00     0.021 A 
HETATM    9  C   UNL     1      26.550  46.556  54.096  1.00  0.00     0.012 A 
HETATM   10 BR   UNL     1      27.668  47.489  55.306  1.00  0.00    -0.051 Br
HETATM   11  C   UNL     1      26.322  47.089  52.825  1.00  0.00     0.033 A 
ENDROOT
BRANCH   1  12
HETATM   12  C   UNL     1      23.482  45.337  48.984  1.00  0.00     0.287 C 
HETATM   13  N   UNL     1      22.208  45.884  48.972  1.00  0.00    -0.262 N 
HETATM   14  H   UNL     1      21.715  46.092  49.838  1.00  0.00     0.190 HD
HETATM   15  O   UNL     1      23.905  44.712  48.012  1.00  0.00    -0.264 OA
BRANCH  13  16
HETATM   16  N   UNL     1      21.375  45.581  47.880  1.00  0.00    -0.268 N 
HETATM   17  C   UNL     1      21.164  46.580  46.955  1.00  0.00     0.232 C 
HETATM   18  C   UNL     1      20.141  46.251  45.903  1.00  0.00     0.119 C 
HETATM   19  O   UNL     1      21.779  47.644  46.977  1.00  0.00    -0.272 OA
HETATM   20  H   UNL     1      20.710  44.821  48.030  1.00  0.00     0.190 HD
ENDBRANCH  13  16
ENDBRANCH   1  12
BRANCH   6  21
HETATM   21  C   UNL     1      25.346  47.773  49.744  1.00  0.00    -0.023 A 
HETATM   22  C   UNL     1      26.675  48.100  49.448  1.00  0.00     0.012 A 
HETATM   23  C   UNL     1      26.967  49.218  48.662  1.00  0.00     0.001 A 
HETATM   24  C   UNL     1      25.933  50.017  48.175  1.00  0.00     0.000 A 
HETATM   25  C   UNL     1      24.609  49.702  48.470  1.00  0.00     0.001 A 
HETATM   26  C   UNL     1      24.315  48.584  49.252  1.00  0.00     0.012 A 
ENDBRANCH   6  21
TORSDOF 3
ENDMDL
MODEL 7
REMARK VINA RESULT:      -8.2      1.399      2.085
REMARK  3 active torsions:
REMARK  status: ('A' for Active; 'I' for Inactive)
REMARK       I    between atoms: C_2  and  N_3 
REMARK    1  A    between atoms: N_3  and  N_4 
REMARK       I    between atoms: N_4  and  C_5 
REMARK    2  A    between atoms: C_5  and  C_6 
REMARK    3  A    between atoms: C_11  and  C_12 
ROOT
HETATM    1  C   UNL     1      26.944  45.540  53.560  1.00  0.00     0.115 A 
HETATM    2  N   UNL     1      27.302  46.361  54.613  1.00  0.00    -0.350 N 
HETATM    3  H   UNL     1      26.872  47.252  54.816  1.00  0.00     0.166 HD
HETATM    4  C   UNL     1      28.358  45.843  55.320  1.00  0.00     0.044 A 
HETATM    5  C   UNL     1      28.713  44.647  54.703  1.00  0.00     0.005 A 
HETATM    6  C   UNL     1      27.827  44.464  53.590  1.00  0.00     0.019 A 
HETATM    7  C   UNL     1      29.022  46.347  56.445  1.00  0.00     0.032 A 
HETATM    8  C   UNL     1      30.083  45.596  56.960  1.00  0.00     0.021 A 
HETATM    9  C   UNL     1      30.454  44.393  56.366  1.00  0.00     0.012 A 
HETATM   10 BR   UNL     1      31.896  43.403  57.091  1.00  0.00    -0.051 Br
HETATM   11  C   UNL     1      29.783  43.902  55.243  1.00  0.00     0.033 A 
ENDROOT
BRANCH   1  12
HETATM   12  C   UNL     1      25.884  45.859  52.625  1.00  0.00     0.287 C 
HETATM   13  N   UNL     1      24.967  44.836  52.432  1.00  0.00    -0.262 N 
HETATM   14  H   UNL     1      25.211  43.867  52.626  1.00  0.00     0.190 HD
HETATM   15  O   UNL     1      25.767  46.927  52.025  1.00  0.00    -0.264 OA
BRANCH  13  16
HETATM   16  N   UNL     1      23.994  45.009  51.432  1.00  0.00    -0.268 N 
HETATM   17  C   UNL     1      23.736  43.932  50.613  1.00  0.00     0.232 C 
HETATM   18  C   UNL     1      22.810  44.226  49.466  1.00  0.00     0.119 C 
HETATM   19  O   UNL     1      24.208  42.816  50.819  1.00  0.00    -0.272 OA
HETATM   20  H   UNL     1      23.829  45.973  51.140  1.00  0.00     0.190 HD
ENDBRANCH  13  16
ENDBRANCH   1  12
BRANCH   6  21
HETATM   21  C   UNL     1      27.820  43.361  52.641  1.00  0.00    -0.023 A 
HETATM   22  C   UNL     1      27.761  43.602  51.262  1.00  0.00     0.012 A 
HETATM   23  C   UNL     1      27.720  42.534  50.363  1.00  0.00     0.001 A 
HETATM   24  C   UNL     1      27.731  41.222  50.836  1.00  0.00     0.000 A 
HETATM   25  C   UNL     1      27.783  40.975  52.206  1.00  0.00     0.001 A 
HETATM   26  C   UNL     1      27.828  42.041  53.107  1.00  0.00     0.012 A 
ENDBRANCH   6  21
TORSDOF 3
ENDMDL
MODEL 8
REMARK VINA RESULT:      -8.2      3.729      6.172
REMARK  3 active torsions:
REMARK  status: ('A' for Active; 'I' for Inactive)
REMARK       I    between atoms: C_2  and  N_3 
REMARK    1  A    between atoms: N_3  and  N_4 
REMARK       I    between atoms: N_4  and  C_5 
REMARK    2  A    between atoms: C_5  and  C_6 
REMARK    3  A    between atoms: C_11  and  C_12 
ROOT
HETATM    1  C   UNL     1      24.396  45.506  50.124  1.00  0.00     0.115 A 
HETATM    2  N   UNL     1      24.353  44.633  51.193  1.00  0.00    -0.350 N 
HETATM    3  H   UNL     1      23.853  43.754  51.196  1.00  0.00     0.166 HD
HETATM    4  C   UNL     1      25.028  45.130  52.279  1.00  0.00     0.044 A 
HETATM    5  C   UNL     1      25.521  46.380  51.913  1.00  0.00     0.005 A 
HETATM    6  C   UNL     1      25.113  46.617  50.559  1.00  0.00     0.019 A 
HETATM    7  C   UNL     1      25.228  44.574  53.548  1.00  0.00     0.032 A 
HETATM    8  C   UNL     1      25.965  45.320  54.473  1.00  0.00     0.021 A 
HETATM    9  C   UNL     1      26.476  46.569  54.130  1.00  0.00     0.012 A 
HETATM   10 BR   UNL     1      27.470  47.551  55.407  1.00  0.00    -0.051 Br
HETATM   11  C   UNL     1      26.268  47.113  52.860  1.00  0.00     0.033 A 
ENDROOT
BRANCH   1  12
HETATM   12  C   UNL     1      23.734  45.252  48.859  1.00  0.00     0.287 C 
HETATM   13  N   UNL     1      24.207  44.138  48.182  1.00  0.00    -0.262 N 
HETATM   14  H   UNL     1      25.139  43.769  48.362  1.00  0.00     0.190 HD
HETATM   15  O   UNL     1      22.831  45.939  48.382  1.00  0.00    -0.264 OA
BRANCH  13  16
HETATM   16  N   UNL     1      23.723  43.906  46.883  1.00  0.00    -0.268 N 
HETATM   17  C   UNL     1      22.753  42.939  46.737  1.00  0.00     0.232 C 
HETATM   18  C   UNL     1      22.394  42.624  45.311  1.00  0.00     0.119 C 
HETATM   19  O   UNL     1      22.211  42.395  47.697  1.00  0.00    -0.272 OA
HETATM   20  H   UNL     1      24.352  44.173  46.124  1.00  0.00     0.190 HD
ENDBRANCH  13  16
ENDBRANCH   1  12
BRANCH   6  21
HETATM   21  C   UNL     1      25.385  47.796  49.750  1.00  0.00    -0.023 A 
HETATM   22  C   UNL     1      24.337  48.581  49.253  1.00  0.00     0.012 A 
HETATM   23  C   UNL     1      24.611  49.691  48.449  1.00  0.00     0.001 A 
HETATM   24  C   UNL     1      25.930  50.016  48.133  1.00  0.00     0.000 A 
HETATM   25  C   UNL     1      26.976  49.236  48.619  1.00  0.00     0.001 A 
HETATM   26  C   UNL     1      26.706  48.129  49.425  1.00  0.00     0.012 A 
ENDBRANCH   6  21
TORSDOF 3
ENDMDL
MODEL 9
REMARK VINA RESULT:      -7.8     14.775     17.483
REMARK  3 active torsions:
REMARK  status: ('A' for Active; 'I' for Inactive)
REMARK       I    between atoms: C_2  and  N_3 
REMARK    1  A    between atoms: N_3  and  N_4 
REMARK       I    between atoms: N_4  and  C_5 
REMARK    2  A    between atoms: C_5  and  C_6 
REMARK    3  A    between atoms: C_11  and  C_12 
ROOT
HETATM    1  C   UNL     1      38.601  45.655  64.422  1.00  0.00     0.115 A 
HETATM    2  N   UNL     1      39.552  44.783  63.926  1.00  0.00    -0.350 N 
HETATM    3  H   UNL     1      39.343  43.905  63.472  1.00  0.00     0.166 HD
HETATM    4  C   UNL     1      40.825  45.229  64.177  1.00  0.00     0.044 A 
HETATM    5  C   UNL     1      40.706  46.429  64.873  1.00  0.00     0.005 A 
HETATM    6  C   UNL     1      39.304  46.689  65.034  1.00  0.00     0.019 A 
HETATM    7  C   UNL     1      42.061  44.658  63.850  1.00  0.00     0.032 A 
HETATM    8  C   UNL     1      43.215  45.344  64.242  1.00  0.00     0.021 A 
HETATM    9  C   UNL     1      43.123  46.549  64.933  1.00  0.00     0.012 A 
HETATM   10 BR   UNL     1      44.706  47.449  65.447  1.00  0.00    -0.051 Br
HETATM   11  C   UNL     1      41.883  47.108  65.254  1.00  0.00     0.033 A 
ENDROOT
BRANCH   1  12
HETATM   12  C   UNL     1      37.174  45.415  64.330  1.00  0.00     0.287 C 
HETATM   13  N   UNL     1      36.730  44.330  65.071  1.00  0.00    -0.262 N 
HETATM   14  H   UNL     1      37.364  43.580  65.339  1.00  0.00     0.190 HD
HETATM   15  O   UNL     1      36.386  46.084  63.663  1.00  0.00    -0.264 OA
BRANCH  13  16
HETATM   16  N   UNL     1      35.388  43.940  64.920  1.00  0.00    -0.268 N 
HETATM   17  C   UNL     1      34.741  43.468  66.042  1.00  0.00     0.232 C 
HETATM   18  C   UNL     1      33.366  42.916  65.785  1.00  0.00     0.119 C 
HETATM   19  O   UNL     1      35.241  43.516  67.164  1.00  0.00    -0.272 OA
HETATM   20  H   UNL     1      35.108  43.678  63.974  1.00  0.00     0.190 HD
ENDBRANCH  13  16
ENDBRANCH   1  12
BRANCH   6  21
HETATM   21  C   UNL     1      38.689  47.823  65.706  1.00  0.00    -0.023 A 
HETATM   22  C   UNL     1      38.535  49.050  65.047  1.00  0.00     0.012 A 
HETATM   23  C   UNL     1      37.974  50.141  65.715  1.00  0.00     0.001 A 
HETATM   24  C   UNL     1      37.572  50.015  67.045  1.00  0.00     0.000 A 
HETATM   25  C   UNL     1      37.728  48.799  67.708  1.00  0.00     0.001 A 
HETATM   26  C   UNL     1      38.285  47.707  67.042  1.00  0.00     0.012 A 
ENDBRANCH   6  21
TORSDOF 3
ENDMDL
MODEL 10
REMARK VINA RESULT:      -7.8     13.247     14.395
REMARK  3 active torsions:
REMARK  status: ('A' for Active; 'I' for Inactive)
REMARK       I    between atoms: C_2  and  N_3 
REMARK    1  A    between atoms: N_3  and  N_4 
REMARK       I    between atoms: N_4  and  C_5 
REMARK    2  A    between atoms: C_5  and  C_6 
REMARK    3  A    between atoms: C_11  and  C_12 
ROOT
HETATM    1  C   UNL     1      27.608  50.619  39.290  1.00  0.00     0.115 A 
HETATM    2  N   UNL     1      28.001  51.923  39.521  1.00  0.00    -0.350 N 
HETATM    3  H   UNL     1      27.616  52.730  39.049  1.00  0.00     0.166 HD
HETATM    4  C   UNL     1      29.023  51.988  40.434  1.00  0.00     0.044 A 
HETATM    5  C   UNL     1      29.320  50.680  40.805  1.00  0.00     0.005 A 
HETATM    6  C   UNL     1      28.434  49.820  40.076  1.00  0.00     0.019 A 
HETATM    7  C   UNL     1      29.705  53.099  40.946  1.00  0.00     0.032 A 
HETATM    8  C   UNL     1      30.722  52.861  41.876  1.00  0.00     0.021 A 
HETATM    9  C   UNL     1      31.034  51.563  42.270  1.00  0.00     0.012 A 
HETATM   10 BR   UNL     1      32.416  51.280  43.531  1.00  0.00    -0.051 Br
HETATM   11  C   UNL     1      30.346  50.463  41.750  1.00  0.00     0.033 A 
ENDROOT
BRANCH   1  12
HETATM   12  C   UNL     1      26.573  50.254  38.343  1.00  0.00     0.287 C 
HETATM   13  N   UNL     1      25.281  50.459  38.804  1.00  0.00    -0.262 N 
HETATM   14  H   UNL     1      25.078  50.503  39.801  1.00  0.00     0.190 HD
HETATM   15  O   UNL     1      26.772  49.793  37.220  1.00  0.00    -0.264 OA
BRANCH  13  16
HETATM   16  N   UNL     1      24.220  49.994  38.008  1.00  0.00    -0.268 N 
HETATM   17  C   UNL     1      23.482  48.938  38.498  1.00  0.00     0.232 C 
HETATM   18  C   UNL     1      22.471  48.382  37.534  1.00  0.00     0.119 C 
HETATM   19  O   UNL     1      23.627  48.502  39.638  1.00  0.00    -0.272 OA
HETATM   20  H   UNL     1      24.297  50.194  37.010  1.00  0.00     0.190 HD
ENDBRANCH  13  16
ENDBRANCH   1  12
BRANCH   6  21
HETATM   21  C   UNL     1      28.376  48.367  40.126  1.00  0.00    -0.023 A 
HETATM   22  C   UNL     1      29.303  47.588  39.421  1.00  0.00     0.012 A 
HETATM   23  C   UNL     1      29.216  46.194  39.450  1.00  0.00     0.001 A 
HETATM   24  C   UNL     1      28.199  45.572  40.176  1.00  0.00     0.000 A 
HETATM   25  C   UNL     1      27.271  46.341  40.874  1.00  0.00     0.001 A 
HETATM   26  C   UNL     1      27.358  47.734  40.849  1.00  0.00     0.012 A 
ENDBRANCH   6  21
TORSDOF 3
ENDMDL
