MODEL 1
REMARK VINA RESULT:      -9.1      0.000      0.000
REMARK  2 active torsions:
REMARK  status: ('A' for Active; 'I' for Inactive)
REMARK       I    between atoms: N_5  and  C_6 
REMARK    1  A    between atoms: C_6  and  C_7 
REMARK    2  A    between atoms: N_11  and  C_12 
ROOT
HETATM    1  C   UNL     1      28.041  45.861  55.975  1.00  0.00     0.050 C 
HETATM    2  C   UNL     1      27.282  46.276  54.745  1.00  0.00    -0.030 A 
HETATM    3  C   UNL     1      27.305  45.534  53.548  1.00  0.00     0.087 A 
HETATM    4  C   UNL     1      26.565  45.978  52.434  1.00  0.00     0.160 A 
HETATM    5  N   UNL     1      26.626  45.259  51.207  1.00  0.00    -0.287 N 
HETATM    6  C   UNL     1      25.951  45.559  50.009  1.00  0.00     0.263 C 
HETATM    7  O   UNL     1      25.906  44.718  49.104  1.00  0.00    -0.267 OA
HETATM    8  C   UNL     1      27.309  43.969  51.194  1.00  0.00     0.237 C 
HETATM    9  C   UNL     1      28.117  43.549  52.403  1.00  0.00     0.240 C 
HETATM   10  O   UNL     1      28.773  42.510  52.436  1.00  0.00    -0.271 OA
HETATM   11  N   UNL     1      28.061  44.357  53.495  1.00  0.00    -0.322 N 
HETATM   12  N   UNL     1      25.795  47.078  52.523  1.00  0.00    -0.241 NA
HETATM   13  C   UNL     1      25.775  47.781  53.675  1.00  0.00     0.119 A 
HETATM   14  C   UNL     1      26.497  47.429  54.795  1.00  0.00     0.028 A 
HETATM   15  H   UNL     1      28.585  44.033  54.298  1.00  0.00     0.169 HD
ENDROOT
BRANCH   6  16
HETATM   16  C   UNL     1      25.284  46.830  49.785  1.00  0.00     0.076 C 
HETATM   17  C   UNL     1      25.900  48.078  49.505  1.00  0.00     0.068 C 
HETATM   18  C   UNL     1      27.349  48.370  49.377  1.00  0.00     0.073 C 
HETATM   19  N   UNL     1      25.003  49.056  49.343  1.00  0.00    -0.172 NA
HETATM   20  N   UNL     1      23.797  48.451  49.489  1.00  0.00    -0.244 N 
HETATM   21  C   UNL     1      23.945  47.146  49.905  1.00  0.00     0.138 C 
BRANCH  20  22
HETATM   22  C   UNL     1      22.592  49.150  49.199  1.00  0.00     0.058 A 
HETATM   23  C   UNL     1      22.614  50.552  49.117  1.00  0.00     0.031 A 
HETATM   24  C   UNL     1      21.455  51.258  48.788  1.00  0.00     0.002 A 
HETATM   25  C   UNL     1      20.268  50.573  48.541  1.00  0.00     0.000 A 
HETATM   26  C   UNL     1      20.237  49.182  48.625  1.00  0.00     0.002 A 
HETATM   27  C   UNL     1      21.393  48.468  48.954  1.00  0.00     0.031 A 
ENDBRANCH  20  22
ENDBRANCH   6  16
TORSDOF 2
ENDMDL
MODEL 2
REMARK VINA RESULT:      -8.9      3.485      5.226
REMARK  2 active torsions:
REMARK  status: ('A' for Active; 'I' for Inactive)
REMARK       I    between atoms: N_5  and  C_6 
REMARK    1  A    between atoms: C_6  and  C_7 
REMARK    2  A    between atoms: N_11  and  C_12 
ROOT
HETATM    1  C   UNL     1      30.649  43.023  55.367  1.00  0.00     0.050 C 
HETATM    2  C   UNL     1      29.646  43.522  54.364  1.00  0.00    -0.030 A 
HETATM    3  C   UNL     1      28.785  44.607  54.621  1.00  0.00     0.087 A 
HETATM    4  C   UNL     1      27.872  45.027  53.633  1.00  0.00     0.160 A 
HETATM    5  N   UNL     1      26.965  46.089  53.907  1.00  0.00    -0.287 N 
HETATM    6  C   UNL     1      26.001  46.632  53.037  1.00  0.00     0.263 C 
HETATM    7  O   UNL     1      25.454  47.704  53.321  1.00  0.00    -0.267 OA
HETATM    8  C   UNL     1      27.138  46.844  55.144  1.00  0.00     0.237 C 
HETATM    9  C   UNL     1      28.109  46.337  56.189  1.00  0.00     0.240 C 
HETATM   10  O   UNL     1      28.254  46.882  57.282  1.00  0.00    -0.271 OA
HETATM   11  N   UNL     1      28.864  45.256  55.859  1.00  0.00    -0.322 N 
HETATM   12  N   UNL     1      27.853  44.429  52.427  1.00  0.00    -0.241 NA
HETATM   13  C   UNL     1      28.684  43.394  52.187  1.00  0.00     0.119 A 
HETATM   14  C   UNL     1      29.580  42.906  53.114  1.00  0.00     0.028 A 
HETATM   15  H   UNL     1      29.526  44.961  56.565  1.00  0.00     0.169 HD
ENDROOT
BRANCH   6  16
HETATM   16  C   UNL     1      25.616  45.984  51.795  1.00  0.00     0.076 C 
HETATM   17  C   UNL     1      25.849  46.457  50.479  1.00  0.00     0.068 C 
HETATM   18  C   UNL     1      26.533  47.709  50.069  1.00  0.00     0.073 C 
HETATM   19  N   UNL     1      25.376  45.619  49.551  1.00  0.00    -0.172 NA
HETATM   20  N   UNL     1      24.853  44.581  50.254  1.00  0.00    -0.244 N 
HETATM   21  C   UNL     1      24.851  44.849  51.605  1.00  0.00     0.138 C 
BRANCH  20  22
HETATM   22  C   UNL     1      24.418  43.400  49.591  1.00  0.00     0.058 A 
HETATM   23  C   UNL     1      23.185  43.404  48.917  1.00  0.00     0.031 A 
HETATM   24  C   UNL     1      22.758  42.272  48.220  1.00  0.00     0.002 A 
HETATM   25  C   UNL     1      23.554  41.130  48.191  1.00  0.00     0.000 A 
HETATM   26  C   UNL     1      24.777  41.116  48.861  1.00  0.00     0.002 A 
HETATM   27  C   UNL     1      25.212  42.246  49.561  1.00  0.00     0.031 A 
ENDBRANCH  20  22
ENDBRANCH   6  16
TORSDOF 2
ENDMDL
MODEL 3
REMARK VINA RESULT:      -8.8      2.407      7.443
REMARK  2 active torsions:
REMARK  status: ('A' for Active; 'I' for Inactive)
REMARK       I    between atoms: N_5  and  C_6 
REMARK    1  A    between atoms: C_6  and  C_7 
REMARK    2  A    between atoms: N_11  and  C_12 
ROOT
HETATM    1  C   UNL     1      23.872  49.337  48.577  1.00  0.00     0.050 C 
HETATM    2  C   UNL     1      24.552  48.146  49.193  1.00  0.00    -0.030 A 
HETATM    3  C   UNL     1      23.911  46.902  49.356  1.00  0.00     0.087 A 
HETATM    4  C   UNL     1      24.609  45.824  49.936  1.00  0.00     0.160 A 
HETATM    5  N   UNL     1      23.950  44.581  50.150  1.00  0.00    -0.287 N 
HETATM    6  C   UNL     1      24.498  43.410  50.707  1.00  0.00     0.263 C 
HETATM    7  O   UNL     1      23.886  42.341  50.609  1.00  0.00    -0.267 OA
HETATM    8  C   UNL     1      22.617  44.399  49.585  1.00  0.00     0.237 C 
HETATM    9  C   UNL     1      21.893  45.594  49.000  1.00  0.00     0.240 C 
HETATM   10  O   UNL     1      20.743  45.529  48.570  1.00  0.00    -0.271 OA
HETATM   11  N   UNL     1      22.586  46.761  48.926  1.00  0.00    -0.322 N 
HETATM   12  N   UNL     1      25.901  45.962  50.287  1.00  0.00    -0.241 NA
HETATM   13  C   UNL     1      26.509  47.155  50.123  1.00  0.00     0.119 A 
HETATM   14  C   UNL     1      25.883  48.262  49.595  1.00  0.00     0.028 A 
HETATM   15  H   UNL     1      22.087  47.531  48.501  1.00  0.00     0.169 HD
ENDROOT
BRANCH   6  16
HETATM   16  C   UNL     1      25.776  43.398  51.398  1.00  0.00     0.076 C 
HETATM   17  C   UNL     1      27.005  42.886  50.908  1.00  0.00     0.068 C 
HETATM   18  C   UNL     1      27.268  42.252  49.592  1.00  0.00     0.073 C 
HETATM   19  N   UNL     1      27.999  43.035  51.790  1.00  0.00    -0.172 NA
HETATM   20  N   UNL     1      27.433  43.668  52.849  1.00  0.00    -0.244 N 
HETATM   21  C   UNL     1      26.067  43.760  52.699  1.00  0.00     0.138 C 
BRANCH  20  22
HETATM   22  C   UNL     1      28.236  44.161  53.915  1.00  0.00     0.058 A 
HETATM   23  C   UNL     1      29.382  43.445  54.301  1.00  0.00     0.031 A 
HETATM   24  C   UNL     1      30.211  43.933  55.314  1.00  0.00     0.002 A 
HETATM   25  C   UNL     1      29.903  45.134  55.949  1.00  0.00     0.000 A 
HETATM   26  C   UNL     1      28.766  45.848  55.574  1.00  0.00     0.002 A 
HETATM   27  C   UNL     1      27.931  45.366  54.561  1.00  0.00     0.031 A 
ENDBRANCH  20  22
ENDBRANCH   6  16
TORSDOF 2
ENDMDL
MODEL 4
REMARK VINA RESULT:      -8.7      1.456      2.332
REMARK  2 active torsions:
REMARK  status: ('A' for Active; 'I' for Inactive)
REMARK       I    between atoms: N_5  and  C_6 
REMARK    1  A    between atoms: C_6  and  C_7 
REMARK    2  A    between atoms: N_11  and  C_12 
ROOT
HETATM    1  C   UNL     1      28.524  46.130  56.211  1.00  0.00     0.050 C 
HETATM    2  C   UNL     1      27.676  46.036  54.973  1.00  0.00    -0.030 A 
HETATM    3  C   UNL     1      27.952  45.133  53.927  1.00  0.00     0.087 A 
HETATM    4  C   UNL     1      27.112  45.092  52.796  1.00  0.00     0.160 A 
HETATM    5  N   UNL     1      27.416  44.218  51.715  1.00  0.00    -0.287 N 
HETATM    6  C   UNL     1      26.685  44.050  50.523  1.00  0.00     0.263 C 
HETATM    7  O   UNL     1      26.929  43.089  49.786  1.00  0.00    -0.267 OA
HETATM    8  C   UNL     1      28.490  43.246  51.892  1.00  0.00     0.237 C 
HETATM    9  C   UNL     1      29.386  43.349  53.108  1.00  0.00     0.240 C 
HETATM   10  O   UNL     1      30.352  42.609  53.287  1.00  0.00    -0.271 OA
HETATM   11  N   UNL     1      29.058  44.283  54.041  1.00  0.00    -0.322 N 
HETATM   12  N   UNL     1      26.019  45.875  52.733  1.00  0.00    -0.241 NA
HETATM   13  C   UNL     1      25.759  46.733  53.741  1.00  0.00     0.119 A 
HETATM   14  C   UNL     1      26.551  46.853  54.862  1.00  0.00     0.028 A 
HETATM   15  H   UNL     1      29.656  44.305  54.856  1.00  0.00     0.169 HD
ENDROOT
BRANCH   6  16
HETATM   16  C   UNL     1      25.634  44.966  50.116  1.00  0.00     0.076 C 
HETATM   17  C   UNL     1      24.242  44.699  50.068  1.00  0.00     0.068 C 
HETATM   18  C   UNL     1      23.544  43.436  50.418  1.00  0.00     0.073 C 
HETATM   19  N   UNL     1      23.539  45.759  49.656  1.00  0.00    -0.172 NA
HETATM   20  N   UNL     1      24.464  46.733  49.458  1.00  0.00    -0.244 N 
HETATM   21  C   UNL     1      25.742  46.236  49.582  1.00  0.00     0.138 C 
BRANCH  20  22
HETATM   22  C   UNL     1      24.063  48.072  49.189  1.00  0.00     0.058 A 
HETATM   23  C   UNL     1      25.034  49.022  48.831  1.00  0.00     0.031 A 
HETATM   24  C   UNL     1      24.659  50.330  48.517  1.00  0.00     0.002 A 
HETATM   25  C   UNL     1      23.317  50.700  48.560  1.00  0.00     0.000 A 
HETATM   26  C   UNL     1      22.348  49.764  48.919  1.00  0.00     0.002 A 
HETATM   27  C   UNL     1      22.715  48.452  49.234  1.00  0.00     0.031 A 
ENDBRANCH  20  22
ENDBRANCH   6  16
TORSDOF 2
ENDMDL
MODEL 5
REMARK VINA RESULT:      -8.5      4.077      6.608
REMARK  2 active torsions:
REMARK  status: ('A' for Active; 'I' for Inactive)
REMARK       I    between atoms: N_5  and  C_6 
REMARK    1  A    between atoms: C_6  and  C_7 
REMARK    2  A    between atoms: N_11  and  C_12 
ROOT
HETATM    1  C   UNL     1      31.188  43.610  56.403  1.00  0.00     0.050 C 
HETATM    2  C   UNL     1      30.342  43.681  55.163  1.00  0.00    -0.030 A 
HETATM    3  C   UNL     1      29.243  44.555  55.038  1.00  0.00     0.087 A 
HETATM    4  C   UNL     1      28.495  44.574  53.844  1.00  0.00     0.160 A 
HETATM    5  N   UNL     1      27.354  45.417  53.732  1.00  0.00    -0.287 N 
HETATM    6  C   UNL     1      26.507  45.562  52.617  1.00  0.00     0.263 C 
HETATM    7  O   UNL     1      25.706  46.502  52.575  1.00  0.00    -0.267 OA
HETATM    8  C   UNL     1      27.101  46.383  54.796  1.00  0.00     0.237 C 
HETATM    9  C   UNL     1      27.909  46.303  56.074  1.00  0.00     0.240 C 
HETATM   10  O   UNL     1      27.704  47.038  57.038  1.00  0.00    -0.271 OA
HETATM   11  N   UNL     1      28.922  45.397  56.109  1.00  0.00    -0.322 N 
HETATM   12  N   UNL     1      28.856  43.801  52.803  1.00  0.00    -0.241 NA
HETATM   13  C   UNL     1      29.912  42.971  52.928  1.00  0.00     0.119 A 
HETATM   14  C   UNL     1      30.671  42.872  54.075  1.00  0.00     0.028 A 
HETATM   15  H   UNL     1      29.464  45.390  56.963  1.00  0.00     0.169 HD
ENDROOT
BRANCH   6  16
HETATM   16  C   UNL     1      26.536  44.646  51.490  1.00  0.00     0.076 C 
HETATM   17  C   UNL     1      26.788  44.972  50.132  1.00  0.00     0.068 C 
HETATM   18  C   UNL     1      27.077  46.309  49.555  1.00  0.00     0.073 C 
HETATM   19  N   UNL     1      26.751  43.895  49.341  1.00  0.00    -0.172 NA
HETATM   20  N   UNL     1      26.502  42.856  50.178  1.00  0.00    -0.244 N 
HETATM   21  C   UNL     1      26.219  43.302  51.450  1.00  0.00     0.138 C 
BRANCH  20  22
HETATM   22  C   UNL     1      26.575  41.514  49.712  1.00  0.00     0.058 A 
HETATM   23  C   UNL     1      27.493  40.630  50.302  1.00  0.00     0.031 A 
HETATM   24  C   UNL     1      27.551  39.296  49.893  1.00  0.00     0.002 A 
HETATM   25  C   UNL     1      26.697  38.835  48.895  1.00  0.00     0.000 A 
HETATM   26  C   UNL     1      25.785  39.707  48.301  1.00  0.00     0.002 A 
HETATM   27  C   UNL     1      25.721  41.044  48.705  1.00  0.00     0.031 A 
ENDBRANCH  20  22
ENDBRANCH   6  16
TORSDOF 2
ENDMDL
MODEL 6
REMARK VINA RESULT:      -8.3      4.443      8.258
REMARK  2 active torsions:
REMARK  status: ('A' for Active; 'I' for Inactive)
REMARK       I    between atoms: N_5  and  C_6 
REMARK    1  A    between atoms: C_6  and  C_7 
REMARK    2  A    between atoms: N_11  and  C_12 
ROOT
HETATM    1  C   UNL     1      26.313  38.911  46.435  1.00  0.00     0.050 C 
HETATM    2  C   UNL     1      26.532  39.853  47.586  1.00  0.00    -0.030 A 
HETATM    3  C   UNL     1      25.486  40.584  48.183  1.00  0.00     0.087 A 
HETATM    4  C   UNL     1      25.760  41.446  49.264  1.00  0.00     0.160 A 
HETATM    5  N   UNL     1      24.716  42.225  49.836  1.00  0.00    -0.287 N 
HETATM    6  C   UNL     1      24.816  43.124  50.915  1.00  0.00     0.263 C 
HETATM    7  O   UNL     1      23.789  43.544  51.459  1.00  0.00    -0.267 OA
HETATM    8  C   UNL     1      23.345  41.965  49.409  1.00  0.00     0.237 C 
HETATM    9  C   UNL     1      23.101  41.056  48.223  1.00  0.00     0.240 C 
HETATM   10  O   UNL     1      21.979  40.846  47.765  1.00  0.00    -0.271 OA
HETATM   11  N   UNL     1      24.184  40.429  47.691  1.00  0.00    -0.322 N 
HETATM   12  N   UNL     1      27.008  41.536  49.762  1.00  0.00    -0.241 NA
HETATM   13  C   UNL     1      28.003  40.829  49.188  1.00  0.00     0.119 A 
HETATM   14  C   UNL     1      27.818  39.992  48.108  1.00  0.00     0.028 A 
HETATM   15  H   UNL     1      23.985  39.803  46.922  1.00  0.00     0.169 HD
ENDROOT
BRANCH   6  16
HETATM   16  C   UNL     1      26.093  43.583  51.433  1.00  0.00     0.076 C 
HETATM   17  C   UNL     1      26.962  44.534  50.838  1.00  0.00     0.068 C 
HETATM   18  C   UNL     1      26.770  45.272  49.565  1.00  0.00     0.073 C 
HETATM   19  N   UNL     1      28.059  44.744  51.574  1.00  0.00    -0.172 NA
HETATM   20  N   UNL     1      27.902  43.952  52.665  1.00  0.00    -0.244 N 
HETATM   21  C   UNL     1      26.803  43.133  52.530  1.00  0.00     0.138 C 
BRANCH  20  22
HETATM   22  C   UNL     1      28.795  44.049  53.769  1.00  0.00     0.058 A 
HETATM   23  C   UNL     1      28.645  45.103  54.684  1.00  0.00     0.031 A 
HETATM   24  C   UNL     1      29.480  45.194  55.800  1.00  0.00     0.002 A 
HETATM   25  C   UNL     1      30.470  44.237  56.009  1.00  0.00     0.000 A 
HETATM   26  C   UNL     1      30.628  43.189  55.103  1.00  0.00     0.002 A 
HETATM   27  C   UNL     1      29.796  43.091  53.984  1.00  0.00     0.031 A 
ENDBRANCH  20  22
ENDBRANCH   6  16
TORSDOF 2
ENDMDL
MODEL 7
REMARK VINA RESULT:      -8.2      3.584      5.497
REMARK  2 active torsions:
REMARK  status: ('A' for Active; 'I' for Inactive)
REMARK       I    between atoms: N_5  and  C_6 
REMARK    1  A    between atoms: C_6  and  C_7 
REMARK    2  A    between atoms: N_11  and  C_12 
ROOT
HETATM    1  C   UNL     1      21.734  42.532  46.628  1.00  0.00     0.050 C 
HETATM    2  C   UNL     1      21.940  43.991  46.929  1.00  0.00    -0.030 A 
HETATM    3  C   UNL     1      22.700  44.443  48.025  1.00  0.00     0.087 A 
HETATM    4  C   UNL     1      22.857  45.826  48.246  1.00  0.00     0.160 A 
HETATM    5  N   UNL     1      23.582  46.289  49.381  1.00  0.00    -0.287 N 
HETATM    6  C   UNL     1      23.836  47.625  49.743  1.00  0.00     0.263 C 
HETATM    7  O   UNL     1      24.678  47.873  50.613  1.00  0.00    -0.267 OA
HETATM    8  C   UNL     1      24.306  45.309  50.184  1.00  0.00     0.237 C 
HETATM    9  C   UNL     1      24.081  43.834  49.931  1.00  0.00     0.240 C 
HETATM   10  O   UNL     1      24.603  42.954  50.613  1.00  0.00    -0.271 OA
HETATM   11  N   UNL     1      23.295  43.501  48.872  1.00  0.00    -0.322 N 
HETATM   12  N   UNL     1      22.329  46.716  47.385  1.00  0.00    -0.241 NA
HETATM   13  C   UNL     1      21.606  46.275  46.336  1.00  0.00     0.119 A 
HETATM   14  C   UNL     1      21.381  44.941  46.073  1.00  0.00     0.028 A 
HETATM   15  H   UNL     1      23.190  42.508  48.709  1.00  0.00     0.169 HD
ENDROOT
BRANCH   6  16
HETATM   16  C   UNL     1      23.148  48.746  49.126  1.00  0.00     0.076 C 
HETATM   17  C   UNL     1      23.727  49.769  48.332  1.00  0.00     0.068 C 
HETATM   18  C   UNL     1      25.153  49.928  47.949  1.00  0.00     0.073 C 
HETATM   19  N   UNL     1      22.818  50.651  47.906  1.00  0.00    -0.172 NA
HETATM   20  N   UNL     1      21.637  50.198  48.398  1.00  0.00    -0.244 N 
HETATM   21  C   UNL     1      21.831  49.141  49.259  1.00  0.00     0.138 C 
BRANCH  20  22
HETATM   22  C   UNL     1      20.406  50.788  47.994  1.00  0.00     0.058 A 
HETATM   23  C   UNL     1      19.925  51.914  48.683  1.00  0.00     0.031 A 
HETATM   24  C   UNL     1      18.744  52.538  48.275  1.00  0.00     0.002 A 
HETATM   25  C   UNL     1      18.035  52.045  47.182  1.00  0.00     0.000 A 
HETATM   26  C   UNL     1      18.505  50.926  46.497  1.00  0.00     0.002 A 
HETATM   27  C   UNL     1      19.686  50.295  46.898  1.00  0.00     0.031 A 
ENDBRANCH  20  22
ENDBRANCH   6  16
TORSDOF 2
ENDMDL
MODEL 8
REMARK VINA RESULT:      -8.1     10.410     12.067
REMARK  2 active torsions:
REMARK  status: ('A' for Active; 'I' for Inactive)
REMARK       I    between atoms: N_5  and  C_6 
REMARK    1  A    between atoms: C_6  and  C_7 
REMARK    2  A    between atoms: N_11  and  C_12 
ROOT
HETATM    1  C   UNL     1      32.928  51.652  43.842  1.00  0.00     0.050 C 
HETATM    2  C   UNL     1      31.919  50.905  43.014  1.00  0.00    -0.030 A 
HETATM    3  C   UNL     1      31.129  51.530  42.030  1.00  0.00     0.087 A 
HETATM    4  C   UNL     1      30.205  50.768  41.285  1.00  0.00     0.160 A 
HETATM    5  N   UNL     1      29.368  51.403  40.325  1.00  0.00    -0.287 N 
HETATM    6  C   UNL     1      28.405  50.795  39.499  1.00  0.00     0.263 C 
HETATM    7  O   UNL     1      27.927  51.425  38.549  1.00  0.00    -0.267 OA
HETATM    8  C   UNL     1      29.624  52.803  40.003  1.00  0.00     0.237 C 
HETATM    9  C   UNL     1      30.602  53.590  40.851  1.00  0.00     0.240 C 
HETATM   10  O   UNL     1      30.815  54.789  40.682  1.00  0.00    -0.271 OA
HETATM   11  N   UNL     1      31.286  52.902  41.804  1.00  0.00    -0.322 N 
HETATM   12  N   UNL     1      30.112  49.438  41.474  1.00  0.00    -0.241 NA
HETATM   13  C   UNL     1      30.876  48.848  42.416  1.00  0.00     0.119 A 
HETATM   14  C   UNL     1      31.777  49.531  43.205  1.00  0.00     0.028 A 
HETATM   15  H   UNL     1      31.955  53.447  42.332  1.00  0.00     0.169 HD
ENDROOT
BRANCH   6  16
HETATM   16  C   UNL     1      27.942  49.434  39.710  1.00  0.00     0.076 C 
HETATM   17  C   UNL     1      28.567  48.242  39.262  1.00  0.00     0.068 C 
HETATM   18  C   UNL     1      29.823  48.109  38.483  1.00  0.00     0.073 C 
HETATM   19  N   UNL     1      27.889  47.149  39.630  1.00  0.00    -0.172 NA
HETATM   20  N   UNL     1      26.833  47.618  40.341  1.00  0.00    -0.244 N 
HETATM   21  C   UNL     1      26.761  48.992  40.274  1.00  0.00     0.138 C 
BRANCH  20  22
HETATM   22  C   UNL     1      25.983  46.726  41.054  1.00  0.00     0.058 A 
HETATM   23  C   UNL     1      26.552  45.672  41.786  1.00  0.00     0.031 A 
HETATM   24  C   UNL     1      25.742  44.811  42.530  1.00  0.00     0.002 A 
HETATM   25  C   UNL     1      24.362  44.995  42.548  1.00  0.00     0.000 A 
HETATM   26  C   UNL     1      23.789  46.037  41.820  1.00  0.00     0.002 A 
HETATM   27  C   UNL     1      24.593  46.903  41.073  1.00  0.00     0.031 A 
ENDBRANCH  20  22
ENDBRANCH   6  16
TORSDOF 2
ENDMDL
MODEL 9
REMARK VINA RESULT:      -8.0      3.004      5.045
REMARK  2 active torsions:
REMARK  status: ('A' for Active; 'I' for Inactive)
REMARK       I    between atoms: N_5  and  C_6 
REMARK    1  A    between atoms: C_6  and  C_7 
REMARK    2  A    between atoms: N_11  and  C_12 
ROOT
HETATM    1  C   UNL     1      31.679  42.916  55.604  1.00  0.00     0.050 C 
HETATM    2  C   UNL     1      30.452  43.499  54.960  1.00  0.00    -0.030 A 
HETATM    3  C   UNL     1      29.717  44.555  55.534  1.00  0.00     0.087 A 
HETATM    4  C   UNL     1      28.579  45.058  54.872  1.00  0.00     0.160 A 
HETATM    5  N   UNL     1      27.804  46.090  55.473  1.00  0.00    -0.287 N 
HETATM    6  C   UNL     1      26.651  46.705  54.950  1.00  0.00     0.263 C 
HETATM    7  O   UNL     1      26.226  47.745  55.463  1.00  0.00    -0.267 OA
HETATM    8  C   UNL     1      28.322  46.732  56.677  1.00  0.00     0.237 C 
HETATM    9  C   UNL     1      29.529  46.137  57.370  1.00  0.00     0.240 C 
HETATM   10  O   UNL     1      29.978  46.583  58.424  1.00  0.00    -0.271 OA
HETATM   11  N   UNL     1      30.143  45.092  56.754  1.00  0.00    -0.322 N 
HETATM   12  N   UNL     1      28.220  44.570  53.670  1.00  0.00    -0.241 NA
HETATM   13  C   UNL     1      28.932  43.562  53.125  1.00  0.00     0.119 A 
HETATM   14  C   UNL     1      30.035  42.996  53.727  1.00  0.00     0.028 A 
HETATM   15  H   UNL     1      30.966  44.737  57.225  1.00  0.00     0.169 HD
ENDROOT
BRANCH   6  16
HETATM   16  C   UNL     1      25.929  46.168  53.809  1.00  0.00     0.076 C 
HETATM   17  C   UNL     1      25.258  44.920  53.735  1.00  0.00     0.068 C 
HETATM   18  C   UNL     1      25.137  43.887  54.793  1.00  0.00     0.073 C 
HETATM   19  N   UNL     1      24.683  44.728  52.543  1.00  0.00    -0.172 NA
HETATM   20  N   UNL     1      24.953  45.857  51.840  1.00  0.00    -0.244 N 
HETATM   21  C   UNL     1      25.827  46.671  52.526  1.00  0.00     0.138 C 
BRANCH  20  22
HETATM   22  C   UNL     1      24.340  46.091  50.578  1.00  0.00     0.058 A 
HETATM   23  C   UNL     1      23.872  45.000  49.827  1.00  0.00     0.031 A 
HETATM   24  C   UNL     1      23.226  45.208  48.607  1.00  0.00     0.002 A 
HETATM   25  C   UNL     1      23.043  46.502  48.126  1.00  0.00     0.000 A 
HETATM   26  C   UNL     1      23.508  47.590  48.863  1.00  0.00     0.002 A 
HETATM   27  C   UNL     1      24.156  47.391  50.086  1.00  0.00     0.031 A 
ENDBRANCH  20  22
ENDBRANCH   6  16
TORSDOF 2
ENDMDL
MODEL 10
REMARK VINA RESULT:      -8.0     11.501     13.491
REMARK  2 active torsions:
REMARK  status: ('A' for Active; 'I' for Inactive)
REMARK       I    between atoms: N_5  and  C_6 
REMARK    1  A    between atoms: C_6  and  C_7 
REMARK    2  A    between atoms: N_11  and  C_12 
ROOT
HETATM    1  C   UNL     1      32.659  51.579  44.127  1.00  0.00     0.050 C 
HETATM    2  C   UNL     1      31.896  50.836  43.067  1.00  0.00    -0.030 A 
HETATM    3  C   UNL     1      31.335  51.473  41.943  1.00  0.00     0.087 A 
HETATM    4  C   UNL     1      30.636  50.714  40.983  1.00  0.00     0.160 A 
HETATM    5  N   UNL     1      30.024  51.361  39.872  1.00  0.00    -0.287 N 
HETATM    6  C   UNL     1      29.299  50.757  38.827  1.00  0.00     0.263 C 
HETATM    7  O   UNL     1      29.035  51.406  37.809  1.00  0.00    -0.267 OA
HETATM    8  C   UNL     1      30.301  52.777  39.657  1.00  0.00     0.237 C 
HETATM    9  C   UNL     1      31.028  53.558  40.732  1.00  0.00     0.240 C 
HETATM   10  O   UNL     1      31.234  54.768  40.650  1.00  0.00    -0.271 OA
HETATM   11  N   UNL     1      31.494  52.856  41.798  1.00  0.00    -0.322 N 
HETATM   12  N   UNL     1      30.546  49.377  41.107  1.00  0.00    -0.241 NA
HETATM   13  C   UNL     1      31.089  48.774  42.184  1.00  0.00     0.119 A 
HETATM   14  C   UNL     1      31.758  49.452  43.180  1.00  0.00     0.028 A 
HETATM   15  H   UNL     1      32.004  53.400  42.482  1.00  0.00     0.169 HD
ENDROOT
BRANCH   6  16
HETATM   16  C   UNL     1      28.846  49.377  38.886  1.00  0.00     0.076 C 
HETATM   17  C   UNL     1      27.582  48.914  39.333  1.00  0.00     0.068 C 
HETATM   18  C   UNL     1      26.442  49.721  39.837  1.00  0.00     0.073 C 
HETATM   19  N   UNL     1      27.476  47.584  39.254  1.00  0.00    -0.172 NA
HETATM   20  N   UNL     1      28.659  47.172  38.732  1.00  0.00    -0.244 N 
HETATM   21  C   UNL     1      29.553  48.216  38.644  1.00  0.00     0.138 C 
BRANCH  20  22
HETATM   22  C   UNL     1      28.845  45.819  38.330  1.00  0.00     0.058 A 
HETATM   23  C   UNL     1      28.672  44.792  39.273  1.00  0.00     0.031 A 
HETATM   24  C   UNL     1      28.804  43.455  38.892  1.00  0.00     0.002 A 
HETATM   25  C   UNL     1      29.109  43.133  37.572  1.00  0.00     0.000 A 
HETATM   26  C   UNL     1      29.286  44.147  36.631  1.00  0.00     0.002 A 
HETATM   27  C   UNL     1      29.156  45.488  37.005  1.00  0.00     0.031 A 
ENDBRANCH  20  22
ENDBRANCH   6  16
TORSDOF 2
ENDMDL
