MODEL 1
REMARK VINA RESULT:     -10.4      0.000      0.000
REMARK  3 active torsions:
REMARK  status: ('A' for Active; 'I' for Inactive)
REMARK    1  A    between atoms: C_3  and  N_4 
REMARK       I    between atoms: N_4  and  C_5 
REMARK    2  A    between atoms: C_5  and  C_6 
REMARK    3  A    between atoms: N_20  and  C_21 
ROOT
HETATM    1  N   UNL     1      26.359  45.595  51.560  1.00  0.00    -0.305 N 
HETATM    2  C   UNL     1      26.095  44.991  52.773  1.00  0.00     0.257 C 
HETATM    3  O   UNL     1      25.006  44.728  53.267  1.00  0.00    -0.267 OA
HETATM    4  H   UNL     1      27.307  45.630  51.226  1.00  0.00     0.170 HD
ENDROOT
BRANCH   2   5
HETATM    5  C   UNL     1      27.310  44.576  53.531  1.00  0.00     0.034 A 
HETATM    6  C   UNL     1      27.717  45.366  54.615  1.00  0.00     0.049 A 
HETATM    7  C   UNL     1      28.843  44.999  55.351  1.00  0.00     0.063 A 
HETATM    8  C   UNL     1      29.570  43.856  55.006  1.00  0.00     0.062 A 
HETATM    9  N   UNL     1      29.243  45.779  56.439  1.00  0.00    -0.317 N 
HETATM   10  N   UNL     1      30.691  43.492  55.754  1.00  0.00    -0.317 N 
HETATM   11  C   UNL     1      29.185  43.080  53.914  1.00  0.00     0.033 A 
HETATM   12  C   UNL     1      31.139  44.208  56.842  1.00  0.00     0.314 A 
HETATM   13  H   UNL     1      31.230  42.668  55.521  1.00  0.00     0.169 HD
HETATM   14  O   UNL     1      32.121  43.854  57.481  1.00  0.00    -0.262 OA
HETATM   15  C   UNL     1      30.340  45.480  57.219  1.00  0.00     0.314 A 
HETATM   16  O   UNL     1      30.666  46.181  58.168  1.00  0.00    -0.262 OA
HETATM   17  C   UNL     1      28.057  43.442  53.171  1.00  0.00     0.019 A 
HETATM   18  H   UNL     1      28.735  46.614  56.694  1.00  0.00     0.169 HD
ENDBRANCH   2   5
BRANCH   1  19
HETATM   19  C   UNL     1      25.406  46.106  50.699  1.00  0.00     0.158 A 
HETATM   20  C   UNL     1      24.571  45.315  49.870  1.00  0.00     0.003 A 
HETATM   21  C   UNL     1      24.489  43.841  49.742  1.00  0.00     0.054 C 
HETATM   22  C   UNL     1      23.786  46.233  49.203  1.00  0.00     0.129 A 
HETATM   23  N   UNL     1      24.186  47.491  49.594  1.00  0.00    -0.241 N 
HETATM   24  N   UNL     1      25.148  47.400  50.543  1.00  0.00    -0.149 NA
BRANCH  23  25
HETATM   25  C   UNL     1      23.699  48.773  49.200  1.00  0.00     0.079 A 
HETATM   26  C   UNL     1      24.449  49.741  48.511  1.00  0.00     0.062 A 
HETATM   27 CL   UNL     1      26.145  49.652  48.183  1.00  0.00    -0.082 Cl
HETATM   28  C   UNL     1      23.842  50.949  48.126  1.00  0.00     0.026 A 
HETATM   29  C   UNL     1      22.508  51.215  48.430  1.00  0.00     0.002 A 
HETATM   30  C   UNL     1      21.769  50.281  49.141  1.00  0.00     0.002 A 
HETATM   31  C   UNL     1      22.359  49.076  49.529  1.00  0.00     0.033 A 
ENDBRANCH  23  25
ENDBRANCH   1  19
TORSDOF 3
ENDMDL
MODEL 2
REMARK VINA RESULT:     -10.0      3.488      9.616
REMARK  3 active torsions:
REMARK  status: ('A' for Active; 'I' for Inactive)
REMARK    1  A    between atoms: C_3  and  N_4 
REMARK       I    between atoms: N_4  and  C_5 
REMARK    2  A    between atoms: C_5  and  C_6 
REMARK    3  A    between atoms: N_20  and  C_21 
ROOT
HETATM    1  N   UNL     1      25.558  46.241  51.285  1.00  0.00    -0.305 N 
HETATM    2  C   UNL     1      25.963  46.823  50.100  1.00  0.00     0.257 C 
HETATM    3  O   UNL     1      26.960  46.573  49.435  1.00  0.00    -0.267 OA
HETATM    4  H   UNL     1      24.647  46.460  51.652  1.00  0.00     0.170 HD
ENDROOT
BRANCH   2   5
HETATM    5  C   UNL     1      25.021  47.849  49.565  1.00  0.00     0.034 A 
HETATM    6  C   UNL     1      23.645  47.622  49.702  1.00  0.00     0.049 A 
HETATM    7  C   UNL     1      22.739  48.565  49.222  1.00  0.00     0.063 A 
HETATM    8  C   UNL     1      23.197  49.729  48.596  1.00  0.00     0.062 A 
HETATM    9  N   UNL     1      21.367  48.346  49.368  1.00  0.00    -0.317 N 
HETATM   10  N   UNL     1      22.283  50.673  48.126  1.00  0.00    -0.317 N 
HETATM   11  C   UNL     1      24.564  49.949  48.435  1.00  0.00     0.033 A 
HETATM   12  C   UNL     1      20.918  50.526  48.242  1.00  0.00     0.314 A 
HETATM   13  H   UNL     1      22.594  51.521  47.671  1.00  0.00     0.169 HD
HETATM   14  O   UNL     1      20.145  51.379  47.826  1.00  0.00    -0.262 OA
HETATM   15  C   UNL     1      20.409  49.233  48.926  1.00  0.00     0.314 A 
HETATM   16  O   UNL     1      19.213  49.015  49.069  1.00  0.00    -0.262 OA
HETATM   17  C   UNL     1      25.478  49.006  48.914  1.00  0.00     0.019 A 
HETATM   18  H   UNL     1      21.020  47.505  49.808  1.00  0.00     0.169 HD
ENDBRANCH   2   5
BRANCH   1  19
HETATM   19  C   UNL     1      26.278  45.303  51.999  1.00  0.00     0.158 A 
HETATM   20  C   UNL     1      26.051  43.904  51.936  1.00  0.00     0.003 A 
HETATM   21  C   UNL     1      25.075  43.141  51.125  1.00  0.00     0.054 C 
HETATM   22  C   UNL     1      26.992  43.368  52.791  1.00  0.00     0.129 A 
HETATM   23  N   UNL     1      27.691  44.411  53.356  1.00  0.00    -0.241 N 
HETATM   24  N   UNL     1      27.275  45.589  52.830  1.00  0.00    -0.149 NA
BRANCH  23  25
HETATM   25  C   UNL     1      28.760  44.397  54.301  1.00  0.00     0.079 A 
HETATM   26  C   UNL     1      28.985  45.383  55.275  1.00  0.00     0.062 A 
HETATM   27 CL   UNL     1      28.142  46.889  55.395  1.00  0.00    -0.082 Cl
HETATM   28  C   UNL     1      30.041  45.230  56.190  1.00  0.00     0.026 A 
HETATM   29  C   UNL     1      30.886  44.122  56.138  1.00  0.00     0.002 A 
HETATM   30  C   UNL     1      30.694  43.160  55.157  1.00  0.00     0.002 A 
HETATM   31  C   UNL     1      29.647  43.298  54.243  1.00  0.00     0.033 A 
ENDBRANCH  23  25
ENDBRANCH   1  19
TORSDOF 3
ENDMDL
MODEL 3
REMARK VINA RESULT:      -9.9      5.008     11.130
REMARK  3 active torsions:
REMARK  status: ('A' for Active; 'I' for Inactive)
REMARK    1  A    between atoms: C_3  and  N_4 
REMARK       I    between atoms: N_4  and  C_5 
REMARK    2  A    between atoms: C_5  and  C_6 
REMARK    3  A    between atoms: N_20  and  C_21 
ROOT
HETATM    1  N   UNL     1      23.001  49.189  49.023  1.00  0.00    -0.305 N 
HETATM    2  C   UNL     1      22.424  50.348  49.501  1.00  0.00     0.257 C 
HETATM    3  O   UNL     1      22.888  51.151  50.300  1.00  0.00    -0.267 OA
HETATM    4  H   UNL     1      22.554  48.694  48.270  1.00  0.00     0.170 HD
ENDROOT
BRANCH   2   5
HETATM    5  C   UNL     1      21.089  50.659  48.913  1.00  0.00     0.034 A 
HETATM    6  C   UNL     1      20.150  51.321  49.715  1.00  0.00     0.049 A 
HETATM    7  C   UNL     1      18.896  51.636  49.193  1.00  0.00     0.063 A 
HETATM    8  C   UNL     1      18.571  51.284  47.879  1.00  0.00     0.062 A 
HETATM    9  N   UNL     1      17.963  52.306  49.987  1.00  0.00    -0.317 N 
HETATM   10  N   UNL     1      17.316  51.610  47.362  1.00  0.00    -0.317 N 
HETATM   11  C   UNL     1      19.492  50.603  47.084  1.00  0.00     0.033 A 
HETATM   12  C   UNL     1      16.350  52.276  48.084  1.00  0.00     0.314 A 
HETATM   13  H   UNL     1      17.062  51.365  46.414  1.00  0.00     0.169 HD
HETATM   14  O   UNL     1      15.264  52.554  47.594  1.00  0.00    -0.262 OA
HETATM   15  C   UNL     1      16.706  52.658  49.542  1.00  0.00     0.314 A 
HETATM   16  O   UNL     1      15.909  53.246  50.261  1.00  0.00    -0.262 OA
HETATM   17  C   UNL     1      20.751  50.285  47.603  1.00  0.00     0.019 A 
HETATM   18  H   UNL     1      18.178  52.557  50.942  1.00  0.00     0.169 HD
ENDBRANCH   2   5
BRANCH   1  19
HETATM   19  C   UNL     1      24.208  48.665  49.446  1.00  0.00     0.158 A 
HETATM   20  C   UNL     1      25.469  49.036  48.914  1.00  0.00     0.003 A 
HETATM   21  C   UNL     1      25.798  50.029  47.865  1.00  0.00     0.054 C 
HETATM   22  C   UNL     1      26.376  48.281  49.630  1.00  0.00     0.129 A 
HETATM   23  N   UNL     1      25.665  47.479  50.494  1.00  0.00    -0.241 N 
HETATM   24  N   UNL     1      24.342  47.755  50.404  1.00  0.00    -0.149 NA
BRANCH  23  25
HETATM   25  C   UNL     1      26.125  46.519  51.445  1.00  0.00     0.079 A 
HETATM   26  C   UNL     1      26.591  45.233  51.127  1.00  0.00     0.062 A 
HETATM   27 CL   UNL     1      26.515  44.493  49.565  1.00  0.00    -0.082 Cl
HETATM   28  C   UNL     1      27.071  44.394  52.148  1.00  0.00     0.026 A 
HETATM   29  C   UNL     1      27.080  44.809  53.478  1.00  0.00     0.002 A 
HETATM   30  C   UNL     1      26.589  46.064  53.807  1.00  0.00     0.002 A 
HETATM   31  C   UNL     1      26.109  46.908  52.803  1.00  0.00     0.033 A 
ENDBRANCH  23  25
ENDBRANCH   1  19
TORSDOF 3
ENDMDL
MODEL 4
REMARK VINA RESULT:      -9.6      3.355      9.373
REMARK  3 active torsions:
REMARK  status: ('A' for Active; 'I' for Inactive)
REMARK    1  A    between atoms: C_3  and  N_4 
REMARK       I    between atoms: N_4  and  C_5 
REMARK    2  A    between atoms: C_5  and  C_6 
REMARK    3  A    between atoms: N_20  and  C_21 
ROOT
HETATM    1  N   UNL     1      26.469  44.364  51.589  1.00  0.00    -0.305 N 
HETATM    2  C   UNL     1      26.601  44.975  50.358  1.00  0.00     0.257 C 
HETATM    3  O   UNL     1      27.617  45.121  49.690  1.00  0.00    -0.267 OA
HETATM    4  H   UNL     1      25.548  44.204  51.960  1.00  0.00     0.170 HD
ENDROOT
BRANCH   2   5
HETATM    5  C   UNL     1      25.320  45.468  49.775  1.00  0.00     0.034 A 
HETATM    6  C   UNL     1      24.924  46.782  50.057  1.00  0.00     0.049 A 
HETATM    7  C   UNL     1      23.737  47.276  49.519  1.00  0.00     0.063 A 
HETATM    8  C   UNL     1      22.938  46.463  48.708  1.00  0.00     0.062 A 
HETATM    9  N   UNL     1      23.347  48.589  49.790  1.00  0.00    -0.317 N 
HETATM   10  N   UNL     1      21.755  46.968  48.166  1.00  0.00    -0.317 N 
HETATM   11  C   UNL     1      23.314  45.147  48.443  1.00  0.00     0.033 A 
HETATM   12  C   UNL     1      21.313  48.254  48.385  1.00  0.00     0.314 A 
HETATM   13  H   UNL     1      21.164  46.397  47.578  1.00  0.00     0.169 HD
HETATM   14  O   UNL     1      20.275  48.667  47.885  1.00  0.00    -0.262 OA
HETATM   15  C   UNL     1      22.192  49.152  49.290  1.00  0.00     0.314 A 
HETATM   16  O   UNL     1      21.876  50.307  49.544  1.00  0.00    -0.262 OA
HETATM   17  C   UNL     1      24.504  44.645  48.981  1.00  0.00     0.019 A 
HETATM   18  H   UNL     1      23.907  49.186  50.382  1.00  0.00     0.169 HD
ENDBRANCH   2   5
BRANCH   1  19
HETATM   19  C   UNL     1      27.511  43.870  52.350  1.00  0.00     0.158 A 
HETATM   20  C   UNL     1      28.197  42.658  52.076  1.00  0.00     0.003 A 
HETATM   21  C   UNL     1      28.006  41.695  50.967  1.00  0.00     0.054 C 
HETATM   22  C   UNL     1      29.147  42.572  53.073  1.00  0.00     0.129 A 
HETATM   23  N   UNL     1      28.982  43.655  53.906  1.00  0.00    -0.241 N 
HETATM   24  N   UNL     1      28.006  44.465  53.429  1.00  0.00    -0.149 NA
BRANCH  23  25
HETATM   25  C   UNL     1      29.702  44.030  55.080  1.00  0.00     0.079 A 
HETATM   26  C   UNL     1      29.562  45.255  55.752  1.00  0.00     0.062 A 
HETATM   27 CL   UNL     1      28.651  46.613  55.188  1.00  0.00    -0.082 Cl
HETATM   28  C   UNL     1      30.287  45.489  56.933  1.00  0.00     0.026 A 
HETATM   29  C   UNL     1      31.159  44.530  57.446  1.00  0.00     0.002 A 
HETATM   30  C   UNL     1      31.331  43.330  56.771  1.00  0.00     0.002 A 
HETATM   31  C   UNL     1      30.616  43.084  55.596  1.00  0.00     0.033 A 
ENDBRANCH  23  25
ENDBRANCH   1  19
TORSDOF 3
ENDMDL
MODEL 5
REMARK VINA RESULT:      -9.5      1.661      2.314
REMARK  3 active torsions:
REMARK  status: ('A' for Active; 'I' for Inactive)
REMARK    1  A    between atoms: C_3  and  N_4 
REMARK       I    between atoms: N_4  and  C_5 
REMARK    2  A    between atoms: C_5  and  C_6 
REMARK    3  A    between atoms: N_20  and  C_21 
ROOT
HETATM    1  N   UNL     1      26.481  46.651  51.174  1.00  0.00    -0.305 N 
HETATM    2  C   UNL     1      26.062  45.741  52.123  1.00  0.00     0.257 C 
HETATM    3  O   UNL     1      24.923  45.353  52.351  1.00  0.00    -0.267 OA
HETATM    4  H   UNL     1      27.466  46.776  51.016  1.00  0.00     0.170 HD
ENDROOT
BRANCH   2   5
HETATM    5  C   UNL     1      27.166  45.135  52.924  1.00  0.00     0.034 A 
HETATM    6  C   UNL     1      27.624  45.828  54.052  1.00  0.00     0.049 A 
HETATM    7  C   UNL     1      28.647  45.285  54.827  1.00  0.00     0.063 A 
HETATM    8  C   UNL     1      29.221  44.058  54.478  1.00  0.00     0.062 A 
HETATM    9  N   UNL     1      29.097  45.968  55.959  1.00  0.00    -0.317 N 
HETATM   10  N   UNL     1      30.239  43.517  55.265  1.00  0.00    -0.317 N 
HETATM   11  C   UNL     1      28.787  43.376  53.343  1.00  0.00     0.033 A 
HETATM   12  C   UNL     1      30.727  44.132  56.397  1.00  0.00     0.314 A 
HETATM   13  H   UNL     1      30.668  42.632  55.029  1.00  0.00     0.169 HD
HETATM   14  O   UNL     1      31.615  43.623  57.069  1.00  0.00    -0.262 OA
HETATM   15  C   UNL     1      30.098  45.494  56.780  1.00  0.00     0.314 A 
HETATM   16  O   UNL     1      30.471  46.116  57.766  1.00  0.00    -0.262 OA
HETATM   17  C   UNL     1      27.761  43.916  52.560  1.00  0.00     0.019 A 
HETATM   18  H   UNL     1      28.700  46.861  56.218  1.00  0.00     0.169 HD
ENDBRANCH   2   5
BRANCH   1  19
HETATM   19  C   UNL     1      25.648  47.378  50.344  1.00  0.00     0.158 A 
HETATM   20  C   UNL     1      26.086  48.418  49.486  1.00  0.00     0.003 A 
HETATM   21  C   UNL     1      27.453  48.939  49.251  1.00  0.00     0.054 C 
HETATM   22  C   UNL     1      24.936  48.843  48.852  1.00  0.00     0.129 A 
HETATM   23  N   UNL     1      23.883  48.116  49.360  1.00  0.00    -0.241 N 
HETATM   24  N   UNL     1      24.337  47.192  50.240  1.00  0.00    -0.149 NA
BRANCH  23  25
HETATM   25  C   UNL     1      22.492  48.171  49.045  1.00  0.00     0.079 A 
HETATM   26  C   UNL     1      21.679  49.306  49.190  1.00  0.00     0.062 A 
HETATM   27 CL   UNL     1      22.145  50.786  49.955  1.00  0.00    -0.082 Cl
HETATM   28  C   UNL     1      20.331  49.254  48.793  1.00  0.00     0.026 A 
HETATM   29  C   UNL     1      19.779  48.086  48.270  1.00  0.00     0.002 A 
HETATM   30  C   UNL     1      20.564  46.949  48.155  1.00  0.00     0.002 A 
HETATM   31  C   UNL     1      21.905  46.987  48.545  1.00  0.00     0.033 A 
ENDBRANCH  23  25
ENDBRANCH   1  19
TORSDOF 3
ENDMDL
MODEL 6
REMARK VINA RESULT:      -9.4      3.435      9.689
REMARK  3 active torsions:
REMARK  status: ('A' for Active; 'I' for Inactive)
REMARK    1  A    between atoms: C_3  and  N_4 
REMARK       I    between atoms: N_4  and  C_5 
REMARK    2  A    between atoms: C_5  and  C_6 
REMARK    3  A    between atoms: N_20  and  C_21 
ROOT
HETATM    1  N   UNL     1      26.963  44.614  52.089  1.00  0.00    -0.305 N 
HETATM    2  C   UNL     1      25.596  44.573  52.275  1.00  0.00     0.257 C 
HETATM    3  O   UNL     1      24.974  44.127  53.231  1.00  0.00    -0.267 OA
HETATM    4  H   UNL     1      27.336  45.128  51.309  1.00  0.00     0.170 HD
ENDROOT
BRANCH   2   5
HETATM    5  C   UNL     1      24.806  45.201  51.176  1.00  0.00     0.034 A 
HETATM    6  C   UNL     1      23.899  44.400  50.470  1.00  0.00     0.049 A 
HETATM    7  C   UNL     1      23.138  44.959  49.444  1.00  0.00     0.063 A 
HETATM    8  C   UNL     1      23.285  46.310  49.113  1.00  0.00     0.062 A 
HETATM    9  N   UNL     1      22.225  44.165  48.747  1.00  0.00    -0.317 N 
HETATM   10  N   UNL     1      22.513  46.863  48.090  1.00  0.00    -0.317 N 
HETATM   11  C   UNL     1      24.203  47.106  49.796  1.00  0.00     0.033 A 
HETATM   12  C   UNL     1      21.589  46.142  47.366  1.00  0.00     0.314 A 
HETATM   13  H   UNL     1      22.603  47.838  47.836  1.00  0.00     0.169 HD
HETATM   14  O   UNL     1      20.922  46.663  46.482  1.00  0.00    -0.262 OA
HETATM   15  C   UNL     1      21.432  44.644  47.726  1.00  0.00     0.314 A 
HETATM   16  O   UNL     1      20.640  43.924  47.133  1.00  0.00    -0.262 OA
HETATM   17  C   UNL     1      24.969  46.551  50.825  1.00  0.00     0.019 A 
HETATM   18  H   UNL     1      22.116  43.184  48.967  1.00  0.00     0.169 HD
ENDBRANCH   2   5
BRANCH   1  19
HETATM   19  C   UNL     1      27.900  44.060  52.940  1.00  0.00     0.158 A 
HETATM   20  C   UNL     1      28.427  42.750  52.804  1.00  0.00     0.003 A 
HETATM   21  C   UNL     1      28.152  41.722  51.773  1.00  0.00     0.054 C 
HETATM   22  C   UNL     1      29.320  42.632  53.850  1.00  0.00     0.129 A 
HETATM   23  N   UNL     1      29.270  43.799  54.579  1.00  0.00    -0.241 N 
HETATM   24  N   UNL     1      28.430  44.682  53.988  1.00  0.00    -0.149 NA
BRANCH  23  25
HETATM   25  C   UNL     1      29.989  44.182  55.750  1.00  0.00     0.079 A 
HETATM   26  C   UNL     1      29.698  45.305  56.542  1.00  0.00     0.062 A 
HETATM   27 CL   UNL     1      28.552  46.541  56.150  1.00  0.00    -0.082 Cl
HETATM   28  C   UNL     1      30.444  45.550  57.707  1.00  0.00     0.026 A 
HETATM   29  C   UNL     1      31.485  44.704  58.087  1.00  0.00     0.002 A 
HETATM   30  C   UNL     1      31.804  43.611  57.294  1.00  0.00     0.002 A 
HETATM   31  C   UNL     1      31.070  43.356  56.134  1.00  0.00     0.033 A 
ENDBRANCH  23  25
ENDBRANCH   1  19
TORSDOF 3
ENDMDL
MODEL 7
REMARK VINA RESULT:      -9.4      5.080     11.093
REMARK  3 active torsions:
REMARK  status: ('A' for Active; 'I' for Inactive)
REMARK    1  A    between atoms: C_3  and  N_4 
REMARK       I    between atoms: N_4  and  C_5 
REMARK    2  A    between atoms: C_5  and  C_6 
REMARK    3  A    between atoms: N_20  and  C_21 
ROOT
HETATM    1  N   UNL     1      23.092  49.028  49.514  1.00  0.00    -0.305 N 
HETATM    2  C   UNL     1      22.303  48.840  48.397  1.00  0.00     0.257 C 
HETATM    3  O   UNL     1      22.493  48.082  47.454  1.00  0.00    -0.267 OA
HETATM    4  H   UNL     1      22.743  49.592  50.271  1.00  0.00     0.170 HD
ENDROOT
BRANCH   2   5
HETATM    5  C   UNL     1      21.045  49.641  48.390  1.00  0.00     0.034 A 
HETATM    6  C   UNL     1      19.826  48.959  48.280  1.00  0.00     0.049 A 
HETATM    7  C   UNL     1      18.631  49.677  48.280  1.00  0.00     0.063 A 
HETATM    8  C   UNL     1      18.647  51.072  48.380  1.00  0.00     0.062 A 
HETATM    9  N   UNL     1      17.414  48.999  48.182  1.00  0.00    -0.317 N 
HETATM   10  N   UNL     1      17.445  51.783  48.388  1.00  0.00    -0.317 N 
HETATM   11  C   UNL     1      19.857  51.758  48.465  1.00  0.00     0.033 A 
HETATM   12  C   UNL     1      16.210  51.180  48.303  1.00  0.00     0.314 A 
HETATM   13  H   UNL     1      17.435  52.792  48.460  1.00  0.00     0.169 HD
HETATM   14  O   UNL     1      15.175  51.835  48.323  1.00  0.00    -0.262 OA
HETATM   15  C   UNL     1      16.192  49.636  48.183  1.00  0.00     0.314 A 
HETATM   16  O   UNL     1      15.141  49.015  48.097  1.00  0.00    -0.262 OA
HETATM   17  C   UNL     1      21.059  51.043  48.465  1.00  0.00     0.019 A 
HETATM   18  H   UNL     1      17.386  47.992  48.098  1.00  0.00     0.169 HD
ENDBRANCH   2   5
BRANCH   1  19
HETATM   19  C   UNL     1      24.322  48.437  49.731  1.00  0.00     0.158 A 
HETATM   20  C   UNL     1      25.524  48.837  49.092  1.00  0.00     0.003 A 
HETATM   21  C   UNL     1      25.759  49.932  48.121  1.00  0.00     0.054 C 
HETATM   22  C   UNL     1      26.482  47.991  49.610  1.00  0.00     0.129 A 
HETATM   23  N   UNL     1      25.853  47.114  50.465  1.00  0.00    -0.241 N 
HETATM   24  N   UNL     1      24.538  47.425  50.564  1.00  0.00    -0.149 NA
BRANCH  23  25
HETATM   25  C   UNL     1      26.389  46.048  51.246  1.00  0.00     0.079 A 
HETATM   26  C   UNL     1      26.369  45.991  52.649  1.00  0.00     0.062 A 
HETATM   27 CL   UNL     1      25.878  47.274  53.701  1.00  0.00    -0.082 Cl
HETATM   28  C   UNL     1      26.880  44.859  53.308  1.00  0.00     0.026 A 
HETATM   29  C   UNL     1      27.424  43.793  52.593  1.00  0.00     0.002 A 
HETATM   30  C   UNL     1      27.480  43.854  51.209  1.00  0.00     0.002 A 
HETATM   31  C   UNL     1      26.975  44.972  50.541  1.00  0.00     0.033 A 
ENDBRANCH  23  25
ENDBRANCH   1  19
TORSDOF 3
ENDMDL
MODEL 8
REMARK VINA RESULT:      -9.3      4.535      6.929
REMARK  3 active torsions:
REMARK  status: ('A' for Active; 'I' for Inactive)
REMARK    1  A    between atoms: C_3  and  N_4 
REMARK       I    between atoms: N_4  and  C_5 
REMARK    2  A    between atoms: C_5  and  C_6 
REMARK    3  A    between atoms: N_20  and  C_21 
ROOT
HETATM    1  N   UNL     1      27.147  42.430  51.986  1.00  0.00    -0.305 N 
HETATM    2  C   UNL     1      27.607  43.730  51.922  1.00  0.00     0.257 C 
HETATM    3  O   UNL     1      27.622  44.482  50.956  1.00  0.00    -0.267 OA
HETATM    4  H   UNL     1      27.079  41.978  52.882  1.00  0.00     0.170 HD
ENDROOT
BRANCH   2   5
HETATM    5  C   UNL     1      28.098  44.274  53.222  1.00  0.00     0.034 A 
HETATM    6  C   UNL     1      29.146  43.605  53.868  1.00  0.00     0.049 A 
HETATM    7  C   UNL     1      29.634  44.094  55.078  1.00  0.00     0.063 A 
HETATM    8  C   UNL     1      29.076  45.240  55.653  1.00  0.00     0.062 A 
HETATM    9  N   UNL     1      30.686  43.435  55.718  1.00  0.00    -0.317 N 
HETATM   10  N   UNL     1      29.576  45.727  56.861  1.00  0.00    -0.317 N 
HETATM   11  C   UNL     1      28.016  45.896  55.027  1.00  0.00     0.033 A 
HETATM   12  C   UNL     1      30.616  45.134  57.543  1.00  0.00     0.314 A 
HETATM   13  H   UNL     1      29.187  46.555  57.293  1.00  0.00     0.169 HD
HETATM   14  O   UNL     1      31.036  45.595  58.596  1.00  0.00    -0.262 OA
HETATM   15  C   UNL     1      31.229  43.859  56.912  1.00  0.00     0.314 A 
HETATM   16  O   UNL     1      32.152  43.262  57.449  1.00  0.00    -0.262 OA
HETATM   17  C   UNL     1      27.522  45.410  53.813  1.00  0.00     0.019 A 
HETATM   18  H   UNL     1      31.093  42.599  55.321  1.00  0.00     0.169 HD
ENDBRANCH   2   5
BRANCH   1  19
HETATM   19  C   UNL     1      26.688  41.693  50.911  1.00  0.00     0.158 A 
HETATM   20  C   UNL     1      25.398  41.835  50.338  1.00  0.00     0.003 A 
HETATM   21  C   UNL     1      24.301  42.764  50.696  1.00  0.00     0.054 C 
HETATM   22  C   UNL     1      25.383  40.921  49.304  1.00  0.00     0.129 A 
HETATM   23  N   UNL     1      26.586  40.251  49.317  1.00  0.00    -0.241 N 
HETATM   24  N   UNL     1      27.393  40.763  50.277  1.00  0.00    -0.149 NA
BRANCH  23  25
HETATM   25  C   UNL     1      27.070  39.214  48.465  1.00  0.00     0.079 A 
HETATM   26  C   UNL     1      27.802  39.419  47.285  1.00  0.00     0.062 A 
HETATM   27 CL   UNL     1      28.090  40.951  46.534  1.00  0.00    -0.082 Cl
HETATM   28  C   UNL     1      28.274  38.314  46.556  1.00  0.00     0.026 A 
HETATM   29  C   UNL     1      28.014  37.010  46.975  1.00  0.00     0.002 A 
HETATM   30  C   UNL     1      27.261  36.796  48.120  1.00  0.00     0.002 A 
HETATM   31  C   UNL     1      26.787  37.885  48.854  1.00  0.00     0.033 A 
ENDBRANCH  23  25
ENDBRANCH   1  19
TORSDOF 3
ENDMDL
MODEL 9
REMARK VINA RESULT:      -9.3      3.147      4.596
REMARK  3 active torsions:
REMARK  status: ('A' for Active; 'I' for Inactive)
REMARK    1  A    between atoms: C_3  and  N_4 
REMARK       I    between atoms: N_4  and  C_5 
REMARK    2  A    between atoms: C_5  and  C_6 
REMARK    3  A    between atoms: N_20  and  C_21 
ROOT
HETATM    1  N   UNL     1      23.136  46.903  49.410  1.00  0.00    -0.305 N 
HETATM    2  C   UNL     1      24.349  47.458  49.767  1.00  0.00     0.257 C 
HETATM    3  O   UNL     1      24.692  48.632  49.706  1.00  0.00    -0.267 OA
HETATM    4  H   UNL     1      22.953  45.940  49.636  1.00  0.00     0.170 HD
ENDROOT
BRANCH   2   5
HETATM    5  C   UNL     1      25.326  46.487  50.339  1.00  0.00     0.034 A 
HETATM    6  C   UNL     1      25.646  46.593  51.699  1.00  0.00     0.049 A 
HETATM    7  C   UNL     1      26.548  45.695  52.267  1.00  0.00     0.063 A 
HETATM    8  C   UNL     1      27.139  44.698  51.483  1.00  0.00     0.062 A 
HETATM    9  N   UNL     1      26.860  45.791  53.625  1.00  0.00    -0.317 N 
HETATM   10  N   UNL     1      28.035  43.797  52.062  1.00  0.00    -0.317 N 
HETATM   11  C   UNL     1      26.843  44.603  50.125  1.00  0.00     0.033 A 
HETATM   12  C   UNL     1      28.383  43.828  53.395  1.00  0.00     0.314 A 
HETATM   13  H   UNL     1      28.473  43.069  51.513  1.00  0.00     0.169 HD
HETATM   14  O   UNL     1      29.165  43.016  53.871  1.00  0.00    -0.262 OA
HETATM   15  C   UNL     1      27.736  44.937  54.261  1.00  0.00     0.314 A 
HETATM   16  O   UNL     1      27.990  45.045  55.454  1.00  0.00    -0.262 OA
HETATM   17  C   UNL     1      25.940  45.502  49.549  1.00  0.00     0.019 A 
HETATM   18  H   UNL     1      26.450  46.512  54.202  1.00  0.00     0.169 HD
ENDBRANCH   2   5
BRANCH   1  19
HETATM   19  C   UNL     1      22.090  47.585  48.818  1.00  0.00     0.158 A 
HETATM   20  C   UNL     1      21.524  47.245  47.562  1.00  0.00     0.003 A 
HETATM   21  C   UNL     1      21.863  46.135  46.641  1.00  0.00     0.054 C 
HETATM   22  C   UNL     1      20.521  48.175  47.379  1.00  0.00     0.129 A 
HETATM   23  N   UNL     1      20.544  49.036  48.453  1.00  0.00    -0.241 N 
HETATM   24  N   UNL     1      21.480  48.639  49.348  1.00  0.00    -0.149 NA
BRANCH  23  25
HETATM   25  C   UNL     1      19.721  50.165  48.743  1.00  0.00     0.079 A 
HETATM   26  C   UNL     1      18.867  50.273  49.852  1.00  0.00     0.062 A 
HETATM   27 CL   UNL     1      18.496  49.000  50.963  1.00  0.00    -0.082 Cl
HETATM   28  C   UNL     1      18.145  51.461  50.063  1.00  0.00     0.026 A 
HETATM   29  C   UNL     1      18.249  52.534  49.180  1.00  0.00     0.002 A 
HETATM   30  C   UNL     1      19.063  52.425  48.062  1.00  0.00     0.002 A 
HETATM   31  C   UNL     1      19.787  51.251  47.841  1.00  0.00     0.033 A 
ENDBRANCH  23  25
ENDBRANCH   1  19
TORSDOF 3
ENDMDL
MODEL 10
REMARK VINA RESULT:      -9.3      3.987      9.530
REMARK  3 active torsions:
REMARK  status: ('A' for Active; 'I' for Inactive)
REMARK    1  A    between atoms: C_3  and  N_4 
REMARK       I    between atoms: N_4  and  C_5 
REMARK    2  A    between atoms: C_5  and  C_6 
REMARK    3  A    between atoms: N_20  and  C_21 
ROOT
HETATM    1  N   UNL     1      26.618  45.123  52.432  1.00  0.00    -0.305 N 
HETATM    2  C   UNL     1      25.391  44.495  52.357  1.00  0.00     0.257 C 
HETATM    3  O   UNL     1      24.620  44.225  53.269  1.00  0.00    -0.267 OA
HETATM    4  H   UNL     1      27.082  45.395  51.582  1.00  0.00     0.170 HD
ENDROOT
BRANCH   2   5
HETATM    5  C   UNL     1      24.955  44.160  50.970  1.00  0.00     0.034 A 
HETATM    6  C   UNL     1      24.153  45.082  50.286  1.00  0.00     0.049 A 
HETATM    7  C   UNL     1      23.737  44.804  48.985  1.00  0.00     0.063 A 
HETATM    8  C   UNL     1      24.109  43.606  48.367  1.00  0.00     0.062 A 
HETATM    9  N   UNL     1      22.947  45.727  48.296  1.00  0.00    -0.317 N 
HETATM   10  N   UNL     1      23.695  43.338  47.061  1.00  0.00    -0.317 N 
HETATM   11  C   UNL     1      24.887  42.673  49.051  1.00  0.00     0.033 A 
HETATM   12  C   UNL     1      22.922  44.205  46.320  1.00  0.00     0.314 A 
HETATM   13  H   UNL     1      23.954  42.478  46.596  1.00  0.00     0.169 HD
HETATM   14  O   UNL     1      22.586  43.942  45.173  1.00  0.00    -0.262 OA
HETATM   15  C   UNL     1      22.502  45.528  47.007  1.00  0.00     0.314 A 
HETATM   16  O   UNL     1      21.811  46.357  46.428  1.00  0.00    -0.262 OA
HETATM   17  C   UNL     1      25.306  42.946  50.357  1.00  0.00     0.019 A 
HETATM   18  H   UNL     1      22.660  46.593  48.733  1.00  0.00     0.169 HD
ENDBRANCH   2   5
BRANCH   1  19
HETATM   19  C   UNL     1      27.255  45.490  53.602  1.00  0.00     0.158 A 
HETATM   20  C   UNL     1      26.950  46.659  54.345  1.00  0.00     0.003 A 
HETATM   21  C   UNL     1      25.924  47.698  54.095  1.00  0.00     0.054 C 
HETATM   22  C   UNL     1      27.814  46.613  55.421  1.00  0.00     0.129 A 
HETATM   23  N   UNL     1      28.609  45.499  55.275  1.00  0.00    -0.241 N 
HETATM   24  N   UNL     1      28.229  44.795  54.181  1.00  0.00    -0.149 NA
BRANCH  23  25
HETATM   25  C   UNL     1      29.656  45.001  56.107  1.00  0.00     0.079 A 
HETATM   26  C   UNL     1      30.558  43.987  55.745  1.00  0.00     0.062 A 
HETATM   27 CL   UNL     1      30.457  43.014  54.318  1.00  0.00    -0.082 Cl
HETATM   28  C   UNL     1      31.585  43.619  56.631  1.00  0.00     0.026 A 
HETATM   29  C   UNL     1      31.718  44.233  57.875  1.00  0.00     0.002 A 
HETATM   30  C   UNL     1      30.812  45.212  58.257  1.00  0.00     0.002 A 
HETATM   31  C   UNL     1      29.787  45.588  57.386  1.00  0.00     0.033 A 
ENDBRANCH  23  25
ENDBRANCH   1  19
TORSDOF 3
ENDMDL
