MODEL 1
REMARK VINA RESULT:      -7.5      0.000      0.000
REMARK  6 active torsions:
REMARK  status: ('A' for Active; 'I' for Inactive)
REMARK    1  A    between atoms: C_2  and  N_3 
REMARK    2  A    between atoms: C_5  and  C_6 
REMARK    3  A    between atoms: C_6  and  N_7 
REMARK       I    between atoms: N_7  and  C_8 
REMARK    4  A    between atoms: C_8  and  C_9 
REMARK    5  A    between atoms: C_9  and  C_10 
REMARK    6  A    between atoms: C_11  and  C_12 
ROOT
HETATM    1  C   UNL     1      32.700  50.580  42.225  1.00  0.00     0.005 A 
HETATM    2  C   UNL     1      32.482  49.361  41.578  1.00  0.00     0.069 A 
HETATM    3  N   UNL     1      33.745  48.902  41.276  1.00  0.00    -0.277 N 
HETATM    4  H   UNL     1      33.994  48.046  40.794  1.00  0.00     0.189 HD
HETATM    5  N   UNL     1      34.737  49.706  41.665  1.00  0.00    -0.179 NA
HETATM    6  C   UNL     1      34.123  50.689  42.322  1.00  0.00     0.059 A 
HETATM    7  C   UNL     1      34.946  51.718  43.010  1.00  0.00     0.073 C 
ENDROOT
BRANCH   1   8
HETATM    8  C   UNL     1      31.714  51.568  42.765  1.00  0.00     0.146 C 
BRANCH   8   9
HETATM    9  C   UNL     1      31.177  52.458  41.650  1.00  0.00     0.222 C 
HETATM   10  N   UNL     1      29.808  52.530  41.524  1.00  0.00    -0.359 N 
HETATM   11  H   UNL     1      29.251  51.844  42.023  1.00  0.00     0.162 HD
HETATM   12  O   UNL     1      31.894  53.161  40.935  1.00  0.00    -0.273 OA
BRANCH  10  13
HETATM   13  C   UNL     1      29.153  53.305  40.475  1.00  0.00     0.155 C 
BRANCH  13  14
HETATM   14  C   UNL     1      28.603  52.500  39.262  1.00  0.00     0.206 C 
HETATM   15  N   UNL     1      28.513  51.003  39.561  1.00  0.00    -0.066 N 
HETATM   16  H   UNL     1      29.037  50.849  40.450  1.00  0.00     0.280 HD
HETATM   17  C   UNL     1      29.277  50.271  38.487  1.00  0.00     0.235 C 
HETATM   18  C   UNL     1      30.263  51.298  37.978  1.00  0.00     0.030 C 
HETATM   19  C   UNL     1      29.471  52.589  38.006  1.00  0.00     0.036 C 
BRANCH  15  20
HETATM   20  C   UNL     1      27.125  50.499  39.823  1.00  0.00     0.231 C 
HETATM   21  C   UNL     1      26.650  49.623  38.677  1.00  0.00     0.034 C 
ENDBRANCH  15  20
ENDBRANCH  13  14
ENDBRANCH  10  13
ENDBRANCH   8   9
ENDBRANCH   1   8
BRANCH   2  22
HETATM   22  C   UNL     1      31.288  48.580  41.223  1.00  0.00    -0.007 A 
HETATM   23  C   UNL     1      30.077  48.721  41.909  1.00  0.00     0.015 A 
HETATM   24  C   UNL     1      28.941  47.989  41.543  1.00  0.00     0.024 A 
HETATM   25  C   UNL     1      29.002  47.104  40.473  1.00  0.00     0.034 A 
HETATM   26 CL   UNL     1      27.604  46.218  40.012  1.00  0.00    -0.084 Cl
HETATM   27  C   UNL     1      30.194  46.937  39.777  1.00  0.00     0.024 A 
HETATM   28  C   UNL     1      31.328  47.666  40.153  1.00  0.00     0.015 A 
ENDBRANCH   2  22
TORSDOF 6
ENDMDL
MODEL 2
REMARK VINA RESULT:      -7.5     11.689     13.160
REMARK  6 active torsions:
REMARK  status: ('A' for Active; 'I' for Inactive)
REMARK    1  A    between atoms: C_2  and  N_3 
REMARK    2  A    between atoms: C_5  and  C_6 
REMARK    3  A    between atoms: C_6  and  N_7 
REMARK       I    between atoms: N_7  and  C_8 
REMARK    4  A    between atoms: C_8  and  C_9 
REMARK    5  A    between atoms: C_9  and  C_10 
REMARK    6  A    between atoms: C_11  and  C_12 
ROOT
HETATM    1  C   UNL     1      26.936  43.494  50.772  1.00  0.00     0.005 A 
HETATM    2  C   UNL     1      27.438  42.835  51.897  1.00  0.00     0.069 A 
HETATM    3  N   UNL     1      26.865  41.583  51.846  1.00  0.00    -0.277 N 
HETATM    4  H   UNL     1      26.984  40.821  52.503  1.00  0.00     0.189 HD
HETATM    5  N   UNL     1      26.054  41.385  50.804  1.00  0.00    -0.179 NA
HETATM    6  C   UNL     1      26.154  42.507  50.094  1.00  0.00     0.059 A 
HETATM    7  C   UNL     1      25.465  42.589  48.779  1.00  0.00     0.073 C 
ENDROOT
BRANCH   1   8
HETATM    8  C   UNL     1      27.168  44.895  50.299  1.00  0.00     0.146 C 
BRANCH   8   9
HETATM    9  C   UNL     1      26.037  45.811  50.753  1.00  0.00     0.222 C 
HETATM   10  N   UNL     1      25.382  46.515  49.769  1.00  0.00    -0.359 N 
HETATM   11  H   UNL     1      25.809  46.552  48.850  1.00  0.00     0.162 HD
HETATM   12  O   UNL     1      25.643  45.879  51.919  1.00  0.00    -0.273 OA
BRANCH  10  13
HETATM   13  C   UNL     1      24.310  47.464  50.060  1.00  0.00     0.155 C 
BRANCH  13  14
HETATM   14  C   UNL     1      23.824  48.342  48.871  1.00  0.00     0.206 C 
HETATM   15  N   UNL     1      24.431  49.746  48.911  1.00  0.00    -0.066 N 
HETATM   16  H   UNL     1      24.875  49.848  49.848  1.00  0.00     0.280 HD
HETATM   17  C   UNL     1      23.297  50.740  48.871  1.00  0.00     0.235 C 
HETATM   18  C   UNL     1      22.116  49.967  49.414  1.00  0.00     0.030 C 
HETATM   19  C   UNL     1      22.314  48.577  48.843  1.00  0.00     0.036 C 
BRANCH  15  20
HETATM   20  C   UNL     1      25.530  49.982  47.918  1.00  0.00     0.231 C 
HETATM   21  C   UNL     1      26.886  49.741  48.556  1.00  0.00     0.034 C 
ENDBRANCH  15  20
ENDBRANCH  13  14
ENDBRANCH  10  13
ENDBRANCH   8   9
ENDBRANCH   1   8
BRANCH   2  22
HETATM   22  C   UNL     1      28.364  43.199  52.980  1.00  0.00    -0.007 A 
HETATM   23  C   UNL     1      28.055  44.191  53.919  1.00  0.00     0.015 A 
HETATM   24  C   UNL     1      28.935  44.510  54.960  1.00  0.00     0.024 A 
HETATM   25  C   UNL     1      30.142  43.831  55.079  1.00  0.00     0.034 A 
HETATM   26 CL   UNL     1      31.215  44.210  56.366  1.00  0.00    -0.084 Cl
HETATM   27  C   UNL     1      30.479  42.847  54.158  1.00  0.00     0.024 A 
HETATM   28  C   UNL     1      29.598  42.538  53.114  1.00  0.00     0.015 A 
ENDBRANCH   2  22
TORSDOF 6
ENDMDL
MODEL 3
REMARK VINA RESULT:      -7.4     13.157     15.155
REMARK  6 active torsions:
REMARK  status: ('A' for Active; 'I' for Inactive)
REMARK    1  A    between atoms: C_2  and  N_3 
REMARK    2  A    between atoms: C_5  and  C_6 
REMARK    3  A    between atoms: C_6  and  N_7 
REMARK       I    between atoms: N_7  and  C_8 
REMARK    4  A    between atoms: C_8  and  C_9 
REMARK    5  A    between atoms: C_9  and  C_10 
REMARK    6  A    between atoms: C_11  and  C_12 
ROOT
HETATM    1  C   UNL     1      27.046  44.616  52.482  1.00  0.00     0.005 A 
HETATM    2  C   UNL     1      27.425  44.834  53.809  1.00  0.00     0.069 A 
HETATM    3  N   UNL     1      26.341  45.467  54.376  1.00  0.00    -0.277 N 
HETATM    4  H   UNL     1      26.245  45.795  55.330  1.00  0.00     0.189 HD
HETATM    5  N   UNL     1      25.318  45.672  53.543  1.00  0.00    -0.179 NA
HETATM    6  C   UNL     1      25.696  45.081  52.410  1.00  0.00     0.059 A 
HETATM    7  C   UNL     1      24.730  45.006  51.282  1.00  0.00     0.073 C 
ENDROOT
BRANCH   1   8
HETATM    8  C   UNL     1      27.812  43.994  51.356  1.00  0.00     0.146 C 
BRANCH   8   9
HETATM    9  C   UNL     1      27.652  42.478  51.367  1.00  0.00     0.222 C 
HETATM   10  N   UNL     1      26.490  41.977  50.827  1.00  0.00    -0.359 N 
HETATM   11  H   UNL     1      25.731  42.628  50.652  1.00  0.00     0.162 HD
HETATM   12  O   UNL     1      28.531  41.704  51.750  1.00  0.00    -0.273 OA
BRANCH  10  13
HETATM   13  C   UNL     1      26.179  40.551  50.810  1.00  0.00     0.155 C 
BRANCH  13  14
HETATM   14  C   UNL     1      26.643  39.758  49.556  1.00  0.00     0.206 C 
HETATM   15  N   UNL     1      28.167  39.642  49.482  1.00  0.00    -0.066 N 
HETATM   16  H   UNL     1      28.546  40.303  50.193  1.00  0.00     0.280 HD
HETATM   17  C   UNL     1      28.605  40.169  48.138  1.00  0.00     0.235 C 
HETATM   18  C   UNL     1      27.488  41.104  47.732  1.00  0.00     0.030 C 
HETATM   19  C   UNL     1      26.242  40.398  48.226  1.00  0.00     0.036 C 
BRANCH  15  20
HETATM   20  C   UNL     1      28.711  38.295  49.856  1.00  0.00     0.231 C 
HETATM   21  C   UNL     1      30.120  38.121  49.319  1.00  0.00     0.034 C 
ENDBRANCH  15  20
ENDBRANCH  13  14
ENDBRANCH  10  13
ENDBRANCH   8   9
ENDBRANCH   1   8
BRANCH   2  22
HETATM   22  C   UNL     1      28.625  44.531  54.604  1.00  0.00    -0.007 A 
HETATM   23  C   UNL     1      29.190  45.464  55.480  1.00  0.00     0.015 A 
HETATM   24  C   UNL     1      30.318  45.152  56.249  1.00  0.00     0.024 A 
HETATM   25  C   UNL     1      30.894  43.891  56.155  1.00  0.00     0.034 A 
HETATM   26 CL   UNL     1      32.267  43.502  57.111  1.00  0.00    -0.084 Cl
HETATM   27  C   UNL     1      30.359  42.946  55.288  1.00  0.00     0.024 A 
HETATM   28  C   UNL     1      29.236  43.267  54.515  1.00  0.00     0.015 A 
ENDBRANCH   2  22
TORSDOF 6
ENDMDL
MODEL 4
REMARK VINA RESULT:      -7.4     13.269     15.328
REMARK  6 active torsions:
REMARK  status: ('A' for Active; 'I' for Inactive)
REMARK    1  A    between atoms: C_2  and  N_3 
REMARK    2  A    between atoms: C_5  and  C_6 
REMARK    3  A    between atoms: C_6  and  N_7 
REMARK       I    between atoms: N_7  and  C_8 
REMARK    4  A    between atoms: C_8  and  C_9 
REMARK    5  A    between atoms: C_9  and  C_10 
REMARK    6  A    between atoms: C_11  and  C_12 
ROOT
HETATM    1  C   UNL     1      27.077  44.628  52.476  1.00  0.00     0.005 A 
HETATM    2  C   UNL     1      27.442  44.830  53.809  1.00  0.00     0.069 A 
HETATM    3  N   UNL     1      26.377  45.510  54.358  1.00  0.00    -0.277 N 
HETATM    4  H   UNL     1      26.278  45.841  55.310  1.00  0.00     0.189 HD
HETATM    5  N   UNL     1      25.378  45.758  53.507  1.00  0.00    -0.179 NA
HETATM    6  C   UNL     1      25.750  45.152  52.381  1.00  0.00     0.059 A 
HETATM    7  C   UNL     1      24.801  45.120  51.236  1.00  0.00     0.073 C 
ENDROOT
BRANCH   1   8
HETATM    8  C   UNL     1      27.835  43.974  51.363  1.00  0.00     0.146 C 
BRANCH   8   9
HETATM    9  C   UNL     1      27.533  42.481  51.310  1.00  0.00     0.222 C 
HETATM   10  N   UNL     1      28.616  41.632  51.345  1.00  0.00    -0.359 N 
HETATM   11  H   UNL     1      29.536  42.032  51.192  1.00  0.00     0.162 HD
HETATM   12  O   UNL     1      26.392  42.016  51.324  1.00  0.00    -0.273 OA
BRANCH  10  13
HETATM   13  C   UNL     1      28.483  40.181  51.256  1.00  0.00     0.155 C 
BRANCH  13  14
HETATM   14  C   UNL     1      28.486  39.573  49.825  1.00  0.00     0.206 C 
HETATM   15  N   UNL     1      27.085  39.547  49.211  1.00  0.00    -0.066 N 
HETATM   16  H   UNL     1      26.421  39.762  49.985  1.00  0.00     0.280 HD
HETATM   17  C   UNL     1      26.795  38.130  48.784  1.00  0.00     0.235 C 
HETATM   18  C   UNL     1      27.694  37.293  49.665  1.00  0.00     0.030 C 
HETATM   19  C   UNL     1      28.959  38.120  49.762  1.00  0.00     0.036 C 
BRANCH  15  20
HETATM   20  C   UNL     1      26.839  40.598  48.169  1.00  0.00     0.231 C 
HETATM   21  C   UNL     1      28.114  40.902  47.405  1.00  0.00     0.034 C 
ENDBRANCH  15  20
ENDBRANCH  13  14
ENDBRANCH  10  13
ENDBRANCH   8   9
ENDBRANCH   1   8
BRANCH   2  22
HETATM   22  C   UNL     1      28.613  44.474  54.624  1.00  0.00    -0.007 A 
HETATM   23  C   UNL     1      29.266  43.243  54.489  1.00  0.00     0.015 A 
HETATM   24  C   UNL     1      30.396  42.929  55.254  1.00  0.00     0.024 A 
HETATM   25  C   UNL     1      30.894  43.852  56.167  1.00  0.00     0.034 A 
HETATM   26 CL   UNL     1      32.290  43.473  57.093  1.00  0.00    -0.084 Cl
HETATM   27  C   UNL     1      30.262  45.079  56.328  1.00  0.00     0.024 A 
HETATM   28  C   UNL     1      29.128  45.385  55.566  1.00  0.00     0.015 A 
ENDBRANCH   2  22
TORSDOF 6
ENDMDL
MODEL 5
REMARK VINA RESULT:      -7.4      2.702      4.757
REMARK  6 active torsions:
REMARK  status: ('A' for Active; 'I' for Inactive)
REMARK    1  A    between atoms: C_2  and  N_3 
REMARK    2  A    between atoms: C_5  and  C_6 
REMARK    3  A    between atoms: C_6  and  N_7 
REMARK       I    between atoms: N_7  and  C_8 
REMARK    4  A    between atoms: C_8  and  C_9 
REMARK    5  A    between atoms: C_9  and  C_10 
REMARK    6  A    between atoms: C_11  and  C_12 
ROOT
HETATM    1  C   UNL     1      29.896  48.270  41.116  1.00  0.00     0.005 A 
HETATM    2  C   UNL     1      31.268  48.530  41.148  1.00  0.00     0.069 A 
HETATM    3  N   UNL     1      31.810  47.629  40.258  1.00  0.00    -0.277 N 
HETATM    4  H   UNL     1      32.787  47.507  40.018  1.00  0.00     0.189 HD
HETATM    5  N   UNL     1      30.920  46.827  39.669  1.00  0.00    -0.179 NA
HETATM    6  C   UNL     1      29.742  47.262  40.113  1.00  0.00     0.059 A 
HETATM    7  C   UNL     1      28.499  46.665  39.557  1.00  0.00     0.073 C 
ENDROOT
BRANCH   1   8
HETATM    8  C   UNL     1      28.782  48.903  41.890  1.00  0.00     0.146 C 
BRANCH   8   9
HETATM    9  C   UNL     1      28.427  50.266  41.307  1.00  0.00     0.222 C 
HETATM   10  N   UNL     1      28.388  50.359  39.935  1.00  0.00    -0.359 N 
HETATM   11  H   UNL     1      28.794  49.600  39.398  1.00  0.00     0.162 HD
HETATM   12  O   UNL     1      28.099  51.235  41.994  1.00  0.00    -0.273 OA
BRANCH  10  13
HETATM   13  C   UNL     1      28.107  51.610  39.237  1.00  0.00     0.155 C 
BRANCH  13  14
HETATM   14  C   UNL     1      29.328  52.529  38.947  1.00  0.00     0.206 C 
HETATM   15  N   UNL     1      30.655  51.832  39.253  1.00  0.00    -0.066 N 
HETATM   16  H   UNL     1      30.417  50.965  39.780  1.00  0.00     0.280 HD
HETATM   17  C   UNL     1      31.427  52.708  40.207  1.00  0.00     0.235 C 
HETATM   18  C   UNL     1      30.359  53.528  40.893  1.00  0.00     0.030 C 
HETATM   19  C   UNL     1      29.364  53.807  39.785  1.00  0.00     0.036 C 
BRANCH  15  20
HETATM   20  C   UNL     1      31.414  51.370  38.044  1.00  0.00     0.231 C 
HETATM   21  C   UNL     1      32.906  51.355  38.322  1.00  0.00     0.034 C 
ENDBRANCH  15  20
ENDBRANCH  13  14
ENDBRANCH  10  13
ENDBRANCH   8   9
ENDBRANCH   1   8
BRANCH   2  22
HETATM   22  C   UNL     1      32.122  49.488  41.869  1.00  0.00    -0.007 A 
HETATM   23  C   UNL     1      31.663  50.196  42.985  1.00  0.00     0.015 A 
HETATM   24  C   UNL     1      32.495  51.086  43.676  1.00  0.00     0.024 A 
HETATM   25  C   UNL     1      33.808  51.274  43.259  1.00  0.00     0.034 A 
HETATM   26 CL   UNL     1      34.833  52.352  44.117  1.00  0.00    -0.084 Cl
HETATM   27  C   UNL     1      34.288  50.589  42.149  1.00  0.00     0.024 A 
HETATM   28  C   UNL     1      33.449  49.708  41.457  1.00  0.00     0.015 A 
ENDBRANCH   2  22
TORSDOF 6
ENDMDL
MODEL 6
REMARK VINA RESULT:      -7.3     12.886     14.401
REMARK  6 active torsions:
REMARK  status: ('A' for Active; 'I' for Inactive)
REMARK    1  A    between atoms: C_2  and  N_3 
REMARK    2  A    between atoms: C_5  and  C_6 
REMARK    3  A    between atoms: C_6  and  N_7 
REMARK       I    between atoms: N_7  and  C_8 
REMARK    4  A    between atoms: C_8  and  C_9 
REMARK    5  A    between atoms: C_9  and  C_10 
REMARK    6  A    between atoms: C_11  and  C_12 
ROOT
HETATM    1  C   UNL     1      27.387  42.999  53.219  1.00  0.00     0.005 A 
HETATM    2  C   UNL     1      28.681  43.271  53.670  1.00  0.00     0.069 A 
HETATM    3  N   UNL     1      29.500  42.609  52.782  1.00  0.00    -0.277 N 
HETATM    4  H   UNL     1      30.512  42.564  52.788  1.00  0.00     0.189 HD
HETATM    5  N   UNL     1      28.855  41.947  51.818  1.00  0.00    -0.179 NA
HETATM    6  C   UNL     1      27.572  42.246  52.018  1.00  0.00     0.059 A 
HETATM    7  C   UNL     1      26.562  41.769  51.037  1.00  0.00     0.073 C 
ENDROOT
BRANCH   1   8
HETATM    8  C   UNL     1      26.066  43.415  53.789  1.00  0.00     0.146 C 
BRANCH   8   9
HETATM    9  C   UNL     1      25.502  44.609  53.026  1.00  0.00     0.222 C 
HETATM   10  N   UNL     1      26.385  45.621  52.724  1.00  0.00    -0.359 N 
HETATM   11  H   UNL     1      27.283  45.620  53.195  1.00  0.00     0.162 HD
HETATM   12  O   UNL     1      24.344  44.663  52.608  1.00  0.00    -0.273 OA
BRANCH  10  13
HETATM   13  C   UNL     1      25.977  46.844  52.039  1.00  0.00     0.155 C 
BRANCH  13  14
HETATM   14  C   UNL     1      25.915  46.778  50.486  1.00  0.00     0.206 C 
HETATM   15  N   UNL     1      24.531  46.358  49.986  1.00  0.00    -0.066 N 
HETATM   16  H   UNL     1      24.008  46.017  50.821  1.00  0.00     0.280 HD
HETATM   17  C   UNL     1      24.711  45.164  49.082  1.00  0.00     0.235 C 
HETATM   18  C   UNL     1      26.017  44.555  49.538  1.00  0.00     0.030 C 
HETATM   19  C   UNL     1      26.873  45.762  49.863  1.00  0.00     0.036 C 
BRANCH  15  20
HETATM   20  C   UNL     1      23.703  47.475  49.423  1.00  0.00     0.231 C 
HETATM   21  C   UNL     1      24.571  48.684  49.122  1.00  0.00     0.034 C 
ENDBRANCH  15  20
ENDBRANCH  13  14
ENDBRANCH  10  13
ENDBRANCH   8   9
ENDBRANCH   1   8
BRANCH   2  22
HETATM   22  C   UNL     1      29.245  44.053  54.780  1.00  0.00    -0.007 A 
HETATM   23  C   UNL     1      28.647  45.234  55.235  1.00  0.00     0.015 A 
HETATM   24  C   UNL     1      29.182  45.954  56.311  1.00  0.00     0.024 A 
HETATM   25  C   UNL     1      30.326  45.495  56.952  1.00  0.00     0.034 A 
HETATM   26 CL   UNL     1      30.972  46.370  58.282  1.00  0.00    -0.084 Cl
HETATM   27  C   UNL     1      30.945  44.330  56.517  1.00  0.00     0.024 A 
HETATM   28  C   UNL     1      30.411  43.618  55.437  1.00  0.00     0.015 A 
ENDBRANCH   2  22
TORSDOF 6
ENDMDL
MODEL 7
REMARK VINA RESULT:      -7.3     12.106     13.559
REMARK  6 active torsions:
REMARK  status: ('A' for Active; 'I' for Inactive)
REMARK    1  A    between atoms: C_2  and  N_3 
REMARK    2  A    between atoms: C_5  and  C_6 
REMARK    3  A    between atoms: C_6  and  N_7 
REMARK       I    between atoms: N_7  and  C_8 
REMARK    4  A    between atoms: C_8  and  C_9 
REMARK    5  A    between atoms: C_9  and  C_10 
REMARK    6  A    between atoms: C_11  and  C_12 
ROOT
HETATM    1  C   UNL     1      27.320  42.493  52.044  1.00  0.00     0.005 A 
HETATM    2  C   UNL     1      28.461  42.487  52.851  1.00  0.00     0.069 A 
HETATM    3  N   UNL     1      29.160  41.370  52.450  1.00  0.00    -0.277 N 
HETATM    4  H   UNL     1      30.041  41.027  52.814  1.00  0.00     0.189 HD
HETATM    5  N   UNL     1      28.576  40.670  51.474  1.00  0.00    -0.179 NA
HETATM    6  C   UNL     1      27.500  41.387  51.155  1.00  0.00     0.059 A 
HETATM    7  C   UNL     1      26.667  40.958  50.001  1.00  0.00     0.073 C 
ENDROOT
BRANCH   1   8
HETATM    8  C   UNL     1      26.162  43.441  52.028  1.00  0.00     0.146 C 
BRANCH   8   9
HETATM    9  C   UNL     1      26.307  44.451  50.895  1.00  0.00     0.222 C 
HETATM   10  N   UNL     1      25.202  45.218  50.608  1.00  0.00    -0.359 N 
HETATM   11  H   UNL     1      24.313  44.934  51.006  1.00  0.00     0.162 HD
HETATM   12  O   UNL     1      27.367  44.661  50.302  1.00  0.00    -0.273 OA
BRANCH  10  13
HETATM   13  C   UNL     1      25.179  46.192  49.521  1.00  0.00     0.155 C 
BRANCH  13  14
HETATM   14  C   UNL     1      25.256  47.690  49.934  1.00  0.00     0.206 C 
HETATM   15  N   UNL     1      24.601  48.605  48.897  1.00  0.00    -0.066 N 
HETATM   16  H   UNL     1      24.434  48.018  48.052  1.00  0.00     0.280 HD
HETATM   17  C   UNL     1      25.615  49.646  48.495  1.00  0.00     0.235 C 
HETATM   18  C   UNL     1      26.945  48.994  48.796  1.00  0.00     0.030 C 
HETATM   19  C   UNL     1      26.679  48.229  50.076  1.00  0.00     0.036 C 
BRANCH  15  20
HETATM   20  C   UNL     1      23.253  49.134  49.290  1.00  0.00     0.231 C 
HETATM   21  C   UNL     1      22.149  48.296  48.671  1.00  0.00     0.034 C 
ENDBRANCH  15  20
ENDBRANCH  13  14
ENDBRANCH  10  13
ENDBRANCH   8   9
ENDBRANCH   1   8
BRANCH   2  22
HETATM   22  C   UNL     1      28.982  43.366  53.909  1.00  0.00    -0.007 A 
HETATM   23  C   UNL     1      28.318  44.536  54.296  1.00  0.00     0.015 A 
HETATM   24  C   UNL     1      28.812  45.349  55.323  1.00  0.00     0.024 A 
HETATM   25  C   UNL     1      29.983  44.996  55.985  1.00  0.00     0.034 A 
HETATM   26 CL   UNL     1      30.580  45.984  57.256  1.00  0.00    -0.084 Cl
HETATM   27  C   UNL     1      30.667  43.843  55.617  1.00  0.00     0.024 A 
HETATM   28  C   UNL     1      30.172  43.039  54.584  1.00  0.00     0.015 A 
ENDBRANCH   2  22
TORSDOF 6
ENDMDL
MODEL 8
REMARK VINA RESULT:      -7.0     12.104     13.909
REMARK  6 active torsions:
REMARK  status: ('A' for Active; 'I' for Inactive)
REMARK    1  A    between atoms: C_2  and  N_3 
REMARK    2  A    between atoms: C_5  and  C_6 
REMARK    3  A    between atoms: C_6  and  N_7 
REMARK       I    between atoms: N_7  and  C_8 
REMARK    4  A    between atoms: C_8  and  C_9 
REMARK    5  A    between atoms: C_9  and  C_10 
REMARK    6  A    between atoms: C_11  and  C_12 
ROOT
HETATM    1  C   UNL     1      27.222  40.364  50.568  1.00  0.00     0.005 A 
HETATM    2  C   UNL     1      28.245  40.691  51.461  1.00  0.00     0.069 A 
HETATM    3  N   UNL     1      29.201  39.721  51.259  1.00  0.00    -0.277 N 
HETATM    4  H   UNL     1      30.091  39.619  51.735  1.00  0.00     0.189 HD
HETATM    5  N   UNL     1      28.886  38.815  50.331  1.00  0.00    -0.179 NA
HETATM    6  C   UNL     1      27.724  39.241  49.839  1.00  0.00     0.059 A 
HETATM    7  C   UNL     1      27.128  38.526  48.680  1.00  0.00     0.073 C 
ENDROOT
BRANCH   1   8
HETATM    8  C   UNL     1      25.900  41.028  50.341  1.00  0.00     0.146 C 
BRANCH   8   9
HETATM    9  C   UNL     1      26.085  42.382  49.665  1.00  0.00     0.222 C 
HETATM   10  N   UNL     1      25.088  43.310  49.862  1.00  0.00    -0.359 N 
HETATM   11  H   UNL     1      24.211  42.986  50.256  1.00  0.00     0.162 HD
HETATM   12  O   UNL     1      27.098  42.697  49.039  1.00  0.00    -0.273 OA
BRANCH  10  13
HETATM   13  C   UNL     1      25.108  44.631  49.241  1.00  0.00     0.155 C 
BRANCH  13  14
HETATM   14  C   UNL     1      24.701  45.827  50.148  1.00  0.00     0.206 C 
HETATM   15  N   UNL     1      25.617  47.036  49.947  1.00  0.00    -0.066 N 
HETATM   16  H   UNL     1      26.430  46.699  49.388  1.00  0.00     0.280 HD
HETATM   17  C   UNL     1      26.166  47.429  51.296  1.00  0.00     0.235 C 
HETATM   18  C   UNL     1      26.080  46.157  52.108  1.00  0.00     0.030 C 
HETATM   19  C   UNL     1      24.780  45.532  51.646  1.00  0.00     0.036 C 
BRANCH  15  20
HETATM   20  C   UNL     1      25.015  48.152  49.145  1.00  0.00     0.231 C 
HETATM   21  C   UNL     1      26.064  49.198  48.814  1.00  0.00     0.034 C 
ENDBRANCH  15  20
ENDBRANCH  13  14
ENDBRANCH  10  13
ENDBRANCH   8   9
ENDBRANCH   1   8
BRANCH   2  22
HETATM   22  C   UNL     1      28.454  41.765  52.445  1.00  0.00    -0.007 A 
HETATM   23  C   UNL     1      27.386  42.383  53.107  1.00  0.00     0.015 A 
HETATM   24  C   UNL     1      27.602  43.386  54.060  1.00  0.00     0.024 A 
HETATM   25  C   UNL     1      28.898  43.782  54.368  1.00  0.00     0.034 A 
HETATM   26 CL   UNL     1      29.162  45.001  55.550  1.00  0.00    -0.084 Cl
HETATM   27  C   UNL     1      29.977  43.192  53.722  1.00  0.00     0.024 A 
HETATM   28  C   UNL     1      29.755  42.195  52.764  1.00  0.00     0.015 A 
ENDBRANCH   2  22
TORSDOF 6
ENDMDL
MODEL 9
REMARK VINA RESULT:      -6.9     12.591     14.910
REMARK  6 active torsions:
REMARK  status: ('A' for Active; 'I' for Inactive)
REMARK    1  A    between atoms: C_2  and  N_3 
REMARK    2  A    between atoms: C_5  and  C_6 
REMARK    3  A    between atoms: C_6  and  N_7 
REMARK       I    between atoms: N_7  and  C_8 
REMARK    4  A    between atoms: C_8  and  C_9 
REMARK    5  A    between atoms: C_9  and  C_10 
REMARK    6  A    between atoms: C_11  and  C_12 
ROOT
HETATM    1  C   UNL     1      26.211  43.371  50.576  1.00  0.00     0.005 A 
HETATM    2  C   UNL     1      27.086  44.161  51.325  1.00  0.00     0.069 A 
HETATM    3  N   UNL     1      26.920  45.431  50.819  1.00  0.00    -0.277 N 
HETATM    4  H   UNL     1      27.396  46.279  51.105  1.00  0.00     0.189 HD
HETATM    5  N   UNL     1      26.032  45.523  49.826  1.00  0.00    -0.179 NA
HETATM    6  C   UNL     1      25.527  44.294  49.725  1.00  0.00     0.059 A 
HETATM    7  C   UNL     1      24.401  44.055  48.784  1.00  0.00     0.073 C 
ENDROOT
BRANCH   1   8
HETATM    8  C   UNL     1      25.961  41.896  50.636  1.00  0.00     0.146 C 
BRANCH   8   9
HETATM    9  C   UNL     1      26.628  41.187  49.463  1.00  0.00     0.222 C 
HETATM   10  N   UNL     1      27.900  40.708  49.674  1.00  0.00    -0.359 N 
HETATM   11  H   UNL     1      28.395  41.028  50.500  1.00  0.00     0.162 HD
HETATM   12  O   UNL     1      26.059  40.958  48.394  1.00  0.00    -0.273 OA
BRANCH  10  13
HETATM   13  C   UNL     1      28.679  40.049  48.629  1.00  0.00     0.155 C 
BRANCH  13  14
HETATM   14  C   UNL     1      28.894  38.517  48.790  1.00  0.00     0.206 C 
HETATM   15  N   UNL     1      28.099  37.947  49.966  1.00  0.00    -0.066 N 
HETATM   16  H   UNL     1      27.754  38.766  50.512  1.00  0.00     0.280 HD
HETATM   17  C   UNL     1      29.065  37.217  50.865  1.00  0.00     0.235 C 
HETATM   18  C   UNL     1      30.399  37.863  50.567  1.00  0.00     0.030 C 
HETATM   19  C   UNL     1      30.341  38.114  49.074  1.00  0.00     0.036 C 
BRANCH  15  20
HETATM   20  C   UNL     1      26.871  37.178  49.578  1.00  0.00     0.231 C 
HETATM   21  C   UNL     1      26.921  36.798  48.110  1.00  0.00     0.034 C 
ENDBRANCH  15  20
ENDBRANCH  13  14
ENDBRANCH  10  13
ENDBRANCH   8   9
ENDBRANCH   1   8
BRANCH   2  22
HETATM   22  C   UNL     1      28.023  43.903  52.429  1.00  0.00    -0.007 A 
HETATM   23  C   UNL     1      29.093  43.011  52.301  1.00  0.00     0.015 A 
HETATM   24  C   UNL     1      29.992  42.795  53.352  1.00  0.00     0.024 A 
HETATM   25  C   UNL     1      29.833  43.478  54.552  1.00  0.00     0.034 A 
HETATM   26 CL   UNL     1      30.946  43.226  55.836  1.00  0.00    -0.084 Cl
HETATM   27  C   UNL     1      28.775  44.365  54.711  1.00  0.00     0.024 A 
HETATM   28  C   UNL     1      27.875  44.571  53.659  1.00  0.00     0.015 A 
ENDBRANCH   2  22
TORSDOF 6
ENDMDL
MODEL 10
REMARK VINA RESULT:      -6.9     12.966     14.948
REMARK  6 active torsions:
REMARK  status: ('A' for Active; 'I' for Inactive)
REMARK    1  A    between atoms: C_2  and  N_3 
REMARK    2  A    between atoms: C_5  and  C_6 
REMARK    3  A    between atoms: C_6  and  N_7 
REMARK       I    between atoms: N_7  and  C_8 
REMARK    4  A    between atoms: C_8  and  C_9 
REMARK    5  A    between atoms: C_9  and  C_10 
REMARK    6  A    between atoms: C_11  and  C_12 
ROOT
HETATM    1  C   UNL     1      28.992  43.611  53.510  1.00  0.00     0.005 A 
HETATM    2  C   UNL     1      27.865  44.384  53.219  1.00  0.00     0.069 A 
HETATM    3  N   UNL     1      27.708  45.192  54.324  1.00  0.00    -0.277 N 
HETATM    4  H   UNL     1      26.987  45.885  54.486  1.00  0.00     0.189 HD
HETATM    5  N   UNL     1      28.619  45.007  55.282  1.00  0.00    -0.179 NA
HETATM    6  C   UNL     1      29.459  44.111  54.766  1.00  0.00     0.059 A 
HETATM    7  C   UNL     1      30.686  43.755  55.527  1.00  0.00     0.073 C 
ENDROOT
BRANCH   1   8
HETATM    8  C   UNL     1      29.644  42.527  52.710  1.00  0.00     0.146 C 
BRANCH   8   9
HETATM    9  C   UNL     1      28.630  41.456  52.327  1.00  0.00     0.222 C 
HETATM   10  N   UNL     1      28.664  41.013  51.024  1.00  0.00    -0.359 N 
HETATM   11  H   UNL     1      29.199  41.555  50.354  1.00  0.00     0.162 HD
HETATM   12  O   UNL     1      27.862  40.926  53.132  1.00  0.00    -0.273 OA
BRANCH  10  13
HETATM   13  C   UNL     1      27.725  40.024  50.503  1.00  0.00     0.155 C 
BRANCH  13  14
HETATM   14  C   UNL     1      28.346  38.799  49.771  1.00  0.00     0.206 C 
HETATM   15  N   UNL     1      27.746  37.478  50.255  1.00  0.00    -0.066 N 
HETATM   16  H   UNL     1      27.199  37.701  51.114  1.00  0.00     0.280 HD
HETATM   17  C   UNL     1      28.882  36.589  50.695  1.00  0.00     0.235 C 
HETATM   18  C   UNL     1      29.990  37.558  51.040  1.00  0.00     0.030 C 
HETATM   19  C   UNL     1      29.851  38.638  49.986  1.00  0.00     0.036 C 
BRANCH  15  20
HETATM   20  C   UNL     1      26.766  36.851  49.308  1.00  0.00     0.231 C 
HETATM   21  C   UNL     1      27.239  37.000  47.873  1.00  0.00     0.034 C 
ENDBRANCH  15  20
ENDBRANCH  13  14
ENDBRANCH  10  13
ENDBRANCH   8   9
ENDBRANCH   1   8
BRANCH   2  22
HETATM   22  C   UNL     1      26.945  44.478  52.076  1.00  0.00    -0.007 A 
HETATM   23  C   UNL     1      27.401  44.460  50.752  1.00  0.00     0.015 A 
HETATM   24  C   UNL     1      26.511  44.524  49.674  1.00  0.00     0.024 A 
HETATM   25  C   UNL     1      25.143  44.604  49.907  1.00  0.00     0.034 A 
HETATM   26 CL   UNL     1      24.050  44.667  48.583  1.00  0.00    -0.084 Cl
HETATM   27  C   UNL     1      24.662  44.632  51.210  1.00  0.00     0.024 A 
HETATM   28  C   UNL     1      25.557  44.575  52.285  1.00  0.00     0.015 A 
ENDBRANCH   2  22
TORSDOF 6
ENDMDL
