MODEL 1
REMARK VINA RESULT:      -9.3      0.000      0.000
REMARK  10 active torsions:
REMARK  status: ('A' for Active; 'I' for Inactive)
REMARK    1  A    between atoms: C_3  and  N_4 
REMARK       I    between atoms: N_4  and  C_5 
REMARK    2  A    between atoms: C_5  and  C_6 
REMARK    3  A    between atoms: C_13  and  C_14 
REMARK    4  A    between atoms: C_14  and  O_15 
REMARK    5  A    between atoms: O_15  and  C_16 
REMARK    6  A    between atoms: C_16  and  C_17 
REMARK       I    between atoms: C_17  and  N_18 
REMARK    7  A    between atoms: N_18  and  C_19 
REMARK    8  A    between atoms: C_19  and  C_20 
REMARK    9  A    between atoms: C_20  and  C_21 
REMARK   10  A    between atoms: C_24  and  O_25 
ROOT
HETATM    1  C   UNL     1      24.897  43.659  50.645  1.00  0.00     0.293 C 
HETATM    2  O   UNL     1      24.101  43.339  51.517  1.00  0.00    -0.259 OA
ENDROOT
BRANCH   1   3
HETATM    3  C   UNL     1      25.198  45.063  50.280  1.00  0.00     0.041 A 
HETATM    4  C   UNL     1      24.186  46.022  50.145  1.00  0.00     0.047 A 
HETATM    5  C   UNL     1      24.486  47.342  49.782  1.00  0.00     0.042 A 
HETATM    6  C   UNL     1      25.834  47.700  49.554  1.00  0.00    -0.035 A 
HETATM    7  C   UNL     1      26.264  49.080  49.127  1.00  0.00     0.050 C 
HETATM    8  C   UNL     1      26.841  46.727  49.694  1.00  0.00     0.010 A 
HETATM    9  C   UNL     1      26.530  45.421  50.067  1.00  0.00     0.018 A 
BRANCH   5  10
HETATM   10  N   UNL     1      23.476  48.316  49.620  1.00  0.00    -0.321 N 
HETATM   11  C   UNL     1      22.627  48.501  48.541  1.00  0.00     0.279 C 
HETATM   12  O   UNL     1      22.587  47.796  47.539  1.00  0.00    -0.265 OA
HETATM   13  H   UNL     1      23.295  48.944  50.394  1.00  0.00     0.169 HD
BRANCH  11  14
HETATM   14  C   UNL     1      21.727  49.626  48.720  1.00  0.00     0.142 A 
HETATM   15  O   UNL     1      21.492  50.113  49.981  1.00  0.00    -0.317 OA
HETATM   16  C   UNL     1      20.633  51.157  49.851  1.00  0.00     0.143 A 
HETATM   17  C   UNL     1      20.299  51.348  48.532  1.00  0.00     0.027 A 
HETATM   18  C   UNL     1      21.002  50.363  47.802  1.00  0.00     0.045 A 
ENDBRANCH  11  14
ENDBRANCH   5  10
ENDBRANCH   1   3
BRANCH   1  19
HETATM   19  O   UNL     1      25.654  42.809  49.915  1.00  0.00    -0.308 OA
BRANCH  19  20
HETATM   20  C   UNL     1      25.820  41.499  50.460  1.00  0.00     0.281 C 
BRANCH  20  21
HETATM   21  C   UNL     1      27.190  41.255  51.095  1.00  0.00     0.241 C 
HETATM   22  N   UNL     1      27.242  41.506  52.450  1.00  0.00    -0.359 N 
HETATM   23  H   UNL     1      26.355  41.628  52.938  1.00  0.00     0.162 HD
HETATM   24  O   UNL     1      28.164  40.894  50.439  1.00  0.00    -0.271 OA
BRANCH  22  25
HETATM   25  C   UNL     1      28.442  41.232  53.215  1.00  0.00     0.127 C 
BRANCH  25  26
HETATM   26  C   UNL     1      29.527  42.278  52.963  1.00  0.00     0.058 C 
BRANCH  26  27
HETATM   27  C   UNL     1      29.570  43.321  54.051  1.00  0.00    -0.057 A 
HETATM   28  C   UNL     1      30.618  43.332  54.977  1.00  0.00     0.010 A 
HETATM   29  C   UNL     1      30.650  44.290  55.993  1.00  0.00     0.037 A 
HETATM   30  C   UNL     1      29.640  45.247  56.104  1.00  0.00     0.068 A 
HETATM   31  C   UNL     1      28.587  45.233  55.190  1.00  0.00     0.037 A 
HETATM   32  C   UNL     1      28.552  44.275  54.170  1.00  0.00     0.010 A 
BRANCH  30  33
HETATM   33  O   UNL     1      29.797  46.126  57.140  1.00  0.00    -0.356 OA
HETATM   34  C   UNL     1      30.542  45.669  58.262  1.00  0.00     0.210 C 
ENDBRANCH  30  33
ENDBRANCH  26  27
ENDBRANCH  25  26
ENDBRANCH  22  25
ENDBRANCH  20  21
ENDBRANCH  19  20
ENDBRANCH   1  19
TORSDOF 10
ENDMDL
MODEL 2
REMARK VINA RESULT:      -8.9      1.800      2.284
REMARK  10 active torsions:
REMARK  status: ('A' for Active; 'I' for Inactive)
REMARK    1  A    between atoms: C_3  and  N_4 
REMARK       I    between atoms: N_4  and  C_5 
REMARK    2  A    between atoms: C_5  and  C_6 
REMARK    3  A    between atoms: C_13  and  C_14 
REMARK    4  A    between atoms: C_14  and  O_15 
REMARK    5  A    between atoms: O_15  and  C_16 
REMARK    6  A    between atoms: C_16  and  C_17 
REMARK       I    between atoms: C_17  and  N_18 
REMARK    7  A    between atoms: N_18  and  C_19 
REMARK    8  A    between atoms: C_19  and  C_20 
REMARK    9  A    between atoms: C_20  and  C_21 
REMARK   10  A    between atoms: C_24  and  O_25 
ROOT
HETATM    1  C   UNL     1      26.397  45.987  50.799  1.00  0.00     0.293 C 
HETATM    2  O   UNL     1      26.396  45.808  52.009  1.00  0.00    -0.259 OA
ENDROOT
BRANCH   1   3
HETATM    3  C   UNL     1      25.726  47.129  50.134  1.00  0.00     0.041 A 
HETATM    4  C   UNL     1      24.330  47.234  50.082  1.00  0.00     0.047 A 
HETATM    5  C   UNL     1      23.710  48.311  49.434  1.00  0.00     0.042 A 
HETATM    6  C   UNL     1      24.517  49.302  48.831  1.00  0.00    -0.035 A 
HETATM    7  C   UNL     1      23.955  50.482  48.080  1.00  0.00     0.050 C 
HETATM    8  C   UNL     1      25.918  49.185  48.891  1.00  0.00     0.010 A 
HETATM    9  C   UNL     1      26.520  48.115  49.548  1.00  0.00     0.018 A 
BRANCH   5  10
HETATM   10  N   UNL     1      22.304  48.420  49.354  1.00  0.00    -0.321 N 
HETATM   11  C   UNL     1      21.474  48.068  48.302  1.00  0.00     0.279 C 
HETATM   12  O   UNL     1      21.839  47.547  47.254  1.00  0.00    -0.265 OA
HETATM   13  H   UNL     1      21.807  48.752  50.172  1.00  0.00     0.169 HD
BRANCH  11  14
HETATM   14  C   UNL     1      20.075  48.349  48.570  1.00  0.00     0.142 A 
HETATM   15  O   UNL     1      19.394  47.584  49.483  1.00  0.00    -0.317 OA
HETATM   16  C   UNL     1      18.126  48.070  49.541  1.00  0.00     0.143 A 
HETATM   17  C   UNL     1      17.972  49.126  48.676  1.00  0.00     0.027 A 
HETATM   18  C   UNL     1      19.226  49.307  48.050  1.00  0.00     0.045 A 
ENDBRANCH  11  14
ENDBRANCH   5  10
ENDBRANCH   1   3
BRANCH   1  19
HETATM   19  O   UNL     1      27.034  45.219  49.886  1.00  0.00    -0.308 OA
BRANCH  19  20
HETATM   20  C   UNL     1      26.384  43.996  49.539  1.00  0.00     0.281 C 
BRANCH  20  21
HETATM   21  C   UNL     1      27.168  42.740  49.925  1.00  0.00     0.241 C 
HETATM   22  N   UNL     1      27.485  42.654  51.264  1.00  0.00    -0.359 N 
HETATM   23  H   UNL     1      27.013  43.299  51.899  1.00  0.00     0.162 HD
HETATM   24  O   UNL     1      27.509  41.898  49.098  1.00  0.00    -0.271 OA
BRANCH  22  25
HETATM   25  C   UNL     1      28.142  41.481  51.804  1.00  0.00     0.127 C 
BRANCH  25  26
HETATM   26  C   UNL     1      27.934  41.357  53.312  1.00  0.00     0.058 C 
BRANCH  26  27
HETATM   27  C   UNL     1      28.434  42.572  54.053  1.00  0.00    -0.057 A 
HETATM   28  C   UNL     1      27.564  43.628  54.344  1.00  0.00     0.010 A 
HETATM   29  C   UNL     1      28.031  44.759  55.018  1.00  0.00     0.037 A 
HETATM   30  C   UNL     1      29.368  44.857  55.408  1.00  0.00     0.068 A 
HETATM   31  C   UNL     1      30.241  43.811  55.111  1.00  0.00     0.037 A 
HETATM   32  C   UNL     1      29.776  42.675  54.435  1.00  0.00     0.010 A 
BRANCH  30  33
HETATM   33  O   UNL     1      29.688  46.014  56.062  1.00  0.00    -0.356 OA
HETATM   34  C   UNL     1      30.279  45.882  57.349  1.00  0.00     0.210 C 
ENDBRANCH  30  33
ENDBRANCH  26  27
ENDBRANCH  25  26
ENDBRANCH  22  25
ENDBRANCH  20  21
ENDBRANCH  19  20
ENDBRANCH   1  19
TORSDOF 10
ENDMDL
MODEL 3
REMARK VINA RESULT:      -8.8      2.255     10.826
REMARK  10 active torsions:
REMARK  status: ('A' for Active; 'I' for Inactive)
REMARK    1  A    between atoms: C_3  and  N_4 
REMARK       I    between atoms: N_4  and  C_5 
REMARK    2  A    between atoms: C_5  and  C_6 
REMARK    3  A    between atoms: C_13  and  C_14 
REMARK    4  A    between atoms: C_14  and  O_15 
REMARK    5  A    between atoms: O_15  and  C_16 
REMARK    6  A    between atoms: C_16  and  C_17 
REMARK       I    between atoms: C_17  and  N_18 
REMARK    7  A    between atoms: N_18  and  C_19 
REMARK    8  A    between atoms: C_19  and  C_20 
REMARK    9  A    between atoms: C_20  and  C_21 
REMARK   10  A    between atoms: C_24  and  O_25 
ROOT
HETATM    1  C   UNL     1      24.605  46.907  49.971  1.00  0.00     0.293 C 
HETATM    2  O   UNL     1      23.527  46.986  49.399  1.00  0.00    -0.259 OA
ENDROOT
BRANCH   1   3
HETATM    3  C   UNL     1      25.248  45.626  50.346  1.00  0.00     0.041 A 
HETATM    4  C   UNL     1      26.215  45.556  51.358  1.00  0.00     0.047 A 
HETATM    5  C   UNL     1      26.826  44.339  51.689  1.00  0.00     0.042 A 
HETATM    6  C   UNL     1      26.451  43.171  50.986  1.00  0.00    -0.035 A 
HETATM    7  C   UNL     1      27.069  41.820  51.238  1.00  0.00     0.050 C 
HETATM    8  C   UNL     1      25.478  43.256  49.973  1.00  0.00     0.010 A 
HETATM    9  C   UNL     1      24.870  44.470  49.663  1.00  0.00     0.018 A 
BRANCH   5  10
HETATM   10  N   UNL     1      27.818  44.254  52.690  1.00  0.00    -0.321 N 
HETATM   11  C   UNL     1      27.706  44.558  54.038  1.00  0.00     0.279 C 
HETATM   12  O   UNL     1      26.678  44.920  54.601  1.00  0.00    -0.265 OA
HETATM   13  H   UNL     1      28.724  43.884  52.430  1.00  0.00     0.169 HD
BRANCH  11  14
HETATM   14  C   UNL     1      28.950  44.372  54.763  1.00  0.00     0.142 A 
HETATM   15  O   UNL     1      29.285  45.241  55.770  1.00  0.00    -0.317 OA
HETATM   16  C   UNL     1      30.476  44.826  56.273  1.00  0.00     0.143 A 
HETATM   17  C   UNL     1      30.923  43.712  55.604  1.00  0.00     0.027 A 
HETATM   18  C   UNL     1      29.942  43.418  54.631  1.00  0.00     0.045 A 
ENDBRANCH  11  14
ENDBRANCH   5  10
ENDBRANCH   1   3
BRANCH   1  19
HETATM   19  O   UNL     1      25.399  47.949  50.309  1.00  0.00    -0.308 OA
BRANCH  19  20
HETATM   20  C   UNL     1      26.114  48.560  49.234  1.00  0.00     0.281 C 
BRANCH  20  21
HETATM   21  C   UNL     1      25.305  49.602  48.458  1.00  0.00     0.241 C 
HETATM   22  N   UNL     1      24.053  49.854  48.978  1.00  0.00    -0.359 N 
HETATM   23  H   UNL     1      23.854  49.498  49.913  1.00  0.00     0.162 HD
HETATM   24  O   UNL     1      25.733  50.142  47.441  1.00  0.00    -0.271 OA
BRANCH  22  25
HETATM   25  C   UNL     1      23.203  50.883  48.414  1.00  0.00     0.127 C 
BRANCH  25  26
HETATM   26  C   UNL     1      21.967  51.133  49.276  1.00  0.00     0.058 C 
BRANCH  26  27
HETATM   27  C   UNL     1      20.705  51.188  48.452  1.00  0.00    -0.057 A 
HETATM   28  C   UNL     1      20.530  50.319  47.370  1.00  0.00     0.010 A 
HETATM   29  C   UNL     1      19.367  50.379  46.599  1.00  0.00     0.037 A 
HETATM   30  C   UNL     1      18.365  51.307  46.889  1.00  0.00     0.068 A 
HETATM   31  C   UNL     1      18.540  52.184  47.960  1.00  0.00     0.037 A 
HETATM   32  C   UNL     1      19.704  52.125  48.736  1.00  0.00     0.010 A 
BRANCH  30  33
HETATM   33  O   UNL     1      17.281  51.255  46.058  1.00  0.00    -0.356 OA
HETATM   34  C   UNL     1      17.128  52.326  45.134  1.00  0.00     0.210 C 
ENDBRANCH  30  33
ENDBRANCH  26  27
ENDBRANCH  25  26
ENDBRANCH  22  25
ENDBRANCH  20  21
ENDBRANCH  19  20
ENDBRANCH   1  19
TORSDOF 10
ENDMDL
MODEL 4
REMARK VINA RESULT:      -8.7      2.100     10.991
REMARK  10 active torsions:
REMARK  status: ('A' for Active; 'I' for Inactive)
REMARK    1  A    between atoms: C_3  and  N_4 
REMARK       I    between atoms: N_4  and  C_5 
REMARK    2  A    between atoms: C_5  and  C_6 
REMARK    3  A    between atoms: C_13  and  C_14 
REMARK    4  A    between atoms: C_14  and  O_15 
REMARK    5  A    between atoms: O_15  and  C_16 
REMARK    6  A    between atoms: C_16  and  C_17 
REMARK       I    between atoms: C_17  and  N_18 
REMARK    7  A    between atoms: N_18  and  C_19 
REMARK    8  A    between atoms: C_19  and  C_20 
REMARK    9  A    between atoms: C_20  and  C_21 
REMARK   10  A    between atoms: C_24  and  O_25 
ROOT
HETATM    1  C   UNL     1      26.591  45.406  50.132  1.00  0.00     0.293 C 
HETATM    2  O   UNL     1      27.152  45.969  49.202  1.00  0.00    -0.259 OA
ENDROOT
BRANCH   1   3
HETATM    3  C   UNL     1      27.156  44.240  50.851  1.00  0.00     0.041 A 
HETATM    4  C   UNL     1      27.912  44.393  52.020  1.00  0.00     0.047 A 
HETATM    5  C   UNL     1      28.455  43.281  52.679  1.00  0.00     0.042 A 
HETATM    6  C   UNL     1      28.225  41.992  52.148  1.00  0.00    -0.035 A 
HETATM    7  C   UNL     1      28.790  40.734  52.756  1.00  0.00     0.050 C 
HETATM    8  C   UNL     1      27.463  41.853  50.974  1.00  0.00     0.010 A 
HETATM    9  C   UNL     1      26.920  42.966  50.335  1.00  0.00     0.018 A 
BRANCH   5  10
HETATM   10  N   UNL     1      29.238  43.419  53.846  1.00  0.00    -0.321 N 
HETATM   11  C   UNL     1      29.140  44.383  54.837  1.00  0.00     0.279 C 
HETATM   12  O   UNL     1      28.300  45.275  54.879  1.00  0.00    -0.265 OA
HETATM   13  H   UNL     1      29.937  42.710  54.034  1.00  0.00     0.169 HD
BRANCH  11  14
HETATM   14  C   UNL     1      30.136  44.220  55.881  1.00  0.00     0.142 A 
HETATM   15  O   UNL     1      30.120  45.055  56.970  1.00  0.00    -0.317 OA
HETATM   16  C   UNL     1      31.141  44.672  57.779  1.00  0.00     0.143 A 
HETATM   17  C   UNL     1      31.825  43.614  57.230  1.00  0.00     0.027 A 
HETATM   18  C   UNL     1      31.179  43.322  56.007  1.00  0.00     0.045 A 
ENDBRANCH  11  14
ENDBRANCH   5  10
ENDBRANCH   1   3
BRANCH   1  19
HETATM   19  O   UNL     1      25.411  45.772  50.681  1.00  0.00    -0.308 OA
BRANCH  19  20
HETATM   20  C   UNL     1      24.399  46.186  49.762  1.00  0.00     0.281 C 
BRANCH  20  21
HETATM   21  C   UNL     1      24.164  47.697  49.729  1.00  0.00     0.241 C 
HETATM   22  N   UNL     1      22.852  48.066  49.517  1.00  0.00    -0.359 N 
HETATM   23  H   UNL     1      22.142  47.338  49.604  1.00  0.00     0.162 HD
HETATM   24  O   UNL     1      25.079  48.508  49.853  1.00  0.00    -0.271 OA
BRANCH  22  25
HETATM   25  C   UNL     1      22.451  49.458  49.554  1.00  0.00     0.127 C 
BRANCH  25  26
HETATM   26  C   UNL     1      22.274  50.035  48.151  1.00  0.00     0.058 C 
BRANCH  26  27
HETATM   27  C   UNL     1      20.885  50.580  47.934  1.00  0.00    -0.057 A 
HETATM   28  C   UNL     1      20.447  51.700  48.649  1.00  0.00     0.010 A 
HETATM   29  C   UNL     1      19.155  52.196  48.459  1.00  0.00     0.037 A 
HETATM   30  C   UNL     1      18.281  51.583  47.559  1.00  0.00     0.068 A 
HETATM   31  C   UNL     1      18.709  50.460  46.852  1.00  0.00     0.037 A 
HETATM   32  C   UNL     1      20.004  49.960  47.040  1.00  0.00     0.010 A 
BRANCH  30  33
HETATM   33  O   UNL     1      17.050  52.174  47.468  1.00  0.00    -0.356 OA
HETATM   34  C   UNL     1      16.158  51.970  48.557  1.00  0.00     0.210 C 
ENDBRANCH  30  33
ENDBRANCH  26  27
ENDBRANCH  25  26
ENDBRANCH  22  25
ENDBRANCH  20  21
ENDBRANCH  19  20
ENDBRANCH   1  19
TORSDOF 10
ENDMDL
MODEL 5
REMARK VINA RESULT:      -8.7      2.853      5.295
REMARK  10 active torsions:
REMARK  status: ('A' for Active; 'I' for Inactive)
REMARK    1  A    between atoms: C_3  and  N_4 
REMARK       I    between atoms: N_4  and  C_5 
REMARK    2  A    between atoms: C_5  and  C_6 
REMARK    3  A    between atoms: C_13  and  C_14 
REMARK    4  A    between atoms: C_14  and  O_15 
REMARK    5  A    between atoms: O_15  and  C_16 
REMARK    6  A    between atoms: C_16  and  C_17 
REMARK       I    between atoms: C_17  and  N_18 
REMARK    7  A    between atoms: N_18  and  C_19 
REMARK    8  A    between atoms: C_19  and  C_20 
REMARK    9  A    between atoms: C_20  and  C_21 
REMARK   10  A    between atoms: C_24  and  O_25 
ROOT
HETATM    1  C   UNL     1      23.764  49.508  48.279  1.00  0.00     0.293 C 
HETATM    2  O   UNL     1      24.357  50.064  47.364  1.00  0.00    -0.259 OA
ENDROOT
BRANCH   1   3
HETATM    3  C   UNL     1      22.367  49.026  48.183  1.00  0.00     0.041 A 
HETATM    4  C   UNL     1      21.277  49.888  48.360  1.00  0.00     0.047 A 
HETATM    5  C   UNL     1      19.960  49.413  48.283  1.00  0.00     0.042 A 
HETATM    6  C   UNL     1      19.742  48.041  48.020  1.00  0.00    -0.035 A 
HETATM    7  C   UNL     1      18.371  47.420  47.951  1.00  0.00     0.050 C 
HETATM    8  C   UNL     1      20.846  47.187  47.844  1.00  0.00     0.010 A 
HETATM    9  C   UNL     1      22.149  47.675  47.911  1.00  0.00     0.018 A 
BRANCH   5  10
HETATM   10  N   UNL     1      18.851  50.264  48.480  1.00  0.00    -0.321 N 
HETATM   11  C   UNL     1      18.183  50.545  49.662  1.00  0.00     0.279 C 
HETATM   12  O   UNL     1      18.490  50.118  50.769  1.00  0.00    -0.265 OA
HETATM   13  H   UNL     1      18.505  50.784  47.683  1.00  0.00     0.169 HD
BRANCH  11  14
HETATM   14  C   UNL     1      17.066  51.453  49.475  1.00  0.00     0.142 A 
HETATM   15  O   UNL     1      16.884  52.494  50.351  1.00  0.00    -0.317 OA
HETATM   16  C   UNL     1      15.786  53.176  49.934  1.00  0.00     0.143 A 
HETATM   17  C   UNL     1      15.248  52.591  48.813  1.00  0.00     0.027 A 
HETATM   18  C   UNL     1      16.071  51.481  48.517  1.00  0.00     0.045 A 
ENDBRANCH  11  14
ENDBRANCH   5  10
ENDBRANCH   1   3
BRANCH   1  19
HETATM   19  O   UNL     1      24.286  49.204  49.489  1.00  0.00    -0.308 OA
BRANCH  19  20
HETATM   20  C   UNL     1      25.328  48.227  49.489  1.00  0.00     0.281 C 
BRANCH  20  21
HETATM   21  C   UNL     1      25.158  47.132  50.544  1.00  0.00     0.241 C 
HETATM   22  N   UNL     1      25.977  47.269  51.645  1.00  0.00    -0.359 N 
HETATM   23  H   UNL     1      26.458  48.161  51.762  1.00  0.00     0.162 HD
HETATM   24  O   UNL     1      24.376  46.195  50.399  1.00  0.00    -0.271 OA
BRANCH  22  25
HETATM   25  C   UNL     1      25.869  46.367  52.774  1.00  0.00     0.127 C 
BRANCH  25  26
HETATM   26  C   UNL     1      26.685  46.854  53.970  1.00  0.00     0.058 C 
BRANCH  26  27
HETATM   27  C   UNL     1      27.740  45.857  54.378  1.00  0.00    -0.057 A 
HETATM   28  C   UNL     1      28.611  46.144  55.435  1.00  0.00     0.010 A 
HETATM   29  C   UNL     1      29.597  45.226  55.803  1.00  0.00     0.037 A 
HETATM   30  C   UNL     1      29.734  44.014  55.124  1.00  0.00     0.068 A 
HETATM   31  C   UNL     1      28.876  43.729  54.062  1.00  0.00     0.037 A 
HETATM   32  C   UNL     1      27.886  44.646  53.691  1.00  0.00     0.010 A 
BRANCH  30  33
HETATM   33  O   UNL     1      30.737  43.209  55.590  1.00  0.00    -0.356 OA
HETATM   34  C   UNL     1      31.455  43.671  56.727  1.00  0.00     0.210 C 
ENDBRANCH  30  33
ENDBRANCH  26  27
ENDBRANCH  25  26
ENDBRANCH  22  25
ENDBRANCH  20  21
ENDBRANCH  19  20
ENDBRANCH   1  19
TORSDOF 10
ENDMDL
MODEL 6
REMARK VINA RESULT:      -8.6      1.779      2.258
REMARK  10 active torsions:
REMARK  status: ('A' for Active; 'I' for Inactive)
REMARK    1  A    between atoms: C_3  and  N_4 
REMARK       I    between atoms: N_4  and  C_5 
REMARK    2  A    between atoms: C_5  and  C_6 
REMARK    3  A    between atoms: C_13  and  C_14 
REMARK    4  A    between atoms: C_14  and  O_15 
REMARK    5  A    between atoms: O_15  and  C_16 
REMARK    6  A    between atoms: C_16  and  C_17 
REMARK       I    between atoms: C_17  and  N_18 
REMARK    7  A    between atoms: N_18  and  C_19 
REMARK    8  A    between atoms: C_19  and  C_20 
REMARK    9  A    between atoms: C_20  and  C_21 
REMARK   10  A    between atoms: C_24  and  O_25 
ROOT
HETATM    1  C   UNL     1      26.011  45.089  50.091  1.00  0.00     0.293 C 
HETATM    2  O   UNL     1      27.099  44.704  49.687  1.00  0.00    -0.259 OA
ENDROOT
BRANCH   1   3
HETATM    3  C   UNL     1      25.436  46.417  49.775  1.00  0.00     0.041 A 
HETATM    4  C   UNL     1      24.053  46.617  49.677  1.00  0.00     0.047 A 
HETATM    5  C   UNL     1      23.526  47.876  49.360  1.00  0.00     0.042 A 
HETATM    6  C   UNL     1      24.413  48.954  49.140  1.00  0.00    -0.035 A 
HETATM    7  C   UNL     1      23.956  50.338  48.760  1.00  0.00     0.050 C 
HETATM    8  C   UNL     1      25.800  48.740  49.242  1.00  0.00     0.010 A 
HETATM    9  C   UNL     1      26.310  47.485  49.571  1.00  0.00     0.018 A 
BRANCH   5  10
HETATM   10  N   UNL     1      22.135  48.089  49.236  1.00  0.00    -0.321 N 
HETATM   11  C   UNL     1      21.334  47.904  48.120  1.00  0.00     0.279 C 
HETATM   12  O   UNL     1      21.713  47.468  47.039  1.00  0.00    -0.265 OA
HETATM   13  H   UNL     1      21.623  48.369  50.064  1.00  0.00     0.169 HD
BRANCH  11  14
HETATM   14  C   UNL     1      19.945  48.251  48.361  1.00  0.00     0.142 A 
HETATM   15  O   UNL     1      19.505  48.431  49.648  1.00  0.00    -0.317 OA
HETATM   16  C   UNL     1      18.187  48.755  49.575  1.00  0.00     0.143 A 
HETATM   17  C   UNL     1      17.765  48.777  48.268  1.00  0.00     0.027 A 
HETATM   18  C   UNL     1      18.896  48.452  47.484  1.00  0.00     0.045 A 
ENDBRANCH  11  14
ENDBRANCH   5  10
ENDBRANCH   1   3
BRANCH   1  19
HETATM   19  O   UNL     1      25.145  44.367  50.839  1.00  0.00    -0.308 OA
BRANCH  19  20
HETATM   20  C   UNL     1      25.032  44.755  52.209  1.00  0.00     0.281 C 
BRANCH  20  21
HETATM   21  C   UNL     1      25.792  43.848  53.179  1.00  0.00     0.241 C 
HETATM   22  N   UNL     1      26.750  43.054  52.585  1.00  0.00    -0.359 N 
HETATM   23  H   UNL     1      27.010  43.274  51.624  1.00  0.00     0.162 HD
HETATM   24  O   UNL     1      25.541  43.815  54.381  1.00  0.00    -0.271 OA
BRANCH  22  25
HETATM   25  C   UNL     1      27.619  42.210  53.381  1.00  0.00     0.127 C 
BRANCH  25  26
HETATM   26  C   UNL     1      29.083  42.632  53.263  1.00  0.00     0.058 C 
BRANCH  26  27
HETATM   27  C   UNL     1      29.491  43.572  54.369  1.00  0.00    -0.057 A 
HETATM   28  C   UNL     1      30.528  43.226  55.243  1.00  0.00     0.010 A 
HETATM   29  C   UNL     1      30.896  44.091  56.276  1.00  0.00     0.037 A 
HETATM   30  C   UNL     1      30.237  45.309  56.457  1.00  0.00     0.068 A 
HETATM   31  C   UNL     1      29.195  45.653  55.596  1.00  0.00     0.037 A 
HETATM   32  C   UNL     1      28.824  44.788  54.559  1.00  0.00     0.010 A 
BRANCH  30  33
HETATM   33  O   UNL     1      30.701  46.059  57.503  1.00  0.00    -0.356 OA
HETATM   34  C   UNL     1      30.787  45.413  58.767  1.00  0.00     0.210 C 
ENDBRANCH  30  33
ENDBRANCH  26  27
ENDBRANCH  25  26
ENDBRANCH  22  25
ENDBRANCH  20  21
ENDBRANCH  19  20
ENDBRANCH   1  19
TORSDOF 10
ENDMDL
MODEL 7
REMARK VINA RESULT:      -8.5      2.841      4.499
REMARK  10 active torsions:
REMARK  status: ('A' for Active; 'I' for Inactive)
REMARK    1  A    between atoms: C_3  and  N_4 
REMARK       I    between atoms: N_4  and  C_5 
REMARK    2  A    between atoms: C_5  and  C_6 
REMARK    3  A    between atoms: C_13  and  C_14 
REMARK    4  A    between atoms: C_14  and  O_15 
REMARK    5  A    between atoms: O_15  and  C_16 
REMARK    6  A    between atoms: C_16  and  C_17 
REMARK       I    between atoms: C_17  and  N_18 
REMARK    7  A    between atoms: N_18  and  C_19 
REMARK    8  A    between atoms: C_19  and  C_20 
REMARK    9  A    between atoms: C_20  and  C_21 
REMARK   10  A    between atoms: C_24  and  O_25 
ROOT
HETATM    1  C   UNL     1      23.928  47.634  49.402  1.00  0.00     0.293 C 
HETATM    2  O   UNL     1      25.113  47.855  49.613  1.00  0.00    -0.259 OA
ENDROOT
BRANCH   1   3
HETATM    3  C   UNL     1      22.919  48.695  49.180  1.00  0.00     0.041 A 
HETATM    4  C   UNL     1      21.621  48.397  48.744  1.00  0.00     0.047 A 
HETATM    5  C   UNL     1      20.683  49.414  48.522  1.00  0.00     0.042 A 
HETATM    6  C   UNL     1      21.062  50.757  48.748  1.00  0.00    -0.035 A 
HETATM    7  C   UNL     1      20.144  51.927  48.508  1.00  0.00     0.050 C 
HETATM    8  C   UNL     1      22.368  51.042  49.187  1.00  0.00     0.010 A 
HETATM    9  C   UNL     1      23.287  50.020  49.415  1.00  0.00     0.018 A 
BRANCH   5  10
HETATM   10  N   UNL     1      19.378  49.133  48.061  1.00  0.00    -0.321 N 
HETATM   11  C   UNL     1      18.287  48.687  48.791  1.00  0.00     0.279 C 
HETATM   12  O   UNL     1      18.272  48.501  50.003  1.00  0.00    -0.265 OA
HETATM   13  H   UNL     1      19.169  49.315  47.087  1.00  0.00     0.169 HD
BRANCH  11  14
HETATM   14  C   UNL     1      17.107  48.482  47.971  1.00  0.00     0.142 A 
HETATM   15  O   UNL     1      17.145  47.575  46.942  1.00  0.00    -0.317 OA
HETATM   16  C   UNL     1      15.917  47.582  46.361  1.00  0.00     0.143 A 
HETATM   17  C   UNL     1      15.090  48.484  46.986  1.00  0.00     0.027 A 
HETATM   18  C   UNL     1      15.855  49.065  48.023  1.00  0.00     0.045 A 
ENDBRANCH  11  14
ENDBRANCH   5  10
ENDBRANCH   1   3
BRANCH   1  19
HETATM   19  O   UNL     1      23.360  46.412  49.291  1.00  0.00    -0.308 OA
BRANCH  19  20
HETATM   20  C   UNL     1      24.260  45.303  49.305  1.00  0.00     0.281 C 
BRANCH  20  21
HETATM   21  C   UNL     1      24.674  44.851  50.706  1.00  0.00     0.241 C 
HETATM   22  N   UNL     1      25.962  45.195  51.059  1.00  0.00    -0.359 N 
HETATM   23  H   UNL     1      26.444  45.873  50.469  1.00  0.00     0.162 HD
HETATM   24  O   UNL     1      23.924  44.209  51.438  1.00  0.00    -0.271 OA
BRANCH  22  25
HETATM   25  C   UNL     1      26.470  44.922  52.389  1.00  0.00     0.127 C 
BRANCH  25  26
HETATM   26  C   UNL     1      27.552  43.843  52.372  1.00  0.00     0.058 C 
BRANCH  26  27
HETATM   27  C   UNL     1      28.505  43.980  53.533  1.00  0.00    -0.057 A 
HETATM   28  C   UNL     1      28.386  45.055  54.420  1.00  0.00     0.010 A 
HETATM   29  C   UNL     1      29.277  45.189  55.487  1.00  0.00     0.037 A 
HETATM   30  C   UNL     1      30.301  44.260  55.683  1.00  0.00     0.068 A 
HETATM   31  C   UNL     1      30.430  43.193  54.795  1.00  0.00     0.037 A 
HETATM   32  C   UNL     1      29.537  43.055  53.725  1.00  0.00     0.010 A 
BRANCH  30  33
HETATM   33  O   UNL     1      31.098  44.509  56.767  1.00  0.00    -0.356 OA
HETATM   34  C   UNL     1      31.897  43.431  57.237  1.00  0.00     0.210 C 
ENDBRANCH  30  33
ENDBRANCH  26  27
ENDBRANCH  25  26
ENDBRANCH  22  25
ENDBRANCH  20  21
ENDBRANCH  19  20
ENDBRANCH   1  19
TORSDOF 10
ENDMDL
MODEL 8
REMARK VINA RESULT:      -8.4      2.276     10.355
REMARK  10 active torsions:
REMARK  status: ('A' for Active; 'I' for Inactive)
REMARK    1  A    between atoms: C_3  and  N_4 
REMARK       I    between atoms: N_4  and  C_5 
REMARK    2  A    between atoms: C_5  and  C_6 
REMARK    3  A    between atoms: C_13  and  C_14 
REMARK    4  A    between atoms: C_14  and  O_15 
REMARK    5  A    between atoms: O_15  and  C_16 
REMARK    6  A    between atoms: C_16  and  C_17 
REMARK       I    between atoms: C_17  and  N_18 
REMARK    7  A    between atoms: N_18  and  C_19 
REMARK    8  A    between atoms: C_19  and  C_20 
REMARK    9  A    between atoms: C_20  and  C_21 
REMARK   10  A    between atoms: C_24  and  O_25 
ROOT
HETATM    1  C   UNL     1      25.696  46.725  52.387  1.00  0.00     0.293 C 
HETATM    2  O   UNL     1      25.400  47.652  53.129  1.00  0.00    -0.259 OA
ENDROOT
BRANCH   1   3
HETATM    3  C   UNL     1      26.615  45.627  52.765  1.00  0.00     0.041 A 
HETATM    4  C   UNL     1      26.941  44.598  51.871  1.00  0.00     0.047 A 
HETATM    5  C   UNL     1      27.798  43.557  52.250  1.00  0.00     0.042 A 
HETATM    6  C   UNL     1      28.339  43.556  53.555  1.00  0.00    -0.035 A 
HETATM    7  C   UNL     1      29.242  42.469  54.077  1.00  0.00     0.050 C 
HETATM    8  C   UNL     1      28.005  44.596  54.443  1.00  0.00     0.010 A 
HETATM    9  C   UNL     1      27.160  45.631  54.049  1.00  0.00     0.018 A 
BRANCH   5  10
HETATM   10  N   UNL     1      28.119  42.501  51.368  1.00  0.00    -0.321 N 
HETATM   11  C   UNL     1      27.321  41.439  50.974  1.00  0.00     0.279 C 
HETATM   12  O   UNL     1      26.153  41.267  51.306  1.00  0.00    -0.265 OA
HETATM   13  H   UNL     1      29.025  42.521  50.915  1.00  0.00     0.169 HD
BRANCH  11  14
HETATM   14  C   UNL     1      28.001  40.529  50.069  1.00  0.00     0.142 A 
HETATM   15  O   UNL     1      28.041  40.812  48.727  1.00  0.00    -0.317 OA
HETATM   16  C   UNL     1      28.741  39.811  48.132  1.00  0.00     0.143 A 
HETATM   17  C   UNL     1      29.144  38.882  49.060  1.00  0.00     0.027 A 
HETATM   18  C   UNL     1      28.668  39.343  50.309  1.00  0.00     0.045 A 
ENDBRANCH  11  14
ENDBRANCH   5  10
ENDBRANCH   1   3
BRANCH   1  19
HETATM   19  O   UNL     1      25.208  46.524  51.141  1.00  0.00    -0.308 OA
BRANCH  19  20
HETATM   20  C   UNL     1      25.581  47.495  50.163  1.00  0.00     0.281 C 
BRANCH  20  21
HETATM   21  C   UNL     1      24.396  48.153  49.452  1.00  0.00     0.241 C 
HETATM   22  N   UNL     1      24.732  49.244  48.678  1.00  0.00    -0.359 N 
HETATM   23  H   UNL     1      25.722  49.393  48.481  1.00  0.00     0.162 HD
HETATM   24  O   UNL     1      23.243  47.755  49.590  1.00  0.00    -0.271 OA
BRANCH  22  25
HETATM   25  C   UNL     1      23.738  49.919  47.867  1.00  0.00     0.127 C 
BRANCH  25  26
HETATM   26  C   UNL     1      23.112  51.102  48.603  1.00  0.00     0.058 C 
BRANCH  26  27
HETATM   27  C   UNL     1      21.623  50.937  48.776  1.00  0.00    -0.057 A 
HETATM   28  C   UNL     1      20.803  50.727  47.662  1.00  0.00     0.010 A 
HETATM   29  C   UNL     1      19.422  50.588  47.820  1.00  0.00     0.037 A 
HETATM   30  C   UNL     1      18.838  50.661  49.086  1.00  0.00     0.068 A 
HETATM   31  C   UNL     1      19.650  50.881  50.198  1.00  0.00     0.037 A 
HETATM   32  C   UNL     1      21.035  51.020  50.043  1.00  0.00     0.010 A 
BRANCH  30  33
HETATM   33  O   UNL     1      17.479  50.504  49.097  1.00  0.00    -0.356 OA
HETATM   34  C   UNL     1      16.707  51.630  49.496  1.00  0.00     0.210 C 
ENDBRANCH  30  33
ENDBRANCH  26  27
ENDBRANCH  25  26
ENDBRANCH  22  25
ENDBRANCH  20  21
ENDBRANCH  19  20
ENDBRANCH   1  19
TORSDOF 10
ENDMDL
MODEL 9
REMARK VINA RESULT:      -8.3     12.223     15.373
REMARK  10 active torsions:
REMARK  status: ('A' for Active; 'I' for Inactive)
REMARK    1  A    between atoms: C_3  and  N_4 
REMARK       I    between atoms: N_4  and  C_5 
REMARK    2  A    between atoms: C_5  and  C_6 
REMARK    3  A    between atoms: C_13  and  C_14 
REMARK    4  A    between atoms: C_14  and  O_15 
REMARK    5  A    between atoms: O_15  and  C_16 
REMARK    6  A    between atoms: C_16  and  C_17 
REMARK       I    between atoms: C_17  and  N_18 
REMARK    7  A    between atoms: N_18  and  C_19 
REMARK    8  A    between atoms: C_19  and  C_20 
REMARK    9  A    between atoms: C_20  and  C_21 
REMARK   10  A    between atoms: C_24  and  O_25 
ROOT
HETATM    1  C   UNL     1      31.315  49.380  39.331  1.00  0.00     0.293 C 
HETATM    2  O   UNL     1      31.168  49.959  38.263  1.00  0.00    -0.259 OA
ENDROOT
BRANCH   1   3
HETATM    3  C   UNL     1      31.783  50.043  40.571  1.00  0.00     0.041 A 
HETATM    4  C   UNL     1      32.999  50.738  40.619  1.00  0.00     0.047 A 
HETATM    5  C   UNL     1      33.437  51.345  41.804  1.00  0.00     0.042 A 
HETATM    6  C   UNL     1      32.629  51.250  42.960  1.00  0.00    -0.035 A 
HETATM    7  C   UNL     1      33.020  51.835  44.293  1.00  0.00     0.050 C 
HETATM    8  C   UNL     1      31.410  50.550  42.897  1.00  0.00     0.010 A 
HETATM    9  C   UNL     1      30.982  49.962  41.709  1.00  0.00     0.018 A 
BRANCH   5  10
HETATM   10  N   UNL     1      34.669  52.030  41.876  1.00  0.00    -0.321 N 
HETATM   11  C   UNL     1      35.927  51.511  42.137  1.00  0.00     0.279 C 
HETATM   12  O   UNL     1      36.183  50.324  42.310  1.00  0.00    -0.265 OA
HETATM   13  H   UNL     1      34.673  53.022  41.670  1.00  0.00     0.169 HD
BRANCH  11  14
HETATM   14  C   UNL     1      36.963  52.527  42.156  1.00  0.00     0.142 A 
HETATM   15  O   UNL     1      36.612  53.853  42.201  1.00  0.00    -0.317 OA
HETATM   16  C   UNL     1      37.766  54.569  42.220  1.00  0.00     0.143 A 
HETATM   17  C   UNL     1      38.856  53.734  42.177  1.00  0.00     0.027 A 
HETATM   18  C   UNL     1      38.341  52.418  42.136  1.00  0.00     0.045 A 
ENDBRANCH  11  14
ENDBRANCH   5  10
ENDBRANCH   1   3
BRANCH   1  19
HETATM   19  O   UNL     1      31.036  48.078  39.570  1.00  0.00    -0.308 OA
BRANCH  19  20
HETATM   20  C   UNL     1      30.233  47.424  38.586  1.00  0.00     0.281 C 
BRANCH  20  21
HETATM   21  C   UNL     1      28.733  47.454  38.882  1.00  0.00     0.241 C 
HETATM   22  N   UNL     1      28.387  48.188  39.997  1.00  0.00    -0.359 N 
HETATM   23  H   UNL     1      29.101  48.797  40.396  1.00  0.00     0.162 HD
HETATM   24  O   UNL     1      27.915  46.847  38.196  1.00  0.00    -0.271 OA
BRANCH  22  25
HETATM   25  C   UNL     1      26.998  48.392  40.356  1.00  0.00     0.127 C 
BRANCH  25  26
HETATM   26  C   UNL     1      26.405  49.615  39.658  1.00  0.00     0.058 C 
BRANCH  26  27
HETATM   27  C   UNL     1      27.304  50.821  39.768  1.00  0.00    -0.057 A 
HETATM   28  C   UNL     1      27.557  51.400  41.016  1.00  0.00     0.010 A 
HETATM   29  C   UNL     1      28.379  52.525  41.117  1.00  0.00     0.037 A 
HETATM   30  C   UNL     1      28.956  53.091  39.978  1.00  0.00     0.068 A 
HETATM   31  C   UNL     1      28.698  52.524  38.731  1.00  0.00     0.037 A 
HETATM   32  C   UNL     1      27.875  51.396  38.627  1.00  0.00     0.010 A 
BRANCH  30  33
HETATM   33  O   UNL     1      29.740  54.185  40.221  1.00  0.00    -0.356 OA
HETATM   34  C   UNL     1      30.981  53.954  40.877  1.00  0.00     0.210 C 
ENDBRANCH  30  33
ENDBRANCH  26  27
ENDBRANCH  25  26
ENDBRANCH  22  25
ENDBRANCH  20  21
ENDBRANCH  19  20
ENDBRANCH   1  19
TORSDOF 10
ENDMDL
MODEL 10
REMARK VINA RESULT:      -8.2      3.136      5.703
REMARK  10 active torsions:
REMARK  status: ('A' for Active; 'I' for Inactive)
REMARK    1  A    between atoms: C_3  and  N_4 
REMARK       I    between atoms: N_4  and  C_5 
REMARK    2  A    between atoms: C_5  and  C_6 
REMARK    3  A    between atoms: C_13  and  C_14 
REMARK    4  A    between atoms: C_14  and  O_15 
REMARK    5  A    between atoms: O_15  and  C_16 
REMARK    6  A    between atoms: C_16  and  C_17 
REMARK       I    between atoms: C_17  and  N_18 
REMARK    7  A    between atoms: N_18  and  C_19 
REMARK    8  A    between atoms: C_19  and  C_20 
REMARK    9  A    between atoms: C_20  and  C_21 
REMARK   10  A    between atoms: C_24  and  O_25 
ROOT
HETATM    1  C   UNL     1      23.824  50.028  48.419  1.00  0.00     0.293 C 
HETATM    2  O   UNL     1      24.364  50.139  47.326  1.00  0.00    -0.259 OA
ENDROOT
BRANCH   1   3
HETATM    3  C   UNL     1      22.431  50.447  48.695  1.00  0.00     0.041 A 
HETATM    4  C   UNL     1      21.466  50.509  47.682  1.00  0.00     0.047 A 
HETATM    5  C   UNL     1      20.156  50.925  47.956  1.00  0.00     0.042 A 
HETATM    6  C   UNL     1      19.814  51.282  49.280  1.00  0.00    -0.035 A 
HETATM    7  C   UNL     1      18.447  51.774  49.678  1.00  0.00     0.050 C 
HETATM    8  C   UNL     1      20.793  51.214  50.289  1.00  0.00     0.010 A 
HETATM    9  C   UNL     1      22.088  50.788  50.004  1.00  0.00     0.018 A 
BRANCH   5  10
HETATM   10  N   UNL     1      19.177  51.013  46.942  1.00  0.00    -0.321 N 
HETATM   11  C   UNL     1      18.402  49.997  46.406  1.00  0.00     0.279 C 
HETATM   12  O   UNL     1      18.414  48.826  46.771  1.00  0.00    -0.265 OA
HETATM   13  H   UNL     1      18.958  51.931  46.573  1.00  0.00     0.169 HD
BRANCH  11  14
HETATM   14  C   UNL     1      17.513  50.461  45.356  1.00  0.00     0.142 A 
HETATM   15  O   UNL     1      16.191  50.096  45.376  1.00  0.00    -0.317 OA
HETATM   16  C   UNL     1      15.602  50.674  44.297  1.00  0.00     0.143 A 
HETATM   17  C   UNL     1      16.520  51.395  43.573  1.00  0.00     0.027 A 
HETATM   18  C   UNL     1      17.752  51.259  44.253  1.00  0.00     0.045 A 
ENDBRANCH  11  14
ENDBRANCH   5  10
ENDBRANCH   1   3
BRANCH   1  19
HETATM   19  O   UNL     1      24.377  49.473  49.521  1.00  0.00    -0.308 OA
BRANCH  19  20
HETATM   20  C   UNL     1      25.356  48.460  49.284  1.00  0.00     0.281 C 
BRANCH  20  21
HETATM   21  C   UNL     1      25.129  47.173  50.078  1.00  0.00     0.241 C 
HETATM   22  N   UNL     1      26.102  46.903  51.017  1.00  0.00    -0.359 N 
HETATM   23  H   UNL     1      26.755  47.654  51.243  1.00  0.00     0.162 HD
HETATM   24  O   UNL     1      24.172  46.432  49.870  1.00  0.00    -0.271 OA
BRANCH  22  25
HETATM   25  C   UNL     1      25.982  45.773  51.916  1.00  0.00     0.127 C 
BRANCH  25  26
HETATM   26  C   UNL     1      25.930  46.212  53.378  1.00  0.00     0.058 C 
BRANCH  26  27
HETATM   27  C   UNL     1      27.189  45.846  54.123  1.00  0.00    -0.057 A 
HETATM   28  C   UNL     1      27.885  44.676  53.801  1.00  0.00     0.010 A 
HETATM   29  C   UNL     1      29.043  44.330  54.500  1.00  0.00     0.037 A 
HETATM   30  C   UNL     1      29.523  45.140  55.532  1.00  0.00     0.068 A 
HETATM   31  C   UNL     1      28.827  46.301  55.864  1.00  0.00     0.037 A 
HETATM   32  C   UNL     1      27.665  46.652  55.164  1.00  0.00     0.010 A 
BRANCH  30  33
HETATM   33  O   UNL     1      30.666  44.685  56.129  1.00  0.00    -0.356 OA
HETATM   34  C   UNL     1      30.909  43.285  56.069  1.00  0.00     0.210 C 
ENDBRANCH  30  33
ENDBRANCH  26  27
ENDBRANCH  25  26
ENDBRANCH  22  25
ENDBRANCH  20  21
ENDBRANCH  19  20
ENDBRANCH   1  19
TORSDOF 10
ENDMDL
