MODEL 1
REMARK VINA RESULT:      -9.6      0.000      0.000
REMARK  10 active torsions:
REMARK  status: ('A' for Active; 'I' for Inactive)
REMARK    1  A    between atoms: C_2  and  C_3 
REMARK    2  A    between atoms: N_4  and  N_5 
REMARK       I    between atoms: N_5  and  C_6 
REMARK    3  A    between atoms: C_6  and  C_7 
REMARK    4  A    between atoms: N_10  and  C_11 
REMARK    5  A    between atoms: C_15  and  N_16 
REMARK    6  A    between atoms: C_17  and  C_18 
REMARK    7  A    between atoms: C_18  and  N_19 
REMARK    8  A    between atoms: C_29  and  O_30 
REMARK    9  A    between atoms: O_30  and  C_31 
REMARK   10  A    between atoms: C_31  and  C_32 
ROOT
HETATM    1  N   UNL     1      23.275  49.952  49.634  1.00  0.00    -0.242 N 
HETATM    2  C   UNL     1      22.215  50.039  48.749  1.00  0.00     0.294 C 
HETATM    3  O   UNL     1      21.757  51.142  48.442  1.00  0.00    -0.264 OA
HETATM    4  H   UNL     1      23.660  50.823  49.984  1.00  0.00     0.192 HD
ENDROOT
BRANCH   2   5
HETATM    5  C   UNL     1      21.666  48.819  48.145  1.00  0.00     0.176 A 
HETATM    6  N   UNL     1      22.256  48.097  47.148  1.00  0.00    -0.124 NA
HETATM    7  N   UNL     1      21.475  47.080  46.837  1.00  0.00    -0.058 NA
HETATM    8  N   UNL     1      20.386  47.096  47.640  1.00  0.00    -0.191 N 
HETATM    9  C   UNL     1      20.465  48.201  48.485  1.00  0.00     0.102 A 
BRANCH   8  10
HETATM   10  C   UNL     1      19.402  46.079  47.589  1.00  0.00     0.229 A 
HETATM   11  N   UNL     1      19.613  44.907  48.196  1.00  0.00    -0.081 NA
HETATM   12  O   UNL     1      18.450  44.179  47.922  1.00  0.00    -0.103 OA
HETATM   13  N   UNL     1      17.578  44.908  47.128  1.00  0.00    -0.083 NA
HETATM   14  C   UNL     1      18.166  46.085  46.921  1.00  0.00     0.201 A 
BRANCH  14  15
HETATM   15  N   UNL     1      17.642  47.081  46.192  1.00  0.00    -0.379 N 
HETATM   16  H   UNL     1      16.726  47.463  46.412  1.00  0.00     0.158 HD
HETATM   17  H   UNL     1      18.128  47.544  45.426  1.00  0.00     0.158 HD
ENDBRANCH  14  15
ENDBRANCH   8  10
BRANCH   9  18
HETATM   18  C   UNL     1      19.413  48.616  49.443  1.00  0.00     0.296 C 
BRANCH  18  19
HETATM   19  N   UNL     1      18.680  49.883  49.069  1.00  0.00    -0.066 N 
HETATM   20  H   UNL     1      19.195  50.277  48.266  1.00  0.00     0.280 HD
HETATM   21  C   UNL     1      17.244  49.654  48.656  1.00  0.00     0.235 C 
HETATM   22  C   UNL     1      16.656  50.965  48.151  1.00  0.00     0.028 C 
HETATM   23  C   UNL     1      16.769  52.075  49.190  1.00  0.00     0.003 C 
HETATM   24  C   UNL     1      18.204  52.233  49.679  1.00  0.00     0.028 C 
HETATM   25  C   UNL     1      18.780  50.914  50.171  1.00  0.00     0.235 C 
ENDBRANCH  18  19
ENDBRANCH   9  18
ENDBRANCH   2   5
BRANCH   1  26
HETATM   26  N   UNL     1      23.765  48.772  50.088  1.00  0.00    -0.184 NA
HETATM   27  C   UNL     1      24.838  48.330  49.516  1.00  0.00     0.150 C 
BRANCH  27  28
HETATM   28  C   UNL     1      25.468  47.073  49.968  1.00  0.00    -0.017 A 
HETATM   29  C   UNL     1      24.778  46.230  50.837  1.00  0.00     0.016 A 
HETATM   30  C   UNL     1      25.390  45.054  51.283  1.00  0.00     0.037 A 
HETATM   31  C   UNL     1      26.677  44.708  50.854  1.00  0.00     0.069 A 
HETATM   32  C   UNL     1      27.348  45.543  49.962  1.00  0.00     0.037 A 
HETATM   33  C   UNL     1      26.750  46.731  49.529  1.00  0.00     0.016 A 
BRANCH  31  34
HETATM   34  O   UNL     1      27.160  43.544  51.385  1.00  0.00    -0.347 OA
BRANCH  34  35
HETATM   35  C   UNL     1      26.757  43.213  52.712  1.00  0.00     0.216 C 
BRANCH  35  36
HETATM   36  C   UNL     1      27.937  43.418  53.632  1.00  0.00    -0.012 A 
HETATM   37  C   UNL     1      28.942  42.446  53.788  1.00  0.00     0.044 A 
HETATM   38 CL   UNL     1      28.894  40.941  52.939  1.00  0.00    -0.084 Cl
HETATM   39  C   UNL     1      30.021  42.665  54.649  1.00  0.00     0.048 A 
HETATM   40  C   UNL     1      30.111  43.864  55.350  1.00  0.00     0.035 A 
HETATM   41 CL   UNL     1      31.435  44.133  56.414  1.00  0.00    -0.084 Cl
HETATM   42  C   UNL     1      29.137  44.847  55.196  1.00  0.00     0.024 A 
HETATM   43  C   UNL     1      28.058  44.628  54.337  1.00  0.00     0.013 A 
ENDBRANCH  35  36
ENDBRANCH  34  35
ENDBRANCH  31  34
ENDBRANCH  27  28
ENDBRANCH   1  26
TORSDOF 10
ENDMDL
MODEL 2
REMARK VINA RESULT:      -9.3      2.094      4.355
REMARK  10 active torsions:
REMARK  status: ('A' for Active; 'I' for Inactive)
REMARK    1  A    between atoms: C_2  and  C_3 
REMARK    2  A    between atoms: N_4  and  N_5 
REMARK       I    between atoms: N_5  and  C_6 
REMARK    3  A    between atoms: C_6  and  C_7 
REMARK    4  A    between atoms: N_10  and  C_11 
REMARK    5  A    between atoms: C_15  and  N_16 
REMARK    6  A    between atoms: C_17  and  C_18 
REMARK    7  A    between atoms: C_18  and  N_19 
REMARK    8  A    between atoms: C_29  and  O_30 
REMARK    9  A    between atoms: O_30  and  C_31 
REMARK   10  A    between atoms: C_31  and  C_32 
ROOT
HETATM    1  N   UNL     1      20.417  44.122  46.377  1.00  0.00    -0.242 N 
HETATM    2  C   UNL     1      19.340  44.940  46.084  1.00  0.00     0.294 C 
HETATM    3  O   UNL     1      18.866  44.951  44.946  1.00  0.00    -0.264 OA
HETATM    4  H   UNL     1      20.766  43.529  45.631  1.00  0.00     0.192 HD
ENDROOT
BRANCH   2   5
HETATM    5  C   UNL     1      18.738  45.761  47.142  1.00  0.00     0.176 A 
HETATM    6  N   UNL     1      17.691  45.386  47.933  1.00  0.00    -0.124 NA
HETATM    7  N   UNL     1      17.400  46.376  48.755  1.00  0.00    -0.058 NA
HETATM    8  N   UNL     1      18.265  47.396  48.545  1.00  0.00    -0.191 N 
HETATM    9  C   UNL     1      19.132  47.045  47.512  1.00  0.00     0.102 A 
BRANCH   8  10
HETATM   10  C   UNL     1      18.246  48.571  49.334  1.00  0.00     0.229 A 
HETATM   11  N   UNL     1      18.881  48.602  50.510  1.00  0.00    -0.081 NA
HETATM   12  O   UNL     1      18.632  49.894  50.985  1.00  0.00    -0.103 OA
HETATM   13  N   UNL     1      17.826  50.604  50.108  1.00  0.00    -0.083 NA
HETATM   14  C   UNL     1      17.585  49.786  49.085  1.00  0.00     0.201 A 
BRANCH  14  15
HETATM   15  N   UNL     1      16.836  50.099  48.018  1.00  0.00    -0.379 N 
HETATM   16  H   UNL     1      16.016  49.548  47.777  1.00  0.00     0.158 HD
HETATM   17  H   UNL     1      17.000  50.909  47.424  1.00  0.00     0.158 HD
ENDBRANCH  14  15
ENDBRANCH   8  10
BRANCH   9  18
HETATM   18  C   UNL     1      20.160  47.937  46.924  1.00  0.00     0.296 C 
BRANCH  18  19
HETATM   19  N   UNL     1      20.903  48.792  47.924  1.00  0.00    -0.066 N 
HETATM   20  H   UNL     1      20.382  48.702  48.811  1.00  0.00     0.280 HD
HETATM   21  C   UNL     1      22.330  48.352  48.156  1.00  0.00     0.235 C 
HETATM   22  C   UNL     1      22.927  49.177  49.290  1.00  0.00     0.028 C 
HETATM   23  C   UNL     1      22.841  50.673  49.010  1.00  0.00     0.003 C 
HETATM   24  C   UNL     1      21.415  51.093  48.675  1.00  0.00     0.028 C 
HETATM   25  C   UNL     1      20.830  50.255  47.548  1.00  0.00     0.235 C 
ENDBRANCH  18  19
ENDBRANCH   9  18
ENDBRANCH   2   5
BRANCH   1  26
HETATM   26  N   UNL     1      21.047  44.129  47.578  1.00  0.00    -0.184 NA
HETATM   27  C   UNL     1      22.336  44.010  47.558  1.00  0.00     0.150 C 
BRANCH  27  28
HETATM   28  C   UNL     1      23.114  44.045  48.812  1.00  0.00    -0.017 A 
HETATM   29  C   UNL     1      23.187  42.905  49.611  1.00  0.00     0.016 A 
HETATM   30  C   UNL     1      23.903  42.952  50.811  1.00  0.00     0.037 A 
HETATM   31  C   UNL     1      24.559  44.122  51.210  1.00  0.00     0.069 A 
HETATM   32  C   UNL     1      24.504  45.250  50.391  1.00  0.00     0.037 A 
HETATM   33  C   UNL     1      23.772  45.216  49.199  1.00  0.00     0.016 A 
BRANCH  31  34
HETATM   34  O   UNL     1      25.202  44.033  52.413  1.00  0.00    -0.347 OA
BRANCH  34  35
HETATM   35  C   UNL     1      25.859  45.205  52.893  1.00  0.00     0.216 C 
BRANCH  35  36
HETATM   36  C   UNL     1      27.122  44.784  53.605  1.00  0.00    -0.012 A 
HETATM   37  C   UNL     1      27.794  45.634  54.501  1.00  0.00     0.044 A 
HETATM   38 CL   UNL     1      27.224  47.228  54.847  1.00  0.00    -0.084 Cl
HETATM   39  C   UNL     1      28.963  45.215  55.143  1.00  0.00     0.048 A 
HETATM   40  C   UNL     1      29.461  43.937  54.905  1.00  0.00     0.035 A 
HETATM   41 CL   UNL     1      30.901  43.423  55.691  1.00  0.00    -0.084 Cl
HETATM   42  C   UNL     1      28.800  43.073  54.036  1.00  0.00     0.024 A 
HETATM   43  C   UNL     1      27.634  43.491  53.392  1.00  0.00     0.013 A 
ENDBRANCH  35  36
ENDBRANCH  34  35
ENDBRANCH  31  34
ENDBRANCH  27  28
ENDBRANCH   1  26
TORSDOF 10
ENDMDL
MODEL 3
REMARK VINA RESULT:      -9.2      5.429     11.294
REMARK  10 active torsions:
REMARK  status: ('A' for Active; 'I' for Inactive)
REMARK    1  A    between atoms: C_2  and  C_3 
REMARK    2  A    between atoms: N_4  and  N_5 
REMARK       I    between atoms: N_5  and  C_6 
REMARK    3  A    between atoms: C_6  and  C_7 
REMARK    4  A    between atoms: N_10  and  C_11 
REMARK    5  A    between atoms: C_15  and  N_16 
REMARK    6  A    between atoms: C_17  and  C_18 
REMARK    7  A    between atoms: C_18  and  N_19 
REMARK    8  A    between atoms: C_29  and  O_30 
REMARK    9  A    between atoms: O_30  and  C_31 
REMARK   10  A    between atoms: C_31  and  C_32 
ROOT
HETATM    1  N   UNL     1      23.971  43.202  47.888  1.00  0.00    -0.242 N 
HETATM    2  C   UNL     1      24.296  42.300  48.885  1.00  0.00     0.294 C 
HETATM    3  O   UNL     1      24.253  41.088  48.659  1.00  0.00    -0.264 OA
HETATM    4  H   UNL     1      23.729  42.822  46.979  1.00  0.00     0.192 HD
ENDROOT
BRANCH   2   5
HETATM    5  C   UNL     1      24.735  42.789  50.198  1.00  0.00     0.176 A 
HETATM    6  N   UNL     1      23.913  43.273  51.175  1.00  0.00    -0.124 NA
HETATM    7  N   UNL     1      24.648  43.642  52.207  1.00  0.00    -0.058 NA
HETATM    8  N   UNL     1      25.948  43.376  51.943  1.00  0.00    -0.191 N 
HETATM    9  C   UNL     1      26.047  42.839  50.661  1.00  0.00     0.102 A 
BRANCH   8  10
HETATM   10  C   UNL     1      26.968  43.597  52.900  1.00  0.00     0.229 A 
HETATM   11  N   UNL     1      27.402  44.837  53.148  1.00  0.00    -0.081 NA
HETATM   12  O   UNL     1      28.392  44.653  54.119  1.00  0.00    -0.103 OA
HETATM   13  N   UNL     1      28.561  43.308  54.412  1.00  0.00    -0.083 NA
HETATM   14  C   UNL     1      27.681  42.653  53.659  1.00  0.00     0.201 A 
BRANCH  14  15
HETATM   15  N   UNL     1      27.528  41.321  53.647  1.00  0.00    -0.379 N 
HETATM   16  H   UNL     1      27.482  40.793  54.515  1.00  0.00     0.158 HD
HETATM   17  H   UNL     1      27.401  40.769  52.801  1.00  0.00     0.158 HD
ENDBRANCH  14  15
ENDBRANCH   8  10
BRANCH   9  18
HETATM   18  C   UNL     1      27.318  42.510  49.973  1.00  0.00     0.296 C 
BRANCH  18  19
HETATM   19  N   UNL     1      27.412  41.091  49.462  1.00  0.00    -0.066 N 
HETATM   20  H   UNL     1      26.482  40.674  49.622  1.00  0.00     0.280 HD
HETATM   21  C   UNL     1      27.736  40.997  47.989  1.00  0.00     0.235 C 
HETATM   22  C   UNL     1      27.648  39.540  47.551  1.00  0.00     0.028 C 
HETATM   23  C   UNL     1      28.557  38.642  48.382  1.00  0.00     0.003 C 
HETATM   24  C   UNL     1      28.297  38.817  49.874  1.00  0.00     0.028 C 
HETATM   25  C   UNL     1      28.379  40.277  50.293  1.00  0.00     0.235 C 
ENDBRANCH  18  19
ENDBRANCH   9  18
ENDBRANCH   2   5
BRANCH   1  26
HETATM   26  N   UNL     1      23.906  44.541  48.093  1.00  0.00    -0.184 NA
HETATM   27  C   UNL     1      22.733  45.083  48.021  1.00  0.00     0.150 C 
BRANCH  27  28
HETATM   28  C   UNL     1      22.556  46.528  48.267  1.00  0.00    -0.017 A 
HETATM   29  C   UNL     1      23.386  47.178  49.180  1.00  0.00     0.016 A 
HETATM   30  C   UNL     1      23.196  48.541  49.429  1.00  0.00     0.037 A 
HETATM   31  C   UNL     1      22.198  49.261  48.763  1.00  0.00     0.069 A 
HETATM   32  C   UNL     1      21.391  48.608  47.830  1.00  0.00     0.037 A 
HETATM   33  C   UNL     1      21.561  47.241  47.592  1.00  0.00     0.016 A 
BRANCH  31  34
HETATM   34  O   UNL     1      22.111  50.578  49.118  1.00  0.00    -0.347 OA
BRANCH  34  35
HETATM   35  C   UNL     1      21.208  50.914  50.170  1.00  0.00     0.216 C 
BRANCH  35  36
HETATM   36  C   UNL     1      19.844  51.152  49.568  1.00  0.00    -0.012 A 
HETATM   37  C   UNL     1      18.721  50.390  49.936  1.00  0.00     0.044 A 
HETATM   38 CL   UNL     1      18.825  49.118  51.102  1.00  0.00    -0.084 Cl
HETATM   39  C   UNL     1      17.472  50.634  49.359  1.00  0.00     0.048 A 
HETATM   40  C   UNL     1      17.332  51.651  48.420  1.00  0.00     0.035 A 
HETATM   41 CL   UNL     1      15.796  51.949  47.706  1.00  0.00    -0.084 Cl
HETATM   42  C   UNL     1      18.427  52.430  48.056  1.00  0.00     0.024 A 
HETATM   43  C   UNL     1      19.676  52.186  48.630  1.00  0.00     0.013 A 
ENDBRANCH  35  36
ENDBRANCH  34  35
ENDBRANCH  31  34
ENDBRANCH  27  28
ENDBRANCH   1  26
TORSDOF 10
ENDMDL
MODEL 4
REMARK VINA RESULT:      -9.2      1.540      2.074
REMARK  10 active torsions:
REMARK  status: ('A' for Active; 'I' for Inactive)
REMARK    1  A    between atoms: C_2  and  C_3 
REMARK    2  A    between atoms: N_4  and  N_5 
REMARK       I    between atoms: N_5  and  C_6 
REMARK    3  A    between atoms: C_6  and  C_7 
REMARK    4  A    between atoms: N_10  and  C_11 
REMARK    5  A    between atoms: C_15  and  N_16 
REMARK    6  A    between atoms: C_17  and  C_18 
REMARK    7  A    between atoms: C_18  and  N_19 
REMARK    8  A    between atoms: C_29  and  O_30 
REMARK    9  A    between atoms: O_30  and  C_31 
REMARK   10  A    between atoms: C_31  and  C_32 
ROOT
HETATM    1  N   UNL     1      24.256  49.537  48.749  1.00  0.00    -0.242 N 
HETATM    2  C   UNL     1      23.163  49.449  47.906  1.00  0.00     0.294 C 
HETATM    3  O   UNL     1      22.985  50.304  47.035  1.00  0.00    -0.264 OA
HETATM    4  H   UNL     1      24.899  50.307  48.596  1.00  0.00     0.192 HD
ENDROOT
BRANCH   2   5
HETATM    5  C   UNL     1      22.240  48.313  48.022  1.00  0.00     0.176 A 
HETATM    6  N   UNL     1      22.586  47.052  48.417  1.00  0.00    -0.124 NA
HETATM    7  N   UNL     1      21.513  46.286  48.384  1.00  0.00    -0.058 NA
HETATM    8  N   UNL     1      20.447  47.029  48.006  1.00  0.00    -0.191 N 
HETATM    9  C   UNL     1      20.873  48.332  47.754  1.00  0.00     0.102 A 
BRANCH   8  10
HETATM   10  C   UNL     1      19.138  46.492  47.953  1.00  0.00     0.229 A 
HETATM   11  N   UNL     1      18.152  47.050  48.663  1.00  0.00    -0.081 NA
HETATM   12  O   UNL     1      17.041  46.254  48.366  1.00  0.00    -0.103 OA
HETATM   13  N   UNL     1      17.382  45.214  47.514  1.00  0.00    -0.083 NA
HETATM   14  C   UNL     1      18.681  45.359  47.258  1.00  0.00     0.201 A 
BRANCH  14  15
HETATM   15  N   UNL     1      19.398  44.546  46.469  1.00  0.00    -0.379 N 
HETATM   16  H   UNL     1      19.030  44.224  45.579  1.00  0.00     0.158 HD
HETATM   17  H   UNL     1      20.349  44.245  46.676  1.00  0.00     0.158 HD
ENDBRANCH  14  15
ENDBRANCH   8  10
BRANCH   9  18
HETATM   18  C   UNL     1      20.017  49.419  47.224  1.00  0.00     0.296 C 
BRANCH  18  19
HETATM   19  N   UNL     1      19.185  50.133  48.264  1.00  0.00    -0.066 N 
HETATM   20  H   UNL     1      19.071  49.463  49.040  1.00  0.00     0.280 HD
HETATM   21  C   UNL     1      19.832  51.389  48.802  1.00  0.00     0.235 C 
HETATM   22  C   UNL     1      18.987  51.933  49.947  1.00  0.00     0.028 C 
HETATM   23  C   UNL     1      17.546  52.187  49.518  1.00  0.00     0.003 C 
HETATM   24  C   UNL     1      16.931  50.946  48.882  1.00  0.00     0.028 C 
HETATM   25  C   UNL     1      17.790  50.409  47.747  1.00  0.00     0.235 C 
ENDBRANCH  18  19
ENDBRANCH   9  18
ENDBRANCH   2   5
BRANCH   1  26
HETATM   26  N   UNL     1      24.462  48.688  49.786  1.00  0.00    -0.184 NA
HETATM   27  C   UNL     1      25.469  47.881  49.686  1.00  0.00     0.150 C 
BRANCH  27  28
HETATM   28  C   UNL     1      25.796  46.947  50.781  1.00  0.00    -0.017 A 
HETATM   29  C   UNL     1      26.483  45.767  50.498  1.00  0.00     0.016 A 
HETATM   30  C   UNL     1      26.766  44.873  51.535  1.00  0.00     0.037 A 
HETATM   31  C   UNL     1      26.384  45.156  52.852  1.00  0.00     0.069 A 
HETATM   32  C   UNL     1      25.723  46.353  53.130  1.00  0.00     0.037 A 
HETATM   33  C   UNL     1      25.417  47.241  52.094  1.00  0.00     0.016 A 
BRANCH  31  34
HETATM   34  O   UNL     1      26.707  44.187  53.761  1.00  0.00    -0.347 OA
BRANCH  34  35
HETATM   35  C   UNL     1      28.051  43.712  53.763  1.00  0.00     0.216 C 
BRANCH  35  36
HETATM   36  C   UNL     1      28.784  44.366  54.911  1.00  0.00    -0.012 A 
HETATM   37  C   UNL     1      30.079  43.971  55.292  1.00  0.00     0.044 A 
HETATM   38 CL   UNL     1      30.924  42.704  54.476  1.00  0.00    -0.084 Cl
HETATM   39  C   UNL     1      30.729  44.595  56.360  1.00  0.00     0.048 A 
HETATM   40  C   UNL     1      30.096  45.627  57.046  1.00  0.00     0.035 A 
HETATM   41 CL   UNL     1      30.894  46.392  58.364  1.00  0.00    -0.084 Cl
HETATM   42  C   UNL     1      28.822  46.045  56.673  1.00  0.00     0.024 A 
HETATM   43  C   UNL     1      28.170  45.422  55.607  1.00  0.00     0.013 A 
ENDBRANCH  35  36
ENDBRANCH  34  35
ENDBRANCH  31  34
ENDBRANCH  27  28
ENDBRANCH   1  26
TORSDOF 10
ENDMDL
MODEL 5
REMARK VINA RESULT:      -9.1      4.825     10.473
REMARK  10 active torsions:
REMARK  status: ('A' for Active; 'I' for Inactive)
REMARK    1  A    between atoms: C_2  and  C_3 
REMARK    2  A    between atoms: N_4  and  N_5 
REMARK       I    between atoms: N_5  and  C_6 
REMARK    3  A    between atoms: C_6  and  C_7 
REMARK    4  A    between atoms: N_10  and  C_11 
REMARK    5  A    between atoms: C_15  and  N_16 
REMARK    6  A    between atoms: C_17  and  C_18 
REMARK    7  A    between atoms: C_18  and  N_19 
REMARK    8  A    between atoms: C_29  and  O_30 
REMARK    9  A    between atoms: O_30  and  C_31 
REMARK   10  A    between atoms: C_31  and  C_32 
ROOT
HETATM    1  N   UNL     1      24.549  43.998  48.357  1.00  0.00    -0.242 N 
HETATM    2  C   UNL     1      25.358  43.546  49.384  1.00  0.00     0.294 C 
HETATM    3  O   UNL     1      26.168  42.640  49.179  1.00  0.00    -0.264 OA
HETATM    4  H   UNL     1      24.677  43.573  47.444  1.00  0.00     0.192 HD
ENDROOT
BRANCH   2   5
HETATM    5  C   UNL     1      25.278  44.178  50.707  1.00  0.00     0.176 A 
HETATM    6  N   UNL     1      24.485  43.759  51.736  1.00  0.00    -0.124 NA
HETATM    7  N   UNL     1      24.651  44.572  52.762  1.00  0.00    -0.058 NA
HETATM    8  N   UNL     1      25.574  45.508  52.441  1.00  0.00    -0.191 N 
HETATM    9  C   UNL     1      25.993  45.297  51.129  1.00  0.00     0.102 A 
BRANCH   8  10
HETATM   10  C   UNL     1      26.016  46.476  53.375  1.00  0.00     0.229 A 
HETATM   11  N   UNL     1      25.405  47.662  53.456  1.00  0.00    -0.081 NA
HETATM   12  O   UNL     1      26.114  48.331  54.459  1.00  0.00    -0.103 OA
HETATM   13  N   UNL     1      27.157  47.554  54.939  1.00  0.00    -0.083 NA
HETATM   14  C   UNL     1      27.099  46.405  54.269  1.00  0.00     0.201 A 
BRANCH  14  15
HETATM   15  N   UNL     1      27.943  45.378  54.440  1.00  0.00    -0.379 N 
HETATM   16  H   UNL     1      27.942  44.838  55.301  1.00  0.00     0.158 HD
HETATM   17  H   UNL     1      28.589  45.046  53.726  1.00  0.00     0.158 HD
ENDBRANCH  14  15
ENDBRANCH   8  10
BRANCH   9  18
HETATM   18  C   UNL     1      26.925  46.174  50.382  1.00  0.00     0.296 C 
BRANCH  18  19
HETATM   19  N   UNL     1      26.258  47.240  49.544  1.00  0.00    -0.066 N 
HETATM   20  H   UNL     1      26.166  46.836  48.599  1.00  0.00     0.280 HD
HETATM   21  C   UNL     1      24.883  47.628  50.038  1.00  0.00     0.235 C 
HETATM   22  C   UNL     1      24.245  48.582  49.036  1.00  0.00     0.028 C 
HETATM   23  C   UNL     1      25.115  49.808  48.786  1.00  0.00     0.003 C 
HETATM   24  C   UNL     1      26.532  49.410  48.387  1.00  0.00     0.028 C 
HETATM   25  C   UNL     1      27.152  48.450  49.392  1.00  0.00     0.235 C 
ENDBRANCH  18  19
ENDBRANCH   9  18
ENDBRANCH   2   5
BRANCH   1  26
HETATM   26  N   UNL     1      23.574  44.923  48.534  1.00  0.00    -0.184 NA
HETATM   27  C   UNL     1      22.629  44.948  47.649  1.00  0.00     0.150 C 
BRANCH  27  28
HETATM   28  C   UNL     1      21.503  45.894  47.777  1.00  0.00    -0.017 A 
HETATM   29  C   UNL     1      20.306  45.466  48.351  1.00  0.00     0.016 A 
HETATM   30  C   UNL     1      19.234  46.359  48.446  1.00  0.00     0.037 A 
HETATM   31  C   UNL     1      19.354  47.677  47.989  1.00  0.00     0.069 A 
HETATM   32  C   UNL     1      20.564  48.103  47.443  1.00  0.00     0.037 A 
HETATM   33  C   UNL     1      21.634  47.210  47.326  1.00  0.00     0.016 A 
BRANCH  31  34
HETATM   34  O   UNL     1      18.222  48.432  48.124  1.00  0.00    -0.347 OA
BRANCH  34  35
HETATM   35  C   UNL     1      18.135  49.625  47.348  1.00  0.00     0.216 C 
BRANCH  35  36
HETATM   36  C   UNL     1      17.496  50.699  48.197  1.00  0.00    -0.012 A 
HETATM   37  C   UNL     1      18.245  51.739  48.775  1.00  0.00     0.044 A 
HETATM   38 CL   UNL     1      19.956  51.860  48.560  1.00  0.00    -0.084 Cl
HETATM   39  C   UNL     1      17.624  52.717  49.557  1.00  0.00     0.048 A 
HETATM   40  C   UNL     1      16.248  52.671  49.755  1.00  0.00     0.035 A 
HETATM   41 CL   UNL     1      15.484  53.871  50.721  1.00  0.00    -0.084 Cl
HETATM   42  C   UNL     1      15.485  51.660  49.176  1.00  0.00     0.024 A 
HETATM   43  C   UNL     1      16.104  50.682  48.396  1.00  0.00     0.013 A 
ENDBRANCH  35  36
ENDBRANCH  34  35
ENDBRANCH  31  34
ENDBRANCH  27  28
ENDBRANCH   1  26
TORSDOF 10
ENDMDL
MODEL 6
REMARK VINA RESULT:      -8.9      2.165      3.918
REMARK  10 active torsions:
REMARK  status: ('A' for Active; 'I' for Inactive)
REMARK    1  A    between atoms: C_2  and  C_3 
REMARK    2  A    between atoms: N_4  and  N_5 
REMARK       I    between atoms: N_5  and  C_6 
REMARK    3  A    between atoms: C_6  and  C_7 
REMARK    4  A    between atoms: N_10  and  C_11 
REMARK    5  A    between atoms: C_15  and  N_16 
REMARK    6  A    between atoms: C_17  and  C_18 
REMARK    7  A    between atoms: C_18  and  N_19 
REMARK    8  A    between atoms: C_29  and  O_30 
REMARK    9  A    between atoms: O_30  and  C_31 
REMARK   10  A    between atoms: C_31  and  C_32 
ROOT
HETATM    1  N   UNL     1      21.907  44.307  47.333  1.00  0.00    -0.242 N 
HETATM    2  C   UNL     1      21.174  45.319  46.741  1.00  0.00     0.294 C 
HETATM    3  O   UNL     1      20.592  45.116  45.673  1.00  0.00    -0.264 OA
HETATM    4  H   UNL     1      21.916  43.406  46.865  1.00  0.00     0.192 HD
ENDROOT
BRANCH   2   5
HETATM    5  C   UNL     1      21.055  46.621  47.410  1.00  0.00     0.176 A 
HETATM    6  N   UNL     1      22.080  47.498  47.618  1.00  0.00    -0.124 NA
HETATM    7  N   UNL     1      21.617  48.550  48.265  1.00  0.00    -0.058 NA
HETATM    8  N   UNL     1      20.286  48.401  48.459  1.00  0.00    -0.191 N 
HETATM    9  C   UNL     1      19.889  47.172  47.935  1.00  0.00     0.102 A 
BRANCH   8  10
HETATM   10  C   UNL     1      19.498  49.410  49.064  1.00  0.00     0.229 A 
HETATM   11  N   UNL     1      19.334  50.591  48.457  1.00  0.00    -0.081 NA
HETATM   12  O   UNL     1      18.523  51.307  49.343  1.00  0.00    -0.103 OA
HETATM   13  N   UNL     1      18.242  50.563  50.479  1.00  0.00    -0.083 NA
HETATM   14  C   UNL     1      18.845  49.389  50.308  1.00  0.00     0.201 A 
BRANCH  14  15
HETATM   15  N   UNL     1      18.817  48.381  51.192  1.00  0.00    -0.379 N 
HETATM   16  H   UNL     1      19.654  47.843  51.397  1.00  0.00     0.158 HD
HETATM   17  H   UNL     1      17.996  48.124  51.738  1.00  0.00     0.158 HD
ENDBRANCH  14  15
ENDBRANCH   8  10
BRANCH   9  18
HETATM   18  C   UNL     1      18.524  46.604  48.040  1.00  0.00     0.296 C 
BRANCH  18  19
HETATM   19  N   UNL     1      17.449  47.406  47.346  1.00  0.00    -0.066 N 
HETATM   20  H   UNL     1      17.882  48.313  47.114  1.00  0.00     0.280 HD
HETATM   21  C   UNL     1      16.946  46.771  46.069  1.00  0.00     0.235 C 
HETATM   22  C   UNL     1      15.990  47.734  45.377  1.00  0.00     0.028 C 
HETATM   23  C   UNL     1      14.839  48.144  46.287  1.00  0.00     0.003 C 
HETATM   24  C   UNL     1      15.350  48.689  47.616  1.00  0.00     0.028 C 
HETATM   25  C   UNL     1      16.310  47.721  48.291  1.00  0.00     0.235 C 
ENDBRANCH  18  19
ENDBRANCH   9  18
ENDBRANCH   2   5
BRANCH   1  26
HETATM   26  N   UNL     1      22.648  44.486  48.454  1.00  0.00    -0.184 NA
HETATM   27  C   UNL     1      23.934  44.459  48.312  1.00  0.00     0.150 C 
BRANCH  27  28
HETATM   28  C   UNL     1      24.824  44.684  49.469  1.00  0.00    -0.017 A 
HETATM   29  C   UNL     1      26.112  44.152  49.460  1.00  0.00     0.016 A 
HETATM   30  C   UNL     1      26.941  44.345  50.570  1.00  0.00     0.037 A 
HETATM   31  C   UNL     1      26.499  45.077  51.678  1.00  0.00     0.069 A 
HETATM   32  C   UNL     1      25.218  45.630  51.665  1.00  0.00     0.037 A 
HETATM   33  C   UNL     1      24.376  45.422  50.568  1.00  0.00     0.016 A 
BRANCH  31  34
HETATM   34  O   UNL     1      27.404  45.169  52.699  1.00  0.00    -0.347 OA
BRANCH  34  35
HETATM   35  C   UNL     1      27.122  44.440  53.891  1.00  0.00     0.216 C 
BRANCH  35  36
HETATM   36  C   UNL     1      28.414  44.246  54.648  1.00  0.00    -0.012 A 
HETATM   37  C   UNL     1      28.921  45.222  55.525  1.00  0.00     0.044 A 
HETATM   38 CL   UNL     1      28.100  46.719  55.795  1.00  0.00    -0.084 Cl
HETATM   39  C   UNL     1      30.121  45.013  56.209  1.00  0.00     0.048 A 
HETATM   40  C   UNL     1      30.818  43.821  56.032  1.00  0.00     0.035 A 
HETATM   41 CL   UNL     1      32.298  43.565  56.871  1.00  0.00    -0.084 Cl
HETATM   42  C   UNL     1      30.324  42.835  55.184  1.00  0.00     0.024 A 
HETATM   43  C   UNL     1      29.125  43.043  54.498  1.00  0.00     0.013 A 
ENDBRANCH  35  36
ENDBRANCH  34  35
ENDBRANCH  31  34
ENDBRANCH  27  28
ENDBRANCH   1  26
TORSDOF 10
ENDMDL
MODEL 7
REMARK VINA RESULT:      -8.8      1.338      1.968
REMARK  10 active torsions:
REMARK  status: ('A' for Active; 'I' for Inactive)
REMARK    1  A    between atoms: C_2  and  C_3 
REMARK    2  A    between atoms: N_4  and  N_5 
REMARK       I    between atoms: N_5  and  C_6 
REMARK    3  A    between atoms: C_6  and  C_7 
REMARK    4  A    between atoms: N_10  and  C_11 
REMARK    5  A    between atoms: C_15  and  N_16 
REMARK    6  A    between atoms: C_17  and  C_18 
REMARK    7  A    between atoms: C_18  and  N_19 
REMARK    8  A    between atoms: C_29  and  O_30 
REMARK    9  A    between atoms: O_30  and  C_31 
REMARK   10  A    between atoms: C_31  and  C_32 
ROOT
HETATM    1  N   UNL     1      24.179  49.971  48.840  1.00  0.00    -0.242 N 
HETATM    2  C   UNL     1      22.855  50.232  48.537  1.00  0.00     0.294 C 
HETATM    3  O   UNL     1      22.421  51.384  48.608  1.00  0.00    -0.264 OA
HETATM    4  H   UNL     1      24.763  50.763  49.090  1.00  0.00     0.192 HD
ENDROOT
BRANCH   2   5
HETATM    5  C   UNL     1      21.980  49.142  48.088  1.00  0.00     0.176 A 
HETATM    6  N   UNL     1      22.343  48.137  47.237  1.00  0.00    -0.124 NA
HETATM    7  N   UNL     1      21.302  47.351  47.038  1.00  0.00    -0.058 NA
HETATM    8  N   UNL     1      20.260  47.798  47.774  1.00  0.00    -0.191 N 
HETATM    9  C   UNL     1      20.650  48.951  48.454  1.00  0.00     0.102 A 
BRANCH   8  10
HETATM   10  C   UNL     1      19.024  47.109  47.822  1.00  0.00     0.229 A 
HETATM   11  N   UNL     1      17.916  47.678  47.335  1.00  0.00    -0.081 NA
HETATM   12  O   UNL     1      16.924  46.718  47.564  1.00  0.00    -0.103 OA
HETATM   13  N   UNL     1      17.442  45.608  48.214  1.00  0.00    -0.083 NA
HETATM   14  C   UNL     1      18.741  45.848  48.375  1.00  0.00     0.201 A 
BRANCH  14  15
HETATM   15  N   UNL     1      19.604  45.011  48.969  1.00  0.00    -0.379 N 
HETATM   16  H   UNL     1      19.936  44.178  48.490  1.00  0.00     0.158 HD
HETATM   17  H   UNL     1      20.012  45.170  49.889  1.00  0.00     0.158 HD
ENDBRANCH  14  15
ENDBRANCH   8  10
BRANCH   9  18
HETATM   18  C   UNL     1      19.757  49.790  49.288  1.00  0.00     0.296 C 
BRANCH  18  19
HETATM   19  N   UNL     1      18.509  50.276  48.589  1.00  0.00    -0.066 N 
HETATM   20  H   UNL     1      18.098  49.444  48.138  1.00  0.00     0.280 HD
HETATM   21  C   UNL     1      17.484  50.875  49.523  1.00  0.00     0.235 C 
HETATM   22  C   UNL     1      16.214  51.181  48.739  1.00  0.00     0.028 C 
HETATM   23  C   UNL     1      16.487  52.095  47.551  1.00  0.00     0.003 C 
HETATM   24  C   UNL     1      17.595  51.536  46.665  1.00  0.00     0.028 C 
HETATM   25  C   UNL     1      18.853  51.227  47.464  1.00  0.00     0.235 C 
ENDBRANCH  18  19
ENDBRANCH   9  18
ENDBRANCH   2   5
BRANCH   1  26
HETATM   26  N   UNL     1      24.698  48.719  48.874  1.00  0.00    -0.184 NA
HETATM   27  C   UNL     1      24.811  48.168  50.040  1.00  0.00     0.150 C 
BRANCH  27  28
HETATM   28  C   UNL     1      25.330  46.792  50.175  1.00  0.00    -0.017 A 
HETATM   29  C   UNL     1      26.643  46.512  49.803  1.00  0.00     0.016 A 
HETATM   30  C   UNL     1      27.121  45.202  49.908  1.00  0.00     0.037 A 
HETATM   31  C   UNL     1      26.303  44.176  50.397  1.00  0.00     0.069 A 
HETATM   32  C   UNL     1      24.999  44.473  50.794  1.00  0.00     0.037 A 
HETATM   33  C   UNL     1      24.508  45.776  50.671  1.00  0.00     0.016 A 
BRANCH  31  34
HETATM   34  O   UNL     1      26.891  42.942  50.425  1.00  0.00    -0.347 OA
BRANCH  34  35
HETATM   35  C   UNL     1      26.745  42.175  51.618  1.00  0.00     0.216 C 
BRANCH  35  36
HETATM   36  C   UNL     1      27.785  42.637  52.611  1.00  0.00    -0.012 A 
HETATM   37  C   UNL     1      27.447  43.384  53.754  1.00  0.00     0.044 A 
HETATM   38 CL   UNL     1      25.815  43.833  54.101  1.00  0.00    -0.084 Cl
HETATM   39  C   UNL     1      28.433  43.798  54.654  1.00  0.00     0.048 A 
HETATM   40  C   UNL     1      29.763  43.457  54.425  1.00  0.00     0.035 A 
HETATM   41 CL   UNL     1      30.978  43.971  55.529  1.00  0.00    -0.084 Cl
HETATM   42  C   UNL     1      30.116  42.702  53.310  1.00  0.00     0.024 A 
HETATM   43  C   UNL     1      29.132  42.289  52.409  1.00  0.00     0.013 A 
ENDBRANCH  35  36
ENDBRANCH  34  35
ENDBRANCH  31  34
ENDBRANCH  27  28
ENDBRANCH   1  26
TORSDOF 10
ENDMDL
MODEL 8
REMARK VINA RESULT:      -8.3      2.940      4.131
REMARK  10 active torsions:
REMARK  status: ('A' for Active; 'I' for Inactive)
REMARK    1  A    between atoms: C_2  and  C_3 
REMARK    2  A    between atoms: N_4  and  N_5 
REMARK       I    between atoms: N_5  and  C_6 
REMARK    3  A    between atoms: C_6  and  C_7 
REMARK    4  A    between atoms: N_10  and  C_11 
REMARK    5  A    between atoms: C_15  and  N_16 
REMARK    6  A    between atoms: C_17  and  C_18 
REMARK    7  A    between atoms: C_18  and  N_19 
REMARK    8  A    between atoms: C_29  and  O_30 
REMARK    9  A    between atoms: O_30  and  C_31 
REMARK   10  A    between atoms: C_31  and  C_32 
ROOT
HETATM    1  N   UNL     1      23.436  48.763  49.891  1.00  0.00    -0.242 N 
HETATM    2  C   UNL     1      22.408  49.175  49.062  1.00  0.00     0.294 C 
HETATM    3  O   UNL     1      22.062  50.358  49.050  1.00  0.00    -0.264 OA
HETATM    4  H   UNL     1      23.893  49.475  50.452  1.00  0.00     0.192 HD
ENDROOT
BRANCH   2   5
HETATM    5  C   UNL     1      21.762  48.208  48.165  1.00  0.00     0.176 A 
HETATM    6  N   UNL     1      22.397  47.474  47.205  1.00  0.00    -0.124 NA
HETATM    7  N   UNL     1      21.506  46.730  46.578  1.00  0.00    -0.058 NA
HETATM    8  N   UNL     1      20.289  46.933  47.133  1.00  0.00    -0.191 N 
HETATM    9  C   UNL     1      20.408  47.881  48.147  1.00  0.00     0.102 A 
BRANCH   8  10
HETATM   10  C   UNL     1      19.144  46.211  46.715  1.00  0.00     0.229 A 
HETATM   11  N   UNL     1      18.599  46.448  45.518  1.00  0.00    -0.081 NA
HETATM   12  O   UNL     1      17.510  45.571  45.472  1.00  0.00    -0.103 OA
HETATM   13  N   UNL     1      17.398  44.849  46.650  1.00  0.00    -0.083 NA
HETATM   14  C   UNL     1      18.409  45.244  47.422  1.00  0.00     0.201 A 
BRANCH  14  15
HETATM   15  N   UNL     1      18.653  44.781  48.656  1.00  0.00    -0.379 N 
HETATM   16  H   UNL     1      18.204  43.935  48.995  1.00  0.00     0.158 HD
HETATM   17  H   UNL     1      19.319  45.202  49.302  1.00  0.00     0.158 HD
ENDBRANCH  14  15
ENDBRANCH   8  10
BRANCH   9  18
HETATM   18  C   UNL     1      19.278  48.442  48.925  1.00  0.00     0.296 C 
BRANCH  18  19
HETATM   19  N   UNL     1      19.092  49.935  48.786  1.00  0.00    -0.066 N 
HETATM   20  H   UNL     1      20.039  50.324  48.659  1.00  0.00     0.280 HD
HETATM   21  C   UNL     1      18.243  50.333  47.600  1.00  0.00     0.235 C 
HETATM   22  C   UNL     1      18.256  51.850  47.466  1.00  0.00     0.028 C 
HETATM   23  C   UNL     1      17.789  52.538  48.744  1.00  0.00     0.003 C 
HETATM   24  C   UNL     1      18.581  52.055  49.954  1.00  0.00     0.028 C 
HETATM   25  C   UNL     1      18.566  50.539  50.069  1.00  0.00     0.235 C 
ENDBRANCH  18  19
ENDBRANCH   9  18
ENDBRANCH   2   5
BRANCH   1  26
HETATM   26  N   UNL     1      23.805  47.465  50.025  1.00  0.00    -0.184 NA
HETATM   27  C   UNL     1      24.945  47.241  50.595  1.00  0.00     0.150 C 
BRANCH  27  28
HETATM   28  C   UNL     1      25.415  45.859  50.821  1.00  0.00    -0.017 A 
HETATM   29  C   UNL     1      26.606  45.433  50.236  1.00  0.00     0.016 A 
HETATM   30  C   UNL     1      27.032  44.115  50.430  1.00  0.00     0.037 A 
HETATM   31  C   UNL     1      26.288  43.228  51.217  1.00  0.00     0.069 A 
HETATM   32  C   UNL     1      25.112  43.673  51.822  1.00  0.00     0.037 A 
HETATM   33  C   UNL     1      24.669  44.983  51.613  1.00  0.00     0.016 A 
BRANCH  31  34
HETATM   34  O   UNL     1      26.810  41.967  51.304  1.00  0.00    -0.347 OA
BRANCH  34  35
HETATM   35  C   UNL     1      26.107  40.920  50.640  1.00  0.00     0.216 C 
BRANCH  35  36
HETATM   36  C   UNL     1      26.585  40.861  49.208  1.00  0.00    -0.012 A 
HETATM   37  C   UNL     1      25.698  40.948  48.120  1.00  0.00     0.044 A 
HETATM   38 CL   UNL     1      23.993  41.124  48.344  1.00  0.00    -0.084 Cl
HETATM   39  C   UNL     1      26.172  40.888  46.806  1.00  0.00     0.048 A 
HETATM   40  C   UNL     1      27.537  40.754  46.571  1.00  0.00     0.035 A 
HETATM   41 CL   UNL     1      28.120  40.676  44.955  1.00  0.00    -0.084 Cl
HETATM   42  C   UNL     1      28.433  40.685  47.634  1.00  0.00     0.024 A 
HETATM   43  C   UNL     1      27.961  40.744  48.947  1.00  0.00     0.013 A 
ENDBRANCH  35  36
ENDBRANCH  34  35
ENDBRANCH  31  34
ENDBRANCH  27  28
ENDBRANCH   1  26
TORSDOF 10
ENDMDL
MODEL 9
REMARK VINA RESULT:      -8.2     14.370     18.433
REMARK  10 active torsions:
REMARK  status: ('A' for Active; 'I' for Inactive)
REMARK    1  A    between atoms: C_2  and  C_3 
REMARK    2  A    between atoms: N_4  and  N_5 
REMARK       I    between atoms: N_5  and  C_6 
REMARK    3  A    between atoms: C_6  and  C_7 
REMARK    4  A    between atoms: N_10  and  C_11 
REMARK    5  A    between atoms: C_15  and  N_16 
REMARK    6  A    between atoms: C_17  and  C_18 
REMARK    7  A    between atoms: C_18  and  N_19 
REMARK    8  A    between atoms: C_29  and  O_30 
REMARK    9  A    between atoms: O_30  and  C_31 
REMARK   10  A    between atoms: C_31  and  C_32 
ROOT
HETATM    1  N   UNL     1      37.369  50.302  43.025  1.00  0.00    -0.242 N 
HETATM    2  C   UNL     1      38.418  50.745  43.811  1.00  0.00     0.294 C 
HETATM    3  O   UNL     1      39.406  50.028  43.982  1.00  0.00    -0.264 OA
HETATM    4  H   UNL     1      37.469  49.392  42.588  1.00  0.00     0.192 HD
ENDROOT
BRANCH   2   5
HETATM    5  C   UNL     1      38.369  52.087  44.405  1.00  0.00     0.176 A 
HETATM    6  N   UNL     1      37.986  52.371  45.684  1.00  0.00    -0.124 NA
HETATM    7  N   UNL     1      38.042  53.676  45.867  1.00  0.00    -0.058 NA
HETATM    8  N   UNL     1      38.493  54.264  44.734  1.00  0.00    -0.191 N 
HETATM    9  C   UNL     1      38.704  53.280  43.770  1.00  0.00     0.102 A 
BRANCH   8  10
HETATM   10  C   UNL     1      38.729  55.658  44.655  1.00  0.00     0.229 A 
HETATM   11  N   UNL     1      38.124  56.390  43.714  1.00  0.00    -0.081 NA
HETATM   12  O   UNL     1      38.603  57.685  43.945  1.00  0.00    -0.103 OA
HETATM   13  N   UNL     1      39.510  57.703  44.994  1.00  0.00    -0.083 NA
HETATM   14  C   UNL     1      39.590  56.449  45.434  1.00  0.00     0.201 A 
BRANCH  14  15
HETATM   15  N   UNL     1      40.370  56.044  46.447  1.00  0.00    -0.379 N 
HETATM   16  H   UNL     1      40.241  56.414  47.385  1.00  0.00     0.158 HD
HETATM   17  H   UNL     1      41.087  55.327  46.363  1.00  0.00     0.158 HD
ENDBRANCH  14  15
ENDBRANCH   8  10
BRANCH   9  18
HETATM   18  C   UNL     1      39.104  53.538  42.366  1.00  0.00     0.296 C 
BRANCH  18  19
HETATM   19  N   UNL     1      38.060  53.181  41.334  1.00  0.00    -0.066 N 
HETATM   20  H   UNL     1      37.336  52.647  41.841  1.00  0.00     0.280 HD
HETATM   21  C   UNL     1      37.409  54.382  40.689  1.00  0.00     0.235 C 
HETATM   22  C   UNL     1      36.271  53.911  39.792  1.00  0.00     0.028 C 
HETATM   23  C   UNL     1      36.748  52.907  38.750  1.00  0.00     0.003 C 
HETATM   24  C   UNL     1      37.495  51.747  39.398  1.00  0.00     0.028 C 
HETATM   25  C   UNL     1      38.621  52.234  40.297  1.00  0.00     0.235 C 
ENDBRANCH  18  19
ENDBRANCH   9  18
ENDBRANCH   2   5
BRANCH   1  26
HETATM   26  N   UNL     1      36.214  50.996  42.872  1.00  0.00    -0.184 NA
HETATM   27  C   UNL     1      35.301  50.450  42.135  1.00  0.00     0.150 C 
BRANCH  27  28
HETATM   28  C   UNL     1      33.996  51.111  41.940  1.00  0.00    -0.017 A 
HETATM   29  C   UNL     1      33.600  51.491  40.659  1.00  0.00     0.016 A 
HETATM   30  C   UNL     1      32.374  52.141  40.484  1.00  0.00     0.037 A 
HETATM   31  C   UNL     1      31.535  52.399  41.576  1.00  0.00     0.069 A 
HETATM   32  C   UNL     1      31.927  51.989  42.850  1.00  0.00     0.037 A 
HETATM   33  C   UNL     1      33.162  51.357  43.034  1.00  0.00     0.016 A 
BRANCH  31  34
HETATM   34  O   UNL     1      30.379  53.059  41.263  1.00  0.00    -0.347 OA
BRANCH  34  35
HETATM   35  C   UNL     1      29.150  52.409  41.577  1.00  0.00     0.216 C 
BRANCH  35  36
HETATM   36  C   UNL     1      29.040  51.164  40.729  1.00  0.00    -0.012 A 
HETATM   37  C   UNL     1      28.812  51.221  39.342  1.00  0.00     0.044 A 
HETATM   38 CL   UNL     1      28.634  52.725  38.509  1.00  0.00    -0.084 Cl
HETATM   39  C   UNL     1      28.714  50.050  38.585  1.00  0.00     0.048 A 
HETATM   40  C   UNL     1      28.858  48.813  39.207  1.00  0.00     0.035 A 
HETATM   41 CL   UNL     1      28.733  47.372  38.277  1.00  0.00    -0.084 Cl
HETATM   42  C   UNL     1      29.103  48.735  40.574  1.00  0.00     0.024 A 
HETATM   43  C   UNL     1      29.199  49.904  41.332  1.00  0.00     0.013 A 
ENDBRANCH  35  36
ENDBRANCH  34  35
ENDBRANCH  31  34
ENDBRANCH  27  28
ENDBRANCH   1  26
TORSDOF 10
ENDMDL
MODEL 10
REMARK VINA RESULT:      -8.0     20.702     23.255
REMARK  10 active torsions:
REMARK  status: ('A' for Active; 'I' for Inactive)
REMARK    1  A    between atoms: C_2  and  C_3 
REMARK    2  A    between atoms: N_4  and  N_5 
REMARK       I    between atoms: N_5  and  C_6 
REMARK    3  A    between atoms: C_6  and  C_7 
REMARK    4  A    between atoms: N_10  and  C_11 
REMARK    5  A    between atoms: C_15  and  N_16 
REMARK    6  A    between atoms: C_17  and  C_18 
REMARK    7  A    between atoms: C_18  and  N_19 
REMARK    8  A    between atoms: C_29  and  O_30 
REMARK    9  A    between atoms: O_30  and  C_31 
REMARK   10  A    between atoms: C_31  and  C_32 
ROOT
HETATM    1  N   UNL     1      38.041  44.895  63.293  1.00  0.00    -0.242 N 
HETATM    2  C   UNL     1      37.099  45.651  63.968  1.00  0.00     0.294 C 
HETATM    3  O   UNL     1      36.717  46.725  63.498  1.00  0.00    -0.264 OA
HETATM    4  H   UNL     1      38.369  45.251  62.401  1.00  0.00     0.192 HD
ENDROOT
BRANCH   2   5
HETATM    5  C   UNL     1      36.525  45.150  65.223  1.00  0.00     0.176 A 
HETATM    6  N   UNL     1      35.427  44.345  65.324  1.00  0.00    -0.124 NA
HETATM    7  N   UNL     1      35.184  44.112  66.600  1.00  0.00    -0.058 NA
HETATM    8  N   UNL     1      36.129  44.724  67.350  1.00  0.00    -0.191 N 
HETATM    9  C   UNL     1      37.002  45.409  66.507  1.00  0.00     0.102 A 
BRANCH   8  10
HETATM   10  C   UNL     1      36.172  44.589  68.759  1.00  0.00     0.229 A 
HETATM   11  N   UNL     1      37.246  44.059  69.353  1.00  0.00    -0.081 NA
HETATM   12  O   UNL     1      36.917  44.084  70.713  1.00  0.00    -0.103 OA
HETATM   13  N   UNL     1      35.643  44.594  70.911  1.00  0.00    -0.083 NA
HETATM   14  C   UNL     1      35.180  44.907  69.703  1.00  0.00     0.201 A 
BRANCH  14  15
HETATM   15  N   UNL     1      33.970  45.432  69.462  1.00  0.00    -0.379 N 
HETATM   16  H   UNL     1      33.518  46.036  70.144  1.00  0.00     0.158 HD
HETATM   17  H   UNL     1      33.457  45.308  68.591  1.00  0.00     0.158 HD
ENDBRANCH  14  15
ENDBRANCH   8  10
BRANCH   9  18
HETATM   18  C   UNL     1      38.112  46.281  66.957  1.00  0.00     0.296 C 
BRANCH  18  19
HETATM   19  N   UNL     1      38.203  47.610  66.244  1.00  0.00    -0.066 N 
HETATM   20  H   UNL     1      37.578  47.532  65.426  1.00  0.00     0.280 HD
HETATM   21  C   UNL     1      37.752  48.782  67.085  1.00  0.00     0.235 C 
HETATM   22  C   UNL     1      37.733  50.037  66.221  1.00  0.00     0.028 C 
HETATM   23  C   UNL     1      39.088  50.302  65.575  1.00  0.00     0.003 C 
HETATM   24  C   UNL     1      39.586  49.079  64.812  1.00  0.00     0.028 C 
HETATM   25  C   UNL     1      39.590  47.833  65.685  1.00  0.00     0.235 C 
ENDBRANCH  18  19
ENDBRANCH   9  18
ENDBRANCH   2   5
BRANCH   1  26
HETATM   26  N   UNL     1      38.575  43.755  63.796  1.00  0.00    -0.184 NA
HETATM   27  C   UNL     1      38.902  42.839  62.941  1.00  0.00     0.150 C 
BRANCH  27  28
HETATM   28  C   UNL     1      39.526  41.579  63.391  1.00  0.00    -0.017 A 
HETATM   29  C   UNL     1      40.369  41.585  64.501  1.00  0.00     0.016 A 
HETATM   30  C   UNL     1      40.979  40.394  64.906  1.00  0.00     0.037 A 
HETATM   31  C   UNL     1      40.739  39.196  64.222  1.00  0.00     0.069 A 
HETATM   32  C   UNL     1      39.871  39.194  63.130  1.00  0.00     0.037 A 
HETATM   33  C   UNL     1      39.275  40.387  62.707  1.00  0.00     0.016 A 
BRANCH  31  34
HETATM   34  O   UNL     1      41.416  38.114  64.713  1.00  0.00    -0.347 OA
BRANCH  34  35
HETATM   35  C   UNL     1      41.202  37.773  66.080  1.00  0.00     0.216 C 
BRANCH  35  36
HETATM   36  C   UNL     1      40.876  36.301  66.158  1.00  0.00    -0.012 A 
HETATM   37  C   UNL     1      41.865  35.309  66.037  1.00  0.00     0.044 A 
HETATM   38 CL   UNL     1      43.528  35.705  65.784  1.00  0.00    -0.084 Cl
HETATM   39  C   UNL     1      41.531  33.954  66.112  1.00  0.00     0.048 A 
HETATM   40  C   UNL     1      40.207  33.580  66.323  1.00  0.00     0.035 A 
HETATM   41 CL   UNL     1      39.794  31.913  66.410  1.00  0.00    -0.084 Cl
HETATM   42  C   UNL     1      39.215  34.547  66.464  1.00  0.00     0.024 A 
HETATM   43  C   UNL     1      39.548  35.901  66.388  1.00  0.00     0.013 A 
ENDBRANCH  35  36
ENDBRANCH  34  35
ENDBRANCH  31  34
ENDBRANCH  27  28
ENDBRANCH   1  26
TORSDOF 10
ENDMDL
