MODEL 1
REMARK VINA RESULT:      -8.1      0.000      0.000
REMARK  10 active torsions:
REMARK  status: ('A' for Active; 'I' for Inactive)
REMARK    1  A    between atoms: O_2  and  C_3 
REMARK    2  A    between atoms: C_6  and  N_7 
REMARK    3  A    between atoms: N_7  and  C_8 
REMARK    4  A    between atoms: C_8  and  N_9 
REMARK    5  A    between atoms: N_9  and  N_10 
REMARK       I    between atoms: N_10  and  C_11 
REMARK    6  A    between atoms: C_11  and  C_12 
REMARK    7  A    between atoms: C_12  and  S_13 
REMARK    8  A    between atoms: S_13  and  C_14 
REMARK    9  A    between atoms: C_14  and  C_15 
REMARK       I    between atoms: C_15  and  N_16 
REMARK   10  A    between atoms: N_16  and  C_17 
ROOT
HETATM    1  N   UNL     1      23.579  46.359  49.836  1.00  0.00    -0.267 N 
HETATM    2  C   UNL     1      24.682  45.664  50.251  1.00  0.00     0.245 C 
HETATM    3  O   UNL     1      24.687  44.435  50.157  1.00  0.00    -0.271 OA
HETATM    4  H   UNL     1      22.807  45.819  49.447  1.00  0.00     0.190 HD
ENDROOT
BRANCH   1   5
HETATM    5  N   UNL     1      23.403  47.735  49.946  1.00  0.00    -0.274 N 
HETATM    6  H   UNL     1      24.010  48.253  50.579  1.00  0.00     0.189 HD
BRANCH   5   7
HETATM    7  C   UNL     1      22.474  48.405  49.190  1.00  0.00     0.191 C 
HETATM    8  S   UNL     1      21.744  47.789  47.815  1.00  0.00    -0.039 SA
BRANCH   7   9
HETATM    9  N   UNL     1      22.169  49.682  49.567  1.00  0.00    -0.332 N 
HETATM   10  H   UNL     1      22.988  50.241  49.789  1.00  0.00     0.168 HD
BRANCH   9  11
HETATM   11  C   UNL     1      20.949  50.390  49.515  1.00  0.00     0.034 A 
HETATM   12  C   UNL     1      20.858  51.440  48.599  1.00  0.00     0.032 A 
HETATM   13  C   UNL     1      19.667  52.159  48.462  1.00  0.00     0.039 A 
HETATM   14  C   UNL     1      18.541  51.826  49.216  1.00  0.00     0.068 A 
HETATM   15  C   UNL     1      18.622  50.765  50.116  1.00  0.00     0.039 A 
HETATM   16  C   UNL     1      19.817  50.045  50.257  1.00  0.00     0.032 A 
BRANCH  14  17
HETATM   17  O   UNL     1      17.441  52.598  48.976  1.00  0.00    -0.356 OA
HETATM   18  C   UNL     1      16.469  52.675  50.013  1.00  0.00     0.210 C 
ENDBRANCH  14  17
ENDBRANCH   9  11
ENDBRANCH   7   9
ENDBRANCH   5   7
ENDBRANCH   1   5
BRANCH   2  19
HETATM   19  C   UNL     1      25.908  46.402  50.750  1.00  0.00     0.178 C 
BRANCH  19  20
HETATM   20  S   UNL     1      25.893  46.908  52.503  1.00  0.00    -0.150 SA
BRANCH  20  21
HETATM   21  C   UNL     1      25.320  45.389  53.329  1.00  0.00     0.177 C 
BRANCH  21  22
HETATM   22  C   UNL     1      26.380  44.634  54.112  1.00  0.00     0.231 C 
HETATM   23  N   UNL     1      27.656  45.151  53.986  1.00  0.00    -0.327 N 
HETATM   24  H   UNL     1      27.771  45.899  53.311  1.00  0.00     0.169 HD
HETATM   25  O   UNL     1      26.036  43.716  54.852  1.00  0.00    -0.272 OA
BRANCH  23  26
HETATM   26  C   UNL     1      28.813  44.749  54.686  1.00  0.00     0.034 A 
HETATM   27  C   UNL     1      29.492  43.552  54.450  1.00  0.00     0.029 A 
HETATM   28  C   UNL     1      30.619  43.211  55.203  1.00  0.00     0.002 A 
HETATM   29  C   UNL     1      31.081  44.066  56.199  1.00  0.00     0.000 A 
HETATM   30  C   UNL     1      30.418  45.266  56.440  1.00  0.00     0.002 A 
HETATM   31  C   UNL     1      29.289  45.607  55.687  1.00  0.00     0.029 A 
ENDBRANCH  23  26
ENDBRANCH  21  22
ENDBRANCH  20  21
ENDBRANCH  19  20
ENDBRANCH   2  19
TORSDOF 10
ENDMDL
MODEL 2
REMARK VINA RESULT:      -8.0      2.621     11.057
REMARK  10 active torsions:
REMARK  status: ('A' for Active; 'I' for Inactive)
REMARK    1  A    between atoms: O_2  and  C_3 
REMARK    2  A    between atoms: C_6  and  N_7 
REMARK    3  A    between atoms: N_7  and  C_8 
REMARK    4  A    between atoms: C_8  and  N_9 
REMARK    5  A    between atoms: N_9  and  N_10 
REMARK       I    between atoms: N_10  and  C_11 
REMARK    6  A    between atoms: C_11  and  C_12 
REMARK    7  A    between atoms: C_12  and  S_13 
REMARK    8  A    between atoms: S_13  and  C_14 
REMARK    9  A    between atoms: C_14  and  C_15 
REMARK       I    between atoms: C_15  and  N_16 
REMARK   10  A    between atoms: N_16  and  C_17 
ROOT
HETATM    1  N   UNL     1      24.916  42.588  51.293  1.00  0.00    -0.267 N 
HETATM    2  C   UNL     1      23.932  43.310  50.674  1.00  0.00     0.245 C 
HETATM    3  O   UNL     1      22.776  42.885  50.690  1.00  0.00    -0.271 OA
HETATM    4  H   UNL     1      24.638  41.726  51.759  1.00  0.00     0.190 HD
ENDROOT
BRANCH   1   5
HETATM    5  N   UNL     1      26.271  42.906  51.295  1.00  0.00    -0.274 N 
HETATM    6  H   UNL     1      26.565  43.784  50.870  1.00  0.00     0.189 HD
BRANCH   5   7
HETATM    7  C   UNL     1      27.199  42.095  51.897  1.00  0.00     0.191 C 
HETATM    8  S   UNL     1      28.137  40.963  51.097  1.00  0.00    -0.039 SA
BRANCH   7   9
HETATM    9  N   UNL     1      27.323  42.192  53.255  1.00  0.00    -0.332 N 
HETATM   10  H   UNL     1      26.963  41.380  53.748  1.00  0.00     0.168 HD
BRANCH   9  11
HETATM   11  C   UNL     1      28.021  43.124  54.051  1.00  0.00     0.034 A 
HETATM   12  C   UNL     1      29.337  42.811  54.396  1.00  0.00     0.032 A 
HETATM   13  C   UNL     1      30.105  43.705  55.147  1.00  0.00     0.039 A 
HETATM   14  C   UNL     1      29.581  44.937  55.544  1.00  0.00     0.068 A 
HETATM   15  C   UNL     1      28.275  45.262  55.184  1.00  0.00     0.039 A 
HETATM   16  C   UNL     1      27.503  44.364  54.433  1.00  0.00     0.032 A 
BRANCH  14  17
HETATM   17  O   UNL     1      30.439  45.721  56.261  1.00  0.00    -0.356 OA
HETATM   18  C   UNL     1      30.331  45.666  57.679  1.00  0.00     0.210 C 
ENDBRANCH  14  17
ENDBRANCH   9  11
ENDBRANCH   7   9
ENDBRANCH   5   7
ENDBRANCH   1   5
BRANCH   2  19
HETATM   19  C   UNL     1      24.250  44.651  50.042  1.00  0.00     0.178 C 
BRANCH  19  20
HETATM   20  S   UNL     1      23.031  45.292  48.844  1.00  0.00    -0.150 SA
BRANCH  20  21
HETATM   21  C   UNL     1      23.234  47.093  49.027  1.00  0.00     0.177 C 
BRANCH  21  22
HETATM   22  C   UNL     1      22.012  47.924  48.679  1.00  0.00     0.231 C 
HETATM   23  N   UNL     1      21.678  48.870  49.630  1.00  0.00    -0.327 N 
HETATM   24  H   UNL     1      22.205  48.839  50.496  1.00  0.00     0.169 HD
HETATM   25  O   UNL     1      21.484  47.778  47.579  1.00  0.00    -0.272 OA
BRANCH  23  26
HETATM   26  C   UNL     1      20.683  49.865  49.531  1.00  0.00     0.034 A 
HETATM   27  C   UNL     1      19.456  49.812  50.196  1.00  0.00     0.029 A 
HETATM   28  C   UNL     1      18.510  50.827  50.028  1.00  0.00     0.002 A 
HETATM   29  C   UNL     1      18.782  51.908  49.196  1.00  0.00     0.000 A 
HETATM   30  C   UNL     1      20.004  51.978  48.534  1.00  0.00     0.002 A 
HETATM   31  C   UNL     1      20.951  50.962  48.700  1.00  0.00     0.029 A 
ENDBRANCH  23  26
ENDBRANCH  21  22
ENDBRANCH  20  21
ENDBRANCH  19  20
ENDBRANCH   2  19
TORSDOF 10
ENDMDL
MODEL 3
REMARK VINA RESULT:      -7.9      2.688     11.033
REMARK  10 active torsions:
REMARK  status: ('A' for Active; 'I' for Inactive)
REMARK    1  A    between atoms: O_2  and  C_3 
REMARK    2  A    between atoms: C_6  and  N_7 
REMARK    3  A    between atoms: N_7  and  C_8 
REMARK    4  A    between atoms: C_8  and  N_9 
REMARK    5  A    between atoms: N_9  and  N_10 
REMARK       I    between atoms: N_10  and  C_11 
REMARK    6  A    between atoms: C_11  and  C_12 
REMARK    7  A    between atoms: C_12  and  S_13 
REMARK    8  A    between atoms: S_13  and  C_14 
REMARK    9  A    between atoms: C_14  and  C_15 
REMARK       I    between atoms: C_15  and  N_16 
REMARK   10  A    between atoms: N_16  and  C_17 
ROOT
HETATM    1  N   UNL     1      26.996  44.047  49.934  1.00  0.00    -0.267 N 
HETATM    2  C   UNL     1      26.877  45.409  49.897  1.00  0.00     0.245 C 
HETATM    3  O   UNL     1      27.649  46.059  49.189  1.00  0.00    -0.271 OA
HETATM    4  H   UNL     1      27.719  43.626  49.353  1.00  0.00     0.190 HD
ENDROOT
BRANCH   1   5
HETATM    5  N   UNL     1      26.246  43.193  50.738  1.00  0.00    -0.274 N 
HETATM    6  H   UNL     1      25.236  43.316  50.767  1.00  0.00     0.189 HD
BRANCH   5   7
HETATM    7  C   UNL     1      26.830  42.170  51.441  1.00  0.00     0.191 C 
HETATM    8  S   UNL     1      27.331  40.719  50.772  1.00  0.00    -0.039 SA
BRANCH   7   9
HETATM    9  N   UNL     1      26.961  42.337  52.791  1.00  0.00    -0.332 N 
HETATM   10  H   UNL     1      26.255  41.840  53.326  1.00  0.00     0.168 HD
BRANCH   9  11
HETATM   11  C   UNL     1      28.000  42.916  53.550  1.00  0.00     0.034 A 
HETATM   12  C   UNL     1      27.673  44.012  54.351  1.00  0.00     0.032 A 
HETATM   13  C   UNL     1      28.641  44.612  55.162  1.00  0.00     0.039 A 
HETATM   14  C   UNL     1      29.943  44.111  55.207  1.00  0.00     0.068 A 
HETATM   15  C   UNL     1      30.268  43.004  54.426  1.00  0.00     0.039 A 
HETATM   16  C   UNL     1      29.299  42.404  53.610  1.00  0.00     0.032 A 
BRANCH  14  17
HETATM   17  O   UNL     1      30.785  44.779  56.049  1.00  0.00    -0.356 OA
HETATM   18  C   UNL     1      30.254  45.913  56.727  1.00  0.00     0.210 C 
ENDBRANCH  14  17
ENDBRANCH   9  11
ENDBRANCH   7   9
ENDBRANCH   5   7
ENDBRANCH   1   5
BRANCH   2  19
HETATM   19  C   UNL     1      25.764  46.102  50.658  1.00  0.00     0.178 C 
BRANCH  19  20
HETATM   20  S   UNL     1      25.425  47.835  50.201  1.00  0.00    -0.150 SA
BRANCH  20  21
HETATM   21  C   UNL     1      23.749  47.720  49.499  1.00  0.00     0.177 C 
BRANCH  21  22
HETATM   22  C   UNL     1      22.985  49.030  49.419  1.00  0.00     0.231 C 
HETATM   23  N   UNL     1      21.615  48.885  49.312  1.00  0.00    -0.327 N 
HETATM   24  H   UNL     1      21.274  47.938  49.188  1.00  0.00     0.169 HD
HETATM   25  O   UNL     1      23.597  50.088  49.551  1.00  0.00    -0.272 OA
BRANCH  23  26
HETATM   26  C   UNL     1      20.642  49.906  49.348  1.00  0.00     0.034 A 
HETATM   27  C   UNL     1      19.515  49.883  50.172  1.00  0.00     0.029 A 
HETATM   28  C   UNL     1      18.582  50.923  50.133  1.00  0.00     0.002 A 
HETATM   29  C   UNL     1      18.768  51.999  49.271  1.00  0.00     0.000 A 
HETATM   30  C   UNL     1      19.891  52.039  48.449  1.00  0.00     0.002 A 
HETATM   31  C   UNL     1      20.824  50.997  48.487  1.00  0.00     0.029 A 
ENDBRANCH  23  26
ENDBRANCH  21  22
ENDBRANCH  20  21
ENDBRANCH  19  20
ENDBRANCH   2  19
TORSDOF 10
ENDMDL
MODEL 4
REMARK VINA RESULT:      -7.9      1.187      1.578
REMARK  10 active torsions:
REMARK  status: ('A' for Active; 'I' for Inactive)
REMARK    1  A    between atoms: O_2  and  C_3 
REMARK    2  A    between atoms: C_6  and  N_7 
REMARK    3  A    between atoms: N_7  and  C_8 
REMARK    4  A    between atoms: C_8  and  N_9 
REMARK    5  A    between atoms: N_9  and  N_10 
REMARK       I    between atoms: N_10  and  C_11 
REMARK    6  A    between atoms: C_11  and  C_12 
REMARK    7  A    between atoms: C_12  and  S_13 
REMARK    8  A    between atoms: S_13  and  C_14 
REMARK    9  A    between atoms: C_14  and  C_15 
REMARK       I    between atoms: C_15  and  N_16 
REMARK   10  A    between atoms: N_16  and  C_17 
ROOT
HETATM    1  N   UNL     1      23.721  48.356  49.247  1.00  0.00    -0.267 N 
HETATM    2  C   UNL     1      24.873  47.885  49.816  1.00  0.00     0.245 C 
HETATM    3  O   UNL     1      25.901  48.560  49.736  1.00  0.00    -0.271 OA
HETATM    4  H   UNL     1      23.765  49.265  48.791  1.00  0.00     0.190 HD
ENDROOT
BRANCH   1   5
HETATM    5  N   UNL     1      22.508  47.674  49.196  1.00  0.00    -0.274 N 
HETATM    6  H   UNL     1      22.499  46.681  49.420  1.00  0.00     0.189 HD
BRANCH   5   7
HETATM    7  C   UNL     1      21.333  48.319  48.905  1.00  0.00     0.191 C 
HETATM    8  S   UNL     1      20.370  47.991  47.575  1.00  0.00    -0.039 SA
BRANCH   7   9
HETATM    9  N   UNL     1      20.956  49.333  49.740  1.00  0.00    -0.332 N 
HETATM   10  H   UNL     1      21.630  49.515  50.479  1.00  0.00     0.168 HD
BRANCH   9  11
HETATM   11  C   UNL     1      19.907  50.270  49.635  1.00  0.00     0.034 A 
HETATM   12  C   UNL     1      20.135  51.400  48.847  1.00  0.00     0.032 A 
HETATM   13  C   UNL     1      19.127  52.351  48.662  1.00  0.00     0.039 A 
HETATM   14  C   UNL     1      17.868  52.177  49.238  1.00  0.00     0.068 A 
HETATM   15  C   UNL     1      17.629  51.039  50.008  1.00  0.00     0.039 A 
HETATM   16  C   UNL     1      18.640  50.087  50.197  1.00  0.00     0.032 A 
BRANCH  14  17
HETATM   17  O   UNL     1      16.971  53.171  48.968  1.00  0.00    -0.356 OA
HETATM   18  C   UNL     1      15.595  52.871  49.176  1.00  0.00     0.210 C 
ENDBRANCH  14  17
ENDBRANCH   9  11
ENDBRANCH   7   9
ENDBRANCH   5   7
ENDBRANCH   1   5
BRANCH   2  19
HETATM   19  C   UNL     1      24.865  46.585  50.596  1.00  0.00     0.178 C 
BRANCH  19  20
HETATM   20  S   UNL     1      25.550  46.649  52.286  1.00  0.00    -0.150 SA
BRANCH  20  21
HETATM   21  C   UNL     1      25.267  44.949  52.873  1.00  0.00     0.177 C 
BRANCH  21  22
HETATM   22  C   UNL     1      26.275  44.433  53.885  1.00  0.00     0.231 C 
HETATM   23  N   UNL     1      27.574  44.848  53.658  1.00  0.00    -0.327 N 
HETATM   24  H   UNL     1      27.737  45.353  52.793  1.00  0.00     0.169 HD
HETATM   25  O   UNL     1      25.874  43.794  54.855  1.00  0.00    -0.272 OA
BRANCH  23  26
HETATM   26  C   UNL     1      28.694  44.641  54.489  1.00  0.00     0.034 A 
HETATM   27  C   UNL     1      29.086  45.517  55.504  1.00  0.00     0.029 A 
HETATM   28  C   UNL     1      30.225  45.255  56.272  1.00  0.00     0.002 A 
HETATM   29  C   UNL     1      30.982  44.112  56.034  1.00  0.00     0.000 A 
HETATM   30  C   UNL     1      30.598  43.227  55.030  1.00  0.00     0.002 A 
HETATM   31  C   UNL     1      29.459  43.490  54.261  1.00  0.00     0.029 A 
ENDBRANCH  23  26
ENDBRANCH  21  22
ENDBRANCH  20  21
ENDBRANCH  19  20
ENDBRANCH   2  19
TORSDOF 10
ENDMDL
MODEL 5
REMARK VINA RESULT:      -7.9      1.523      2.116
REMARK  10 active torsions:
REMARK  status: ('A' for Active; 'I' for Inactive)
REMARK    1  A    between atoms: O_2  and  C_3 
REMARK    2  A    between atoms: C_6  and  N_7 
REMARK    3  A    between atoms: N_7  and  C_8 
REMARK    4  A    between atoms: C_8  and  N_9 
REMARK    5  A    between atoms: N_9  and  N_10 
REMARK       I    between atoms: N_10  and  C_11 
REMARK    6  A    between atoms: C_11  and  C_12 
REMARK    7  A    between atoms: C_12  and  S_13 
REMARK    8  A    between atoms: S_13  and  C_14 
REMARK    9  A    between atoms: C_14  and  C_15 
REMARK       I    between atoms: C_15  and  N_16 
REMARK   10  A    between atoms: N_16  and  C_17 
ROOT
HETATM    1  N   UNL     1      22.204  46.981  48.977  1.00  0.00    -0.267 N 
HETATM    2  C   UNL     1      22.612  45.692  48.766  1.00  0.00     0.245 C 
HETATM    3  O   UNL     1      21.852  44.909  48.193  1.00  0.00    -0.271 OA
HETATM    4  H   UNL     1      21.282  47.240  48.631  1.00  0.00     0.190 HD
ENDROOT
BRANCH   1   5
HETATM    5  N   UNL     1      22.923  47.952  49.669  1.00  0.00    -0.274 N 
HETATM    6  H   UNL     1      23.512  47.658  50.446  1.00  0.00     0.189 HD
BRANCH   5   7
HETATM    7  C   UNL     1      22.892  49.271  49.296  1.00  0.00     0.191 C 
HETATM    8  S   UNL     1      23.864  49.949  48.113  1.00  0.00    -0.039 SA
BRANCH   7   9
HETATM    9  N   UNL     1      22.039  50.092  49.979  1.00  0.00    -0.332 N 
HETATM   10  H   UNL     1      22.435  50.449  50.845  1.00  0.00     0.168 HD
BRANCH   9  11
HETATM   11  C   UNL     1      20.807  50.662  49.596  1.00  0.00     0.034 A 
HETATM   12  C   UNL     1      19.672  50.266  50.307  1.00  0.00     0.032 A 
HETATM   13  C   UNL     1      18.422  50.820  50.012  1.00  0.00     0.039 A 
HETATM   14  C   UNL     1      18.290  51.795  49.022  1.00  0.00     0.068 A 
HETATM   15  C   UNL     1      19.424  52.208  48.326  1.00  0.00     0.039 A 
HETATM   16  C   UNL     1      20.676  51.651  48.619  1.00  0.00     0.032 A 
BRANCH  14  17
HETATM   17  O   UNL     1      17.018  52.262  48.844  1.00  0.00    -0.356 OA
HETATM   18  C   UNL     1      16.201  52.366  50.004  1.00  0.00     0.210 C 
ENDBRANCH  14  17
ENDBRANCH   9  11
ENDBRANCH   7   9
ENDBRANCH   5   7
ENDBRANCH   1   5
BRANCH   2  19
HETATM   19  C   UNL     1      24.008  45.256  49.165  1.00  0.00     0.178 C 
BRANCH  19  20
HETATM   20  S   UNL     1      24.130  44.150  50.612  1.00  0.00    -0.150 SA
BRANCH  20  21
HETATM   21  C   UNL     1      24.794  45.268  51.887  1.00  0.00     0.177 C 
BRANCH  21  22
HETATM   22  C   UNL     1      25.689  44.614  52.924  1.00  0.00     0.231 C 
HETATM   23  N   UNL     1      27.041  44.819  52.721  1.00  0.00    -0.327 N 
HETATM   24  H   UNL     1      27.297  45.282  51.855  1.00  0.00     0.169 HD
HETATM   25  O   UNL     1      25.174  44.055  53.890  1.00  0.00    -0.272 OA
BRANCH  23  26
HETATM   26  C   UNL     1      28.099  44.449  53.577  1.00  0.00     0.034 A 
HETATM   27  C   UNL     1      28.466  45.164  54.719  1.00  0.00     0.029 A 
HETATM   28  C   UNL     1      29.544  44.747  55.505  1.00  0.00     0.002 A 
HETATM   29  C   UNL     1      30.264  43.608  55.159  1.00  0.00     0.000 A 
HETATM   30  C   UNL     1      29.904  42.881  54.028  1.00  0.00     0.002 A 
HETATM   31  C   UNL     1      28.826  43.299  53.240  1.00  0.00     0.029 A 
ENDBRANCH  23  26
ENDBRANCH  21  22
ENDBRANCH  20  21
ENDBRANCH  19  20
ENDBRANCH   2  19
TORSDOF 10
ENDMDL
MODEL 6
REMARK VINA RESULT:      -7.7      2.298     10.172
REMARK  10 active torsions:
REMARK  status: ('A' for Active; 'I' for Inactive)
REMARK    1  A    between atoms: O_2  and  C_3 
REMARK    2  A    between atoms: C_6  and  N_7 
REMARK    3  A    between atoms: N_7  and  C_8 
REMARK    4  A    between atoms: C_8  and  N_9 
REMARK    5  A    between atoms: N_9  and  N_10 
REMARK       I    between atoms: N_10  and  C_11 
REMARK    6  A    between atoms: C_11  and  C_12 
REMARK    7  A    between atoms: C_12  and  S_13 
REMARK    8  A    between atoms: S_13  and  C_14 
REMARK    9  A    between atoms: C_14  and  C_15 
REMARK       I    between atoms: C_15  and  N_16 
REMARK   10  A    between atoms: N_16  and  C_17 
ROOT
HETATM    1  N   UNL     1      23.704  45.024  50.866  1.00  0.00    -0.267 N 
HETATM    2  C   UNL     1      23.132  43.997  50.165  1.00  0.00     0.245 C 
HETATM    3  O   UNL     1      22.828  42.961  50.760  1.00  0.00    -0.271 OA
HETATM    4  H   UNL     1      23.839  44.887  51.866  1.00  0.00     0.190 HD
ENDROOT
BRANCH   1   5
HETATM    5  N   UNL     1      24.162  46.218  50.318  1.00  0.00    -0.274 N 
HETATM    6  H   UNL     1      23.690  46.588  49.495  1.00  0.00     0.189 HD
BRANCH   5   7
HETATM    7  C   UNL     1      25.190  46.924  50.890  1.00  0.00     0.191 C 
HETATM    8  S   UNL     1      26.406  47.696  50.036  1.00  0.00    -0.039 SA
BRANCH   7   9
HETATM    9  N   UNL     1      25.243  46.951  52.255  1.00  0.00    -0.332 N 
HETATM   10  H   UNL     1      24.359  47.210  52.685  1.00  0.00     0.168 HD
BRANCH   9  11
HETATM   11  C   UNL     1      26.241  46.504  53.146  1.00  0.00     0.034 A 
HETATM   12  C   UNL     1      26.740  45.214  52.953  1.00  0.00     0.032 A 
HETATM   13  C   UNL     1      27.760  44.719  53.770  1.00  0.00     0.039 A 
HETATM   14  C   UNL     1      28.317  45.511  54.776  1.00  0.00     0.068 A 
HETATM   15  C   UNL     1      27.837  46.806  54.957  1.00  0.00     0.039 A 
HETATM   16  C   UNL     1      26.812  47.303  54.140  1.00  0.00     0.032 A 
BRANCH  14  17
HETATM   17  O   UNL     1      29.314  44.912  55.492  1.00  0.00    -0.356 OA
HETATM   18  C   UNL     1      30.036  45.733  56.402  1.00  0.00     0.210 C 
ENDBRANCH  14  17
ENDBRANCH   9  11
ENDBRANCH   7   9
ENDBRANCH   5   7
ENDBRANCH   1   5
BRANCH   2  19
HETATM   19  C   UNL     1      22.811  44.161  48.693  1.00  0.00     0.178 C 
BRANCH  19  20
HETATM   20  S   UNL     1      21.202  44.925  48.294  1.00  0.00    -0.150 SA
BRANCH  20  21
HETATM   21  C   UNL     1      21.710  46.454  47.446  1.00  0.00     0.177 C 
BRANCH  21  22
HETATM   22  C   UNL     1      21.495  47.736  48.232  1.00  0.00     0.231 C 
HETATM   23  N   UNL     1      20.382  48.460  47.847  1.00  0.00    -0.327 N 
HETATM   24  H   UNL     1      19.895  48.125  47.023  1.00  0.00     0.169 HD
HETATM   25  O   UNL     1      22.233  47.985  49.183  1.00  0.00    -0.272 OA
BRANCH  23  26
HETATM   26  C   UNL     1      19.857  49.612  48.468  1.00  0.00     0.034 A 
HETATM   27  C   UNL     1      18.945  49.582  49.525  1.00  0.00     0.029 A 
HETATM   28  C   UNL     1      18.450  50.769  50.073  1.00  0.00     0.002 A 
HETATM   29  C   UNL     1      18.864  51.999  49.571  1.00  0.00     0.000 A 
HETATM   30  C   UNL     1      19.778  52.043  48.522  1.00  0.00     0.002 A 
HETATM   31  C   UNL     1      20.273  50.855  47.973  1.00  0.00     0.029 A 
ENDBRANCH  23  26
ENDBRANCH  21  22
ENDBRANCH  20  21
ENDBRANCH  19  20
ENDBRANCH   2  19
TORSDOF 10
ENDMDL
MODEL 7
REMARK VINA RESULT:      -7.5     12.185     14.253
REMARK  10 active torsions:
REMARK  status: ('A' for Active; 'I' for Inactive)
REMARK    1  A    between atoms: O_2  and  C_3 
REMARK    2  A    between atoms: C_6  and  N_7 
REMARK    3  A    between atoms: N_7  and  C_8 
REMARK    4  A    between atoms: C_8  and  N_9 
REMARK    5  A    between atoms: N_9  and  N_10 
REMARK       I    between atoms: N_10  and  C_11 
REMARK    6  A    between atoms: C_11  and  C_12 
REMARK    7  A    between atoms: C_12  and  S_13 
REMARK    8  A    between atoms: S_13  and  C_14 
REMARK    9  A    between atoms: C_14  and  C_15 
REMARK       I    between atoms: C_15  and  N_16 
REMARK   10  A    between atoms: N_16  and  C_17 
ROOT
HETATM    1  N   UNL     1      26.912  51.258  40.829  1.00  0.00    -0.267 N 
HETATM    2  C   UNL     1      27.872  52.105  40.346  1.00  0.00     0.245 C 
HETATM    3  O   UNL     1      28.486  52.827  41.134  1.00  0.00    -0.271 OA
HETATM    4  H   UNL     1      26.758  51.253  41.836  1.00  0.00     0.190 HD
ENDROOT
BRANCH   1   5
HETATM    5  N   UNL     1      26.093  50.441  40.055  1.00  0.00    -0.274 N 
HETATM    6  H   UNL     1      25.572  50.862  39.288  1.00  0.00     0.189 HD
BRANCH   5   7
HETATM    7  C   UNL     1      26.018  49.088  40.270  1.00  0.00     0.191 C 
HETATM    8  S   UNL     1      24.934  48.062  39.511  1.00  0.00    -0.039 SA
BRANCH   7   9
HETATM    9  N   UNL     1      26.857  48.560  41.210  1.00  0.00    -0.332 N 
HETATM   10  H   UNL     1      26.367  48.166  42.009  1.00  0.00     0.168 HD
BRANCH   9  11
HETATM   11  C   UNL     1      28.244  48.306  41.167  1.00  0.00     0.034 A 
HETATM   12  C   UNL     1      28.708  47.460  40.158  1.00  0.00     0.032 A 
HETATM   13  C   UNL     1      30.074  47.196  40.026  1.00  0.00     0.039 A 
HETATM   14  C   UNL     1      31.002  47.792  40.882  1.00  0.00     0.068 A 
HETATM   15  C   UNL     1      30.545  48.655  41.877  1.00  0.00     0.039 A 
HETATM   16  C   UNL     1      29.174  48.917  42.012  1.00  0.00     0.032 A 
BRANCH  14  17
HETATM   17  O   UNL     1      32.304  47.461  40.638  1.00  0.00    -0.356 OA
HETATM   18  C   UNL     1      33.286  48.037  41.491  1.00  0.00     0.210 C 
ENDBRANCH  14  17
ENDBRANCH   9  11
ENDBRANCH   7   9
ENDBRANCH   5   7
ENDBRANCH   1   5
BRANCH   2  19
HETATM   19  C   UNL     1      28.226  52.100  38.873  1.00  0.00     0.178 C 
BRANCH  19  20
HETATM   20  S   UNL     1      29.329  50.760  38.307  1.00  0.00    -0.150 SA
BRANCH  20  21
HETATM   21  C   UNL     1      30.933  51.614  38.194  1.00  0.00     0.177 C 
BRANCH  21  22
HETATM   22  C   UNL     1      31.883  51.371  39.353  1.00  0.00     0.231 C 
HETATM   23  N   UNL     1      31.583  52.089  40.496  1.00  0.00    -0.327 N 
HETATM   24  H   UNL     1      30.840  52.774  40.411  1.00  0.00     0.169 HD
HETATM   25  O   UNL     1      32.758  50.516  39.240  1.00  0.00    -0.272 OA
BRANCH  23  26
HETATM   26  C   UNL     1      32.198  51.979  41.760  1.00  0.00     0.034 A 
HETATM   27  C   UNL     1      33.555  51.706  41.947  1.00  0.00     0.029 A 
HETATM   28  C   UNL     1      34.088  51.588  43.234  1.00  0.00     0.002 A 
HETATM   29  C   UNL     1      33.269  51.743  44.348  1.00  0.00     0.000 A 
HETATM   30  C   UNL     1      31.917  52.022  44.176  1.00  0.00     0.002 A 
HETATM   31  C   UNL     1      31.383  52.140  42.888  1.00  0.00     0.029 A 
ENDBRANCH  23  26
ENDBRANCH  21  22
ENDBRANCH  20  21
ENDBRANCH  19  20
ENDBRANCH   2  19
TORSDOF 10
ENDMDL
MODEL 8
REMARK VINA RESULT:      -7.5     11.992     13.733
REMARK  10 active torsions:
REMARK  status: ('A' for Active; 'I' for Inactive)
REMARK    1  A    between atoms: O_2  and  C_3 
REMARK    2  A    between atoms: C_6  and  N_7 
REMARK    3  A    between atoms: N_7  and  C_8 
REMARK    4  A    between atoms: C_8  and  N_9 
REMARK    5  A    between atoms: N_9  and  N_10 
REMARK       I    between atoms: N_10  and  C_11 
REMARK    6  A    between atoms: C_11  and  C_12 
REMARK    7  A    between atoms: C_12  and  S_13 
REMARK    8  A    between atoms: S_13  and  C_14 
REMARK    9  A    between atoms: C_14  and  C_15 
REMARK       I    between atoms: C_15  and  N_16 
REMARK   10  A    between atoms: N_16  and  C_17 
ROOT
HETATM    1  N   UNL     1      25.392  48.230  40.957  1.00  0.00    -0.267 N 
HETATM    2  C   UNL     1      25.318  46.872  40.807  1.00  0.00     0.245 C 
HETATM    3  O   UNL     1      24.246  46.303  41.021  1.00  0.00    -0.271 OA
HETATM    4  H   UNL     1      24.539  48.716  41.227  1.00  0.00     0.190 HD
ENDROOT
BRANCH   1   5
HETATM    5  N   UNL     1      26.547  48.996  40.820  1.00  0.00    -0.274 N 
HETATM    6  H   UNL     1      27.366  48.742  41.369  1.00  0.00     0.189 HD
BRANCH   5   7
HETATM    7  C   UNL     1      26.617  50.039  39.932  1.00  0.00     0.191 C 
HETATM    8  S   UNL     1      26.134  49.960  38.330  1.00  0.00    -0.039 SA
BRANCH   7   9
HETATM    9  N   UNL     1      27.167  51.205  40.383  1.00  0.00    -0.332 N 
HETATM   10  H   UNL     1      26.536  51.745  40.969  1.00  0.00     0.168 HD
BRANCH   9  11
HETATM   11  C   UNL     1      28.495  51.678  40.329  1.00  0.00     0.034 A 
HETATM   12  C   UNL     1      28.931  52.483  41.383  1.00  0.00     0.032 A 
HETATM   13  C   UNL     1      30.247  52.954  41.418  1.00  0.00     0.039 A 
HETATM   14  C   UNL     1      31.156  52.607  40.417  1.00  0.00     0.068 A 
HETATM   15  C   UNL     1      30.731  51.785  39.375  1.00  0.00     0.039 A 
HETATM   16  C   UNL     1      29.410  51.315  39.337  1.00  0.00     0.032 A 
BRANCH  14  17
HETATM   17  O   UNL     1      32.411  53.122  40.578  1.00  0.00    -0.356 OA
HETATM   18  C   UNL     1      33.382  52.769  39.600  1.00  0.00     0.210 C 
ENDBRANCH  14  17
ENDBRANCH   9  11
ENDBRANCH   7   9
ENDBRANCH   5   7
ENDBRANCH   1   5
BRANCH   2  19
HETATM   19  C   UNL     1      26.519  46.090  40.313  1.00  0.00     0.178 C 
BRANCH  19  20
HETATM   20  S   UNL     1      26.854  46.163  38.521  1.00  0.00    -0.150 SA
BRANCH  20  21
HETATM   21  C   UNL     1      28.674  46.097  38.475  1.00  0.00     0.177 C 
BRANCH  21  22
HETATM   22  C   UNL     1      29.384  47.326  39.015  1.00  0.00     0.231 C 
HETATM   23  N   UNL     1      29.998  47.136  40.239  1.00  0.00    -0.327 N 
HETATM   24  H   UNL     1      29.822  46.247  40.694  1.00  0.00     0.169 HD
HETATM   25  O   UNL     1      29.450  48.334  38.315  1.00  0.00    -0.272 OA
BRANCH  23  26
HETATM   26  C   UNL     1      30.833  48.043  40.924  1.00  0.00     0.034 A 
HETATM   27  C   UNL     1      32.163  48.293  40.580  1.00  0.00     0.029 A 
HETATM   28  C   UNL     1      32.936  49.189  41.324  1.00  0.00     0.002 A 
HETATM   29  C   UNL     1      32.385  49.847  42.420  1.00  0.00     0.000 A 
HETATM   30  C   UNL     1      31.058  49.612  42.770  1.00  0.00     0.002 A 
HETATM   31  C   UNL     1      30.285  48.714  42.025  1.00  0.00     0.029 A 
ENDBRANCH  23  26
ENDBRANCH  21  22
ENDBRANCH  20  21
ENDBRANCH  19  20
ENDBRANCH   2  19
TORSDOF 10
ENDMDL
MODEL 9
REMARK VINA RESULT:      -7.5      2.298      2.838
REMARK  10 active torsions:
REMARK  status: ('A' for Active; 'I' for Inactive)
REMARK    1  A    between atoms: O_2  and  C_3 
REMARK    2  A    between atoms: C_6  and  N_7 
REMARK    3  A    between atoms: N_7  and  C_8 
REMARK    4  A    between atoms: C_8  and  N_9 
REMARK    5  A    between atoms: N_9  and  N_10 
REMARK       I    between atoms: N_10  and  C_11 
REMARK    6  A    between atoms: C_11  and  C_12 
REMARK    7  A    between atoms: C_12  and  S_13 
REMARK    8  A    between atoms: S_13  and  C_14 
REMARK    9  A    between atoms: C_14  and  C_15 
REMARK       I    between atoms: C_15  and  N_16 
REMARK   10  A    between atoms: N_16  and  C_17 
ROOT
HETATM    1  N   UNL     1      21.804  46.484  49.018  1.00  0.00    -0.267 N 
HETATM    2  C   UNL     1      21.855  45.141  48.763  1.00  0.00     0.245 C 
HETATM    3  O   UNL     1      20.801  44.516  48.632  1.00  0.00    -0.271 OA
HETATM    4  H   UNL     1      20.882  46.914  49.074  1.00  0.00     0.190 HD
ENDROOT
BRANCH   1   5
HETATM    5  N   UNL     1      22.905  47.303  49.259  1.00  0.00    -0.274 N 
HETATM    6  H   UNL     1      23.793  46.864  49.495  1.00  0.00     0.189 HD
BRANCH   5   7
HETATM    7  C   UNL     1      22.828  48.666  49.133  1.00  0.00     0.191 C 
HETATM    8  S   UNL     1      24.049  49.637  48.523  1.00  0.00    -0.039 SA
BRANCH   7   9
HETATM    9  N   UNL     1      21.689  49.270  49.587  1.00  0.00    -0.332 N 
HETATM   10  H   UNL     1      21.582  49.216  50.596  1.00  0.00     0.168 HD
BRANCH   9  11
HETATM   11  C   UNL     1      20.760  50.099  48.924  1.00  0.00     0.034 A 
HETATM   12  C   UNL     1      20.249  49.641  47.707  1.00  0.00     0.032 A 
HETATM   13  C   UNL     1      19.294  50.389  47.013  1.00  0.00     0.039 A 
HETATM   14  C   UNL     1      18.813  51.592  47.534  1.00  0.00     0.068 A 
HETATM   15  C   UNL     1      19.304  52.041  48.758  1.00  0.00     0.039 A 
HETATM   16  C   UNL     1      20.265  51.294  49.453  1.00  0.00     0.032 A 
BRANCH  14  17
HETATM   17  O   UNL     1      17.873  52.215  46.764  1.00  0.00    -0.356 OA
HETATM   18  C   UNL     1      16.509  51.931  47.056  1.00  0.00     0.210 C 
ENDBRANCH  14  17
ENDBRANCH   9  11
ENDBRANCH   7   9
ENDBRANCH   5   7
ENDBRANCH   1   5
BRANCH   2  19
HETATM   19  C   UNL     1      23.189  44.449  48.570  1.00  0.00     0.178 C 
BRANCH  19  20
HETATM   20  S   UNL     1      24.055  43.917  50.086  1.00  0.00    -0.150 SA
BRANCH  20  21
HETATM   21  C   UNL     1      25.730  43.570  49.462  1.00  0.00     0.177 C 
BRANCH  21  22
HETATM   22  C   UNL     1      26.866  44.014  50.367  1.00  0.00     0.231 C 
HETATM   23  N   UNL     1      26.995  43.270  51.525  1.00  0.00    -0.327 N 
HETATM   24  H   UNL     1      26.265  42.589  51.702  1.00  0.00     0.169 HD
HETATM   25  O   UNL     1      27.626  44.899  49.981  1.00  0.00    -0.272 OA
BRANCH  23  26
HETATM   26  C   UNL     1      28.023  43.359  52.487  1.00  0.00     0.034 A 
HETATM   27  C   UNL     1      29.230  42.662  52.406  1.00  0.00     0.029 A 
HETATM   28  C   UNL     1      30.192  42.784  53.413  1.00  0.00     0.002 A 
HETATM   29  C   UNL     1      29.957  43.607  54.511  1.00  0.00     0.000 A 
HETATM   30  C   UNL     1      28.762  44.314  54.599  1.00  0.00     0.002 A 
HETATM   31  C   UNL     1      27.798  44.191  53.592  1.00  0.00     0.029 A 
ENDBRANCH  23  26
ENDBRANCH  21  22
ENDBRANCH  20  21
ENDBRANCH  19  20
ENDBRANCH   2  19
TORSDOF 10
ENDMDL
MODEL 10
REMARK VINA RESULT:      -7.4     12.308     15.417
REMARK  10 active torsions:
REMARK  status: ('A' for Active; 'I' for Inactive)
REMARK    1  A    between atoms: O_2  and  C_3 
REMARK    2  A    between atoms: C_6  and  N_7 
REMARK    3  A    between atoms: N_7  and  C_8 
REMARK    4  A    between atoms: C_8  and  N_9 
REMARK    5  A    between atoms: N_9  and  N_10 
REMARK       I    between atoms: N_10  and  C_11 
REMARK    6  A    between atoms: C_11  and  C_12 
REMARK    7  A    between atoms: C_12  and  S_13 
REMARK    8  A    between atoms: S_13  and  C_14 
REMARK    9  A    between atoms: C_14  and  C_15 
REMARK       I    between atoms: C_15  and  N_16 
REMARK   10  A    between atoms: N_16  and  C_17 
ROOT
HETATM    1  N   UNL     1      27.979  47.756  41.902  1.00  0.00    -0.267 N 
HETATM    2  C   UNL     1      27.122  47.230  40.974  1.00  0.00     0.245 C 
HETATM    3  O   UNL     1      26.366  46.315  41.307  1.00  0.00    -0.271 OA
HETATM    4  H   UNL     1      27.940  47.370  42.844  1.00  0.00     0.190 HD
ENDROOT
BRANCH   1   5
HETATM    5  N   UNL     1      28.935  48.738  41.654  1.00  0.00    -0.274 N 
HETATM    6  H   UNL     1      28.633  49.710  41.615  1.00  0.00     0.189 HD
BRANCH   5   7
HETATM    7  C   UNL     1      30.264  48.429  41.516  1.00  0.00     0.191 C 
HETATM    8  S   UNL     1      30.918  47.591  40.223  1.00  0.00    -0.039 SA
BRANCH   7   9
HETATM    9  N   UNL     1      31.097  48.793  42.537  1.00  0.00    -0.332 N 
HETATM   10  H   UNL     1      30.966  48.237  43.378  1.00  0.00     0.168 HD
BRANCH   9  11
HETATM   11  C   UNL     1      32.207  49.663  42.553  1.00  0.00     0.034 A 
HETATM   12  C   UNL     1      32.167  50.735  43.446  1.00  0.00     0.032 A 
HETATM   13  C   UNL     1      33.249  51.615  43.547  1.00  0.00     0.039 A 
HETATM   14  C   UNL     1      34.398  51.423  42.779  1.00  0.00     0.068 A 
HETATM   15  C   UNL     1      34.451  50.341  41.902  1.00  0.00     0.039 A 
HETATM   16  C   UNL     1      33.365  49.461  41.797  1.00  0.00     0.032 A 
BRANCH  14  17
HETATM   17  O   UNL     1      35.386  52.344  42.984  1.00  0.00    -0.356 OA
HETATM   18  C   UNL     1      36.485  52.322  42.081  1.00  0.00     0.210 C 
ENDBRANCH  14  17
ENDBRANCH   9  11
ENDBRANCH   7   9
ENDBRANCH   5   7
ENDBRANCH   1   5
BRANCH   2  19
HETATM   19  C   UNL     1      27.054  47.816  39.578  1.00  0.00     0.178 C 
BRANCH  19  20
HETATM   20  S   UNL     1      26.218  49.430  39.415  1.00  0.00    -0.150 SA
BRANCH  20  21
HETATM   21  C   UNL     1      27.063  50.148  37.970  1.00  0.00     0.177 C 
BRANCH  21  22
HETATM   22  C   UNL     1      28.161  51.147  38.288  1.00  0.00     0.231 C 
HETATM   23  N   UNL     1      29.309  50.583  38.813  1.00  0.00    -0.327 N 
HETATM   24  H   UNL     1      29.261  49.594  39.032  1.00  0.00     0.169 HD
HETATM   25  O   UNL     1      28.005  52.326  37.977  1.00  0.00    -0.272 OA
BRANCH  23  26
HETATM   26  C   UNL     1      30.532  51.232  39.084  1.00  0.00     0.034 A 
HETATM   27  C   UNL     1      30.708  52.173  40.101  1.00  0.00     0.029 A 
HETATM   28  C   UNL     1      31.947  52.792  40.293  1.00  0.00     0.002 A 
HETATM   29  C   UNL     1      33.023  52.474  39.470  1.00  0.00     0.000 A 
HETATM   30  C   UNL     1      32.863  51.533  38.458  1.00  0.00     0.002 A 
HETATM   31  C   UNL     1      31.623  50.914  38.265  1.00  0.00     0.029 A 
ENDBRANCH  23  26
ENDBRANCH  21  22
ENDBRANCH  20  21
ENDBRANCH  19  20
ENDBRANCH   2  19
TORSDOF 10
ENDMDL
