MODEL 1
REMARK VINA RESULT:      -9.5      0.000      0.000
REMARK  3 active torsions:
REMARK  status: ('A' for Active; 'I' for Inactive)
REMARK    1  A    between atoms: C_4  and  N_5 
REMARK       I    between atoms: N_5  and  C_6 
REMARK    2  A    between atoms: C_6  and  C_7 
REMARK    3  A    between atoms: C_7  and  C_8 
ROOT
HETATM    1  C   UNL     1      26.426  46.153  54.290  1.00  0.00     0.286 C 
HETATM    2  N   UNL     1      27.450  45.239  53.617  1.00  0.00    -0.056 N 
HETATM    3  H   UNL     1      26.907  44.514  53.102  1.00  0.00     0.278 HD
HETATM    4  H   UNL     1      27.982  45.757  52.906  1.00  0.00     0.278 HD
HETATM    5  C   UNL     1      28.351  44.617  54.639  1.00  0.00     0.209 C 
HETATM    6  C   UNL     1      29.116  45.752  55.359  1.00  0.00     0.115 C 
HETATM    7  N   UNL     1      28.223  46.784  55.883  1.00  0.00    -0.353 N 
HETATM    8  C   UNL     1      27.107  47.208  55.189  1.00  0.00     0.249 C 
HETATM    9  O   UNL     1      26.659  48.334  55.359  1.00  0.00    -0.271 OA
HETATM   10  C   UNL     1      29.313  43.637  53.983  1.00  0.00     0.035 C 
HETATM   11  C   UNL     1      30.242  43.039  55.041  1.00  0.00     0.002 C 
HETATM   12  C   UNL     1      30.968  44.115  55.854  1.00  0.00     0.002 C 
HETATM   13  C   UNL     1      30.013  45.156  56.445  1.00  0.00     0.027 C 
HETATM   14  H   UNL     1      28.638  47.531  56.438  1.00  0.00     0.163 HD
ENDROOT
BRANCH   1  15
HETATM   15  C   UNL     1      25.484  46.787  53.261  1.00  0.00     0.146 C 
BRANCH  15  16
HETATM   16  C   UNL     1      25.026  45.738  52.280  1.00  0.00     0.224 C 
HETATM   17  N   UNL     1      24.757  46.015  50.981  1.00  0.00    -0.327 N 
HETATM   18  H   UNL     1      24.321  45.228  50.507  1.00  0.00     0.169 HD
HETATM   19  O   UNL     1      24.876  44.577  52.688  1.00  0.00    -0.273 OA
BRANCH  17  20
HETATM   20  C   UNL     1      24.913  47.167  50.187  1.00  0.00     0.035 A 
HETATM   21  C   UNL     1      23.872  47.888  49.605  1.00  0.00     0.036 A 
HETATM   22  C   UNL     1      24.134  49.027  48.824  1.00  0.00    -0.059 A 
HETATM   23  C   UNL     1      23.006  49.826  48.239  1.00  0.00     0.048 C 
HETATM   24  C   UNL     1      25.455  49.456  48.654  1.00  0.00     0.013 A 
HETATM   25  C   UNL     1      26.512  48.754  49.239  1.00  0.00    -0.059 A 
HETATM   26  C   UNL     1      26.228  47.627  50.020  1.00  0.00     0.036 A 
HETATM   27  C   UNL     1      27.924  49.238  49.076  1.00  0.00     0.048 C 
ENDBRANCH  17  20
ENDBRANCH  15  16
ENDBRANCH   1  15
TORSDOF 3
ENDMDL
MODEL 2
REMARK VINA RESULT:      -9.4      0.232      1.798
REMARK  3 active torsions:
REMARK  status: ('A' for Active; 'I' for Inactive)
REMARK    1  A    between atoms: C_4  and  N_5 
REMARK       I    between atoms: N_5  and  C_6 
REMARK    2  A    between atoms: C_6  and  C_7 
REMARK    3  A    between atoms: C_7  and  C_8 
ROOT
HETATM    1  C   UNL     1      26.537  46.126  54.444  1.00  0.00     0.286 C 
HETATM    2  N   UNL     1      27.580  45.239  53.763  1.00  0.00    -0.056 N 
HETATM    3  H   UNL     1      27.052  44.512  53.236  1.00  0.00     0.278 HD
HETATM    4  H   UNL     1      28.106  45.776  53.062  1.00  0.00     0.278 HD
HETATM    5  C   UNL     1      28.486  44.619  54.781  1.00  0.00     0.209 C 
HETATM    6  C   UNL     1      29.229  45.756  55.520  1.00  0.00     0.115 C 
HETATM    7  N   UNL     1      28.316  46.766  56.054  1.00  0.00    -0.353 N 
HETATM    8  C   UNL     1      27.196  47.180  55.360  1.00  0.00     0.249 C 
HETATM    9  O   UNL     1      26.727  48.296  55.545  1.00  0.00    -0.271 OA
HETATM   10  C   UNL     1      29.469  43.665  54.116  1.00  0.00     0.035 C 
HETATM   11  C   UNL     1      30.403  43.068  55.170  1.00  0.00     0.002 C 
HETATM   12  C   UNL     1      31.107  44.145  56.001  1.00  0.00     0.002 C 
HETATM   13  C   UNL     1      30.131  45.161  56.602  1.00  0.00     0.027 C 
HETATM   14  H   UNL     1      28.715  47.511  56.622  1.00  0.00     0.163 HD
ENDROOT
BRANCH   1  15
HETATM   15  C   UNL     1      25.589  46.758  53.420  1.00  0.00     0.146 C 
BRANCH  15  16
HETATM   16  C   UNL     1      25.127  45.708  52.442  1.00  0.00     0.224 C 
HETATM   17  N   UNL     1      24.898  45.973  51.133  1.00  0.00    -0.327 N 
HETATM   18  H   UNL     1      24.453  45.191  50.659  1.00  0.00     0.169 HD
HETATM   19  O   UNL     1      24.934  44.557  52.862  1.00  0.00    -0.273 OA
BRANCH  17  20
HETATM   20  C   UNL     1      25.106  47.108  50.327  1.00  0.00     0.035 A 
HETATM   21  C   UNL     1      26.344  47.700  50.079  1.00  0.00     0.036 A 
HETATM   22  C   UNL     1      26.444  48.838  49.260  1.00  0.00    -0.059 A 
HETATM   23  C   UNL     1      27.785  49.443  48.958  1.00  0.00     0.048 C 
HETATM   24  C   UNL     1      25.292  49.363  48.666  1.00  0.00     0.013 A 
HETATM   25  C   UNL     1      24.044  48.778  48.893  1.00  0.00    -0.059 A 
HETATM   26  C   UNL     1      23.967  47.640  49.706  1.00  0.00     0.036 A 
HETATM   27  C   UNL     1      22.817  49.329  48.228  1.00  0.00     0.048 C 
ENDBRANCH  17  20
ENDBRANCH  15  16
ENDBRANCH   1  15
TORSDOF 3
ENDMDL
MODEL 3
REMARK VINA RESULT:      -9.1      2.216      3.458
REMARK  3 active torsions:
REMARK  status: ('A' for Active; 'I' for Inactive)
REMARK    1  A    between atoms: C_4  and  N_5 
REMARK       I    between atoms: N_5  and  C_6 
REMARK    2  A    between atoms: C_6  and  C_7 
REMARK    3  A    between atoms: C_7  and  C_8 
ROOT
HETATM    1  C   UNL     1      26.726  44.127  50.368  1.00  0.00     0.286 C 
HETATM    2  N   UNL     1      26.718  44.532  51.842  1.00  0.00    -0.056 N 
HETATM    3  H   UNL     1      26.589  45.565  51.865  1.00  0.00     0.278 HD
HETATM    4  H   UNL     1      25.903  44.130  52.321  1.00  0.00     0.278 HD
HETATM    5  C   UNL     1      28.002  44.132  52.503  1.00  0.00     0.209 C 
HETATM    6  C   UNL     1      28.123  42.592  52.426  1.00  0.00     0.115 C 
HETATM    7  N   UNL     1      27.957  42.086  51.065  1.00  0.00    -0.353 N 
HETATM    8  C   UNL     1      27.032  42.624  50.191  1.00  0.00     0.249 C 
HETATM    9  O   UNL     1      26.561  41.945  49.287  1.00  0.00    -0.271 OA
HETATM   10  C   UNL     1      28.036  44.613  53.946  1.00  0.00     0.035 C 
HETATM   11  C   UNL     1      29.340  44.167  54.609  1.00  0.00     0.002 C 
HETATM   12  C   UNL     1      29.567  42.657  54.491  1.00  0.00     0.002 C 
HETATM   13  C   UNL     1      29.447  42.151  53.050  1.00  0.00     0.027 C 
HETATM   14  H   UNL     1      28.097  41.089  50.911  1.00  0.00     0.163 HD
ENDROOT
BRANCH   1  15
HETATM   15  C   UNL     1      25.426  44.541  49.670  1.00  0.00     0.146 C 
BRANCH  15  16
HETATM   16  C   UNL     1      24.478  45.136  50.679  1.00  0.00     0.224 C 
HETATM   17  N   UNL     1      24.218  46.465  50.748  1.00  0.00    -0.327 N 
HETATM   18  H   UNL     1      23.676  46.704  51.575  1.00  0.00     0.169 HD
HETATM   19  O   UNL     1      23.925  44.376  51.487  1.00  0.00    -0.273 OA
BRANCH  17  20
HETATM   20  C   UNL     1      24.583  47.563  49.946  1.00  0.00     0.035 A 
HETATM   21  C   UNL     1      23.694  48.367  49.234  1.00  0.00     0.036 A 
HETATM   22  C   UNL     1      24.161  49.441  48.456  1.00  0.00    -0.059 A 
HETATM   23  C   UNL     1      23.195  50.333  47.730  1.00  0.00     0.048 C 
HETATM   24  C   UNL     1      25.531  49.720  48.421  1.00  0.00     0.013 A 
HETATM   25  C   UNL     1      26.437  48.933  49.135  1.00  0.00    -0.059 A 
HETATM   26  C   UNL     1      25.950  47.873  49.911  1.00  0.00     0.036 A 
HETATM   27  C   UNL     1      27.902  49.258  49.116  1.00  0.00     0.048 C 
ENDBRANCH  17  20
ENDBRANCH  15  16
ENDBRANCH   1  15
TORSDOF 3
ENDMDL
MODEL 4
REMARK VINA RESULT:      -8.9      1.698      3.351
REMARK  3 active torsions:
REMARK  status: ('A' for Active; 'I' for Inactive)
REMARK    1  A    between atoms: C_4  and  N_5 
REMARK       I    between atoms: N_5  and  C_6 
REMARK    2  A    between atoms: C_6  and  C_7 
REMARK    3  A    between atoms: C_7  and  C_8 
ROOT
HETATM    1  C   UNL     1      27.454  44.142  51.672  1.00  0.00     0.286 C 
HETATM    2  N   UNL     1      27.342  44.645  53.112  1.00  0.00    -0.056 N 
HETATM    3  H   UNL     1      26.987  45.623  53.057  1.00  0.00     0.278 HD
HETATM    4  H   UNL     1      26.631  44.110  53.625  1.00  0.00     0.278 HD
HETATM    5  C   UNL     1      28.676  44.591  53.791  1.00  0.00     0.209 C 
HETATM    6  C   UNL     1      29.135  43.115  53.831  1.00  0.00     0.115 C 
HETATM    7  N   UNL     1      29.099  42.483  52.513  1.00  0.00    -0.353 N 
HETATM    8  C   UNL     1      28.087  42.735  51.608  1.00  0.00     0.249 C 
HETATM    9  O   UNL     1      27.787  41.903  50.761  1.00  0.00    -0.271 OA
HETATM   10  C   UNL     1      28.587  45.175  55.194  1.00  0.00     0.035 C 
HETATM   11  C   UNL     1      29.952  45.080  55.880  1.00  0.00     0.002 C 
HETATM   12  C   UNL     1      30.509  43.654  55.875  1.00  0.00     0.002 C 
HETATM   13  C   UNL     1      30.518  43.027  54.477  1.00  0.00     0.027 C 
HETATM   14  H   UNL     1      29.458  41.533  52.434  1.00  0.00     0.163 HD
ENDROOT
BRANCH   1  15
HETATM   15  C   UNL     1      26.102  44.204  50.954  1.00  0.00     0.146 C 
BRANCH  15  16
HETATM   16  C   UNL     1      25.089  44.884  51.840  1.00  0.00     0.224 C 
HETATM   17  N   UNL     1      24.738  46.184  51.690  1.00  0.00    -0.327 N 
HETATM   18  H   UNL     1      24.160  46.513  52.460  1.00  0.00     0.169 HD
HETATM   19  O   UNL     1      24.568  44.225  52.752  1.00  0.00    -0.273 OA
BRANCH  17  20
HETATM   20  C   UNL     1      25.048  47.163  50.727  1.00  0.00     0.035 A 
HETATM   21  C   UNL     1      26.330  47.633  50.444  1.00  0.00     0.036 A 
HETATM   22  C   UNL     1      26.533  48.620  49.463  1.00  0.00    -0.059 A 
HETATM   23  C   UNL     1      27.920  49.088  49.130  1.00  0.00     0.048 C 
HETATM   24  C   UNL     1      25.438  49.111  48.744  1.00  0.00     0.013 A 
HETATM   25  C   UNL     1      24.148  48.645  49.005  1.00  0.00    -0.059 A 
HETATM   26  C   UNL     1      23.968  47.657  49.981  1.00  0.00     0.036 A 
HETATM   27  C   UNL     1      22.983  49.157  48.209  1.00  0.00     0.048 C 
ENDBRANCH  17  20
ENDBRANCH  15  16
ENDBRANCH   1  15
TORSDOF 3
ENDMDL
MODEL 5
REMARK VINA RESULT:      -8.7      2.193      7.952
REMARK  3 active torsions:
REMARK  status: ('A' for Active; 'I' for Inactive)
REMARK    1  A    between atoms: C_4  and  N_5 
REMARK       I    between atoms: N_5  and  C_6 
REMARK    2  A    between atoms: C_6  and  C_7 
REMARK    3  A    between atoms: C_7  and  C_8 
ROOT
HETATM    1  C   UNL     1      25.232  47.490  49.790  1.00  0.00     0.286 C 
HETATM    2  N   UNL     1      23.804  47.865  50.185  1.00  0.00    -0.056 N 
HETATM    3  H   UNL     1      23.330  46.979  50.460  1.00  0.00     0.278 HD
HETATM    4  H   UNL     1      23.807  48.459  51.023  1.00  0.00     0.278 HD
HETATM    5  C   UNL     1      23.098  48.524  49.039  1.00  0.00     0.209 C 
HETATM    6  C   UNL     1      23.859  49.824  48.691  1.00  0.00     0.115 C 
HETATM    7  N   UNL     1      25.287  49.595  48.474  1.00  0.00    -0.353 N 
HETATM    8  C   UNL     1      26.011  48.707  49.245  1.00  0.00     0.249 C 
HETATM    9  O   UNL     1      27.216  48.857  49.401  1.00  0.00    -0.271 OA
HETATM   10  C   UNL     1      21.648  48.817  49.398  1.00  0.00     0.035 C 
HETATM   11  C   UNL     1      20.958  49.517  48.226  1.00  0.00     0.002 C 
HETATM   12  C   UNL     1      21.712  50.770  47.770  1.00  0.00     0.002 C 
HETATM   13  C   UNL     1      23.193  50.501  47.492  1.00  0.00     0.027 C 
HETATM   14  H   UNL     1      25.851  50.385  48.165  1.00  0.00     0.163 HD
ENDROOT
BRANCH   1  15
HETATM   15  C   UNL     1      25.966  46.800  50.944  1.00  0.00     0.146 C 
BRANCH  15  16
HETATM   16  C   UNL     1      25.349  45.448  51.200  1.00  0.00     0.224 C 
HETATM   17  N   UNL     1      25.890  44.544  52.053  1.00  0.00    -0.327 N 
HETATM   18  H   UNL     1      25.429  43.640  51.990  1.00  0.00     0.169 HD
HETATM   19  O   UNL     1      24.310  45.150  50.592  1.00  0.00    -0.273 OA
BRANCH  17  20
HETATM   20  C   UNL     1      26.972  44.592  52.953  1.00  0.00     0.035 A 
HETATM   21  C   UNL     1      27.066  45.448  54.049  1.00  0.00     0.036 A 
HETATM   22  C   UNL     1      28.194  45.421  54.887  1.00  0.00    -0.059 A 
HETATM   23  C   UNL     1      28.270  46.312  56.093  1.00  0.00     0.048 C 
HETATM   24  C   UNL     1      29.218  44.502  54.633  1.00  0.00     0.013 A 
HETATM   25  C   UNL     1      29.137  43.627  53.547  1.00  0.00    -0.059 A 
HETATM   26  C   UNL     1      28.001  43.666  52.729  1.00  0.00     0.036 A 
HETATM   27  C   UNL     1      30.226  42.625  53.299  1.00  0.00     0.048 C 
ENDBRANCH  17  20
ENDBRANCH  15  16
ENDBRANCH   1  15
TORSDOF 3
ENDMDL
MODEL 6
REMARK VINA RESULT:      -8.3      3.295      5.244
REMARK  3 active torsions:
REMARK  status: ('A' for Active; 'I' for Inactive)
REMARK    1  A    between atoms: C_4  and  N_5 
REMARK       I    between atoms: N_5  and  C_6 
REMARK    2  A    between atoms: C_6  and  C_7 
REMARK    3  A    between atoms: C_7  and  C_8 
ROOT
HETATM    1  C   UNL     1      27.210  44.774  53.486  1.00  0.00     0.286 C 
HETATM    2  N   UNL     1      28.609  44.159  53.446  1.00  0.00    -0.056 N 
HETATM    3  H   UNL     1      28.509  43.226  52.993  1.00  0.00     0.278 HD
HETATM    4  H   UNL     1      29.226  44.709  52.837  1.00  0.00     0.278 HD
HETATM    5  C   UNL     1      29.166  44.031  54.831  1.00  0.00     0.209 C 
HETATM    6  C   UNL     1      29.281  45.449  55.435  1.00  0.00     0.115 C 
HETATM    7  N   UNL     1      28.026  46.196  55.352  1.00  0.00    -0.353 N 
HETATM    8  C   UNL     1      27.200  46.118  54.248  1.00  0.00     0.249 C 
HETATM    9  O   UNL     1      26.454  47.045  53.962  1.00  0.00    -0.271 OA
HETATM   10  C   UNL     1      30.520  43.336  54.803  1.00  0.00     0.035 C 
HETATM   11  C   UNL     1      31.083  43.244  56.222  1.00  0.00     0.002 C 
HETATM   12  C   UNL     1      31.141  44.609  56.915  1.00  0.00     0.002 C 
HETATM   13  C   UNL     1      29.803  45.354  56.869  1.00  0.00     0.027 C 
HETATM   14  H   UNL     1      27.991  47.112  55.795  1.00  0.00     0.163 HD
ENDROOT
BRANCH   1  15
HETATM   15  C   UNL     1      26.615  44.899  52.080  1.00  0.00     0.146 C 
BRANCH  15  16
HETATM   16  C   UNL     1      25.375  44.048  51.977  1.00  0.00     0.224 C 
HETATM   17  N   UNL     1      25.370  42.827  51.387  1.00  0.00    -0.327 N 
HETATM   18  H   UNL     1      24.426  42.464  51.277  1.00  0.00     0.169 HD
HETATM   19  O   UNL     1      24.315  44.493  52.441  1.00  0.00    -0.273 OA
BRANCH  17  20
HETATM   20  C   UNL     1      26.384  42.003  50.865  1.00  0.00     0.035 A 
HETATM   21  C   UNL     1      27.281  41.255  51.625  1.00  0.00     0.036 A 
HETATM   22  C   UNL     1      28.264  40.464  51.005  1.00  0.00    -0.059 A 
HETATM   23  C   UNL     1      29.197  39.624  51.828  1.00  0.00     0.048 C 
HETATM   24  C   UNL     1      28.320  40.405  49.608  1.00  0.00     0.013 A 
HETATM   25  C   UNL     1      27.422  41.138  48.829  1.00  0.00    -0.059 A 
HETATM   26  C   UNL     1      26.446  41.914  49.466  1.00  0.00     0.036 A 
HETATM   27  C   UNL     1      27.470  41.046  47.331  1.00  0.00     0.048 C 
ENDBRANCH  17  20
ENDBRANCH  15  16
ENDBRANCH   1  15
TORSDOF 3
ENDMDL
MODEL 7
REMARK VINA RESULT:      -8.3      2.963      7.676
REMARK  3 active torsions:
REMARK  status: ('A' for Active; 'I' for Inactive)
REMARK    1  A    between atoms: C_4  and  N_5 
REMARK       I    between atoms: N_5  and  C_6 
REMARK    2  A    between atoms: C_6  and  C_7 
REMARK    3  A    between atoms: C_7  and  C_8 
ROOT
HETATM    1  C   UNL     1      27.398  43.358  51.156  1.00  0.00     0.286 C 
HETATM    2  N   UNL     1      27.337  44.882  51.270  1.00  0.00    -0.056 N 
HETATM    3  H   UNL     1      27.580  45.114  52.256  1.00  0.00     0.278 HD
HETATM    4  H   UNL     1      28.063  45.315  50.687  1.00  0.00     0.278 HD
HETATM    5  C   UNL     1      25.969  45.380  50.917  1.00  0.00     0.209 C 
HETATM    6  C   UNL     1      25.683  44.996  49.447  1.00  0.00     0.115 C 
HETATM    7  N   UNL     1      25.895  43.572  49.190  1.00  0.00    -0.353 N 
HETATM    8  C   UNL     1      26.939  42.873  49.763  1.00  0.00     0.249 C 
HETATM    9  O   UNL     1      27.399  41.880  49.213  1.00  0.00    -0.271 OA
HETATM   10  C   UNL     1      25.879  46.886  51.118  1.00  0.00     0.035 C 
HETATM   11  C   UNL     1      24.485  47.377  50.721  1.00  0.00     0.002 C 
HETATM   12  C   UNL     1      24.100  46.952  49.301  1.00  0.00     0.002 C 
HETATM   13  C   UNL     1      24.273  45.449  49.065  1.00  0.00     0.027 C 
HETATM   14  H   UNL     1      25.656  43.218  48.265  1.00  0.00     0.163 HD
ENDROOT
BRANCH   1  15
HETATM   15  C   UNL     1      28.785  42.826  51.528  1.00  0.00     0.146 C 
BRANCH  15  16
HETATM   16  C   UNL     1      28.649  41.746  52.571  1.00  0.00     0.224 C 
HETATM   17  N   UNL     1      28.960  41.942  53.876  1.00  0.00    -0.327 N 
HETATM   18  H   UNL     1      28.950  41.072  54.403  1.00  0.00     0.169 HD
HETATM   19  O   UNL     1      28.250  40.628  52.213  1.00  0.00    -0.273 OA
BRANCH  17  20
HETATM   20  C   UNL     1      29.333  43.078  54.619  1.00  0.00     0.035 A 
HETATM   21  C   UNL     1      28.694  44.316  54.569  1.00  0.00     0.036 A 
HETATM   22  C   UNL     1      29.148  45.392  55.351  1.00  0.00    -0.059 A 
HETATM   23  C   UNL     1      28.427  46.708  55.328  1.00  0.00     0.048 C 
HETATM   24  C   UNL     1      30.237  45.207  56.210  1.00  0.00     0.013 A 
HETATM   25  C   UNL     1      30.884  43.971  56.284  1.00  0.00    -0.059 A 
HETATM   26  C   UNL     1      30.410  42.910  55.502  1.00  0.00     0.036 A 
HETATM   27  C   UNL     1      32.032  43.773  57.230  1.00  0.00     0.048 C 
ENDBRANCH  17  20
ENDBRANCH  15  16
ENDBRANCH   1  15
TORSDOF 3
ENDMDL
MODEL 8
REMARK VINA RESULT:      -8.0      2.752      7.873
REMARK  3 active torsions:
REMARK  status: ('A' for Active; 'I' for Inactive)
REMARK    1  A    between atoms: C_4  and  N_5 
REMARK       I    between atoms: N_5  and  C_6 
REMARK    2  A    between atoms: C_6  and  C_7 
REMARK    3  A    between atoms: C_7  and  C_8 
ROOT
HETATM    1  C   UNL     1      25.426  45.190  50.547  1.00  0.00     0.286 C 
HETATM    2  N   UNL     1      24.339  46.019  49.863  1.00  0.00    -0.056 N 
HETATM    3  H   UNL     1      23.928  46.633  50.598  1.00  0.00     0.278 HD
HETATM    4  H   UNL     1      24.752  46.647  49.163  1.00  0.00     0.278 HD
HETATM    5  C   UNL     1      23.298  45.125  49.262  1.00  0.00     0.209 C 
HETATM    6  C   UNL     1      23.982  44.247  48.188  1.00  0.00     0.115 C 
HETATM    7  N   UNL     1      25.159  43.549  48.703  1.00  0.00    -0.353 N 
HETATM    8  C   UNL     1      26.036  44.146  49.586  1.00  0.00     0.249 C 
HETATM    9  O   UNL     1      27.207  43.790  49.637  1.00  0.00    -0.271 OA
HETATM   10  C   UNL     1      22.167  45.946  48.660  1.00  0.00     0.035 C 
HETATM   11  C   UNL     1      21.133  45.014  48.024  1.00  0.00     0.002 C 
HETATM   12  C   UNL     1      21.761  44.053  47.011  1.00  0.00     0.002 C 
HETATM   13  C   UNL     1      22.957  43.286  47.584  1.00  0.00     0.027 C 
HETATM   14  H   UNL     1      25.626  42.889  48.083  1.00  0.00     0.163 HD
ENDROOT
BRANCH   1  15
HETATM   15  C   UNL     1      26.494  46.087  51.183  1.00  0.00     0.146 C 
BRANCH  15  16
HETATM   16  C   UNL     1      26.039  46.519  52.554  1.00  0.00     0.224 C 
HETATM   17  N   UNL     1      26.425  45.884  53.689  1.00  0.00    -0.327 N 
HETATM   18  H   UNL     1      25.910  46.214  54.501  1.00  0.00     0.169 HD
HETATM   19  O   UNL     1      25.269  47.486  52.642  1.00  0.00    -0.273 OA
BRANCH  17  20
HETATM   20  C   UNL     1      27.342  44.849  53.952  1.00  0.00     0.035 A 
HETATM   21  C   UNL     1      27.218  43.534  53.506  1.00  0.00     0.036 A 
HETATM   22  C   UNL     1      28.190  42.571  53.828  1.00  0.00    -0.059 A 
HETATM   23  C   UNL     1      28.075  41.168  53.306  1.00  0.00     0.048 C 
HETATM   24  C   UNL     1      29.308  42.947  54.580  1.00  0.00     0.013 A 
HETATM   25  C   UNL     1      29.457  44.262  55.026  1.00  0.00    -0.059 A 
HETATM   26  C   UNL     1      28.481  45.208  54.688  1.00  0.00     0.036 A 
HETATM   27  C   UNL     1      30.675  44.664  55.807  1.00  0.00     0.048 C 
ENDBRANCH  17  20
ENDBRANCH  15  16
ENDBRANCH   1  15
TORSDOF 3
ENDMDL
MODEL 9
REMARK VINA RESULT:      -8.0      3.625      5.097
REMARK  3 active torsions:
REMARK  status: ('A' for Active; 'I' for Inactive)
REMARK    1  A    between atoms: C_4  and  N_5 
REMARK       I    between atoms: N_5  and  C_6 
REMARK    2  A    between atoms: C_6  and  C_7 
REMARK    3  A    between atoms: C_7  and  C_8 
ROOT
HETATM    1  C   UNL     1      28.356  43.452  53.651  1.00  0.00     0.286 C 
HETATM    2  N   UNL     1      29.765  43.434  54.244  1.00  0.00    -0.056 N 
HETATM    3  H   UNL     1      30.081  42.442  54.226  1.00  0.00     0.278 HD
HETATM    4  H   UNL     1      30.415  43.952  53.641  1.00  0.00     0.278 HD
HETATM    5  C   UNL     1      29.753  43.974  55.641  1.00  0.00     0.209 C 
HETATM    6  C   UNL     1      29.273  45.443  55.585  1.00  0.00     0.115 C 
HETATM    7  N   UNL     1      28.008  45.590  54.866  1.00  0.00    -0.353 N 
HETATM    8  C   UNL     1      27.722  44.858  53.730  1.00  0.00     0.249 C 
HETATM    9  O   UNL     1      26.942  45.291  52.891  1.00  0.00    -0.271 OA
HETATM   10  C   UNL     1      31.137  43.874  56.267  1.00  0.00     0.035 C 
HETATM   11  C   UNL     1      31.109  44.459  57.680  1.00  0.00     0.002 C 
HETATM   12  C   UNL     1      30.556  45.887  57.708  1.00  0.00     0.002 C 
HETATM   13  C   UNL     1      29.203  46.013  57.002  1.00  0.00     0.027 C 
HETATM   14  H   UNL     1      27.580  46.514  54.847  1.00  0.00     0.163 HD
ENDROOT
BRANCH   1  15
HETATM   15  C   UNL     1      28.343  42.888  52.227  1.00  0.00     0.146 C 
BRANCH  15  16
HETATM   16  C   UNL     1      28.064  41.408  52.271  1.00  0.00     0.224 C 
HETATM   17  N   UNL     1      27.001  40.842  51.648  1.00  0.00    -0.327 N 
HETATM   18  H   UNL     1      26.886  39.865  51.906  1.00  0.00     0.169 HD
HETATM   19  O   UNL     1      28.833  40.682  52.918  1.00  0.00    -0.273 OA
BRANCH  17  20
HETATM   20  C   UNL     1      26.017  41.340  50.773  1.00  0.00     0.035 A 
HETATM   21  C   UNL     1      25.258  42.490  50.990  1.00  0.00     0.036 A 
HETATM   22  C   UNL     1      24.294  42.902  50.053  1.00  0.00    -0.059 A 
HETATM   23  C   UNL     1      23.513  44.165  50.269  1.00  0.00     0.048 C 
HETATM   24  C   UNL     1      24.119  42.164  48.877  1.00  0.00     0.013 A 
HETATM   25  C   UNL     1      24.877  41.017  48.636  1.00  0.00    -0.059 A 
HETATM   26  C   UNL     1      25.837  40.628  49.578  1.00  0.00     0.036 A 
HETATM   27  C   UNL     1      24.703  40.249  47.358  1.00  0.00     0.048 C 
ENDBRANCH  17  20
ENDBRANCH  15  16
ENDBRANCH   1  15
TORSDOF 3
ENDMDL
MODEL 10
REMARK VINA RESULT:      -7.8      2.616      7.719
REMARK  3 active torsions:
REMARK  status: ('A' for Active; 'I' for Inactive)
REMARK    1  A    between atoms: C_4  and  N_5 
REMARK       I    between atoms: N_5  and  C_6 
REMARK    2  A    between atoms: C_6  and  C_7 
REMARK    3  A    between atoms: C_7  and  C_8 
ROOT
HETATM    1  C   UNL     1      25.228  44.930  49.534  1.00  0.00     0.286 C 
HETATM    2  N   UNL     1      24.177  44.150  48.744  1.00  0.00    -0.056 N 
HETATM    3  H   UNL     1      24.689  43.404  48.227  1.00  0.00     0.278 HD
HETATM    4  H   UNL     1      23.534  43.666  49.382  1.00  0.00     0.278 HD
HETATM    5  C   UNL     1      23.448  45.059  47.803  1.00  0.00     0.209 C 
HETATM    6  C   UNL     1      22.720  46.135  48.642  1.00  0.00     0.115 C 
HETATM    7  N   UNL     1      23.616  46.818  49.574  1.00  0.00    -0.353 N 
HETATM    8  C   UNL     1      24.611  46.147  50.257  1.00  0.00     0.249 C 
HETATM    9  O   UNL     1      25.017  46.565  51.334  1.00  0.00    -0.271 OA
HETATM   10  C   UNL     1      22.464  44.271  46.950  1.00  0.00     0.035 C 
HETATM   11  C   UNL     1      21.708  45.222  46.020  1.00  0.00     0.002 C 
HETATM   12  C   UNL     1      21.035  46.368  46.782  1.00  0.00     0.002 C 
HETATM   13  C   UNL     1      22.001  47.111  47.710  1.00  0.00     0.027 C 
HETATM   14  H   UNL     1      23.235  47.595  50.112  1.00  0.00     0.163 HD
ENDROOT
BRANCH   1  15
HETATM   15  C   UNL     1      25.998  44.015  50.493  1.00  0.00     0.146 C 
BRANCH  15  16
HETATM   16  C   UNL     1      25.087  43.574  51.611  1.00  0.00     0.224 C 
HETATM   17  N   UNL     1      25.420  43.695  52.919  1.00  0.00    -0.327 N 
HETATM   18  H   UNL     1      24.759  43.216  53.525  1.00  0.00     0.169 HD
HETATM   19  O   UNL     1      23.995  43.067  51.316  1.00  0.00    -0.273 OA
BRANCH  17  20
HETATM   20  C   UNL     1      26.502  44.299  53.589  1.00  0.00     0.035 A 
HETATM   21  C   UNL     1      26.518  45.607  54.072  1.00  0.00     0.036 A 
HETATM   22  C   UNL     1      27.653  46.118  54.725  1.00  0.00    -0.059 A 
HETATM   23  C   UNL     1      27.647  47.511  55.285  1.00  0.00     0.048 C 
HETATM   24  C   UNL     1      28.767  45.293  54.916  1.00  0.00     0.013 A 
HETATM   25  C   UNL     1      28.766  43.976  54.449  1.00  0.00    -0.059 A 
HETATM   26  C   UNL     1      27.622  43.484  53.808  1.00  0.00     0.036 A 
HETATM   27  C   UNL     1      29.954  43.089  54.685  1.00  0.00     0.048 C 
ENDBRANCH  17  20
ENDBRANCH  15  16
ENDBRANCH   1  15
TORSDOF 3
ENDMDL
