MODEL 1
REMARK VINA RESULT:      -9.7      0.000      0.000
REMARK  6 active torsions:
REMARK  status: ('A' for Active; 'I' for Inactive)
REMARK    1  A    between atoms: N_2  and  C_3 
REMARK    2  A    between atoms: C_6  and  C_7 
REMARK       I    between atoms: C_7  and  N_8 
REMARK    3  A    between atoms: N_8  and  C_9 
REMARK    4  A    between atoms: C_9  and  C_10 
REMARK    5  A    between atoms: C_10  and  C_11 
REMARK    6  A    between atoms: C_22  and  O_23 
ROOT
HETATM    1  C   UNL     1      24.033  46.957  49.534  1.00  0.00     0.158 A 
HETATM    2  N   UNL     1      24.719  47.944  50.121  1.00  0.00    -0.111 NA
HETATM    3  O   UNL     1      23.902  49.058  49.930  1.00  0.00    -0.189 OA
HETATM    4  C   UNL     1      22.792  48.627  49.254  1.00  0.00     0.223 A 
HETATM    5  C   UNL     1      21.709  49.476  48.884  1.00  0.00     0.089 A 
HETATM    6  N   UNL     1      20.638  49.014  48.161  1.00  0.00    -0.352 N 
HETATM    7  H   UNL     1      20.537  48.062  47.838  1.00  0.00     0.166 HD
HETATM    8  C   UNL     1      19.731  50.026  47.950  1.00  0.00     0.045 A 
HETATM    9  C   UNL     1      20.245  51.172  48.554  1.00  0.00    -0.007 A 
HETATM   10  C   UNL     1      21.495  50.815  49.134  1.00  0.00     0.048 A 
HETATM   11  C   UNL     1      18.502  50.019  47.278  1.00  0.00     0.067 A 
HETATM   12  C   UNL     1      17.767  51.210  47.224  1.00  0.00     0.070 A 
HETATM   13  C   UNL     1      18.265  52.369  47.820  1.00  0.00     0.038 A 
HETATM   14  C   UNL     1      19.500  52.363  48.486  1.00  0.00     0.016 A 
HETATM   15  N   UNL     1      22.827  47.335  48.996  1.00  0.00    -0.203 NA
ENDROOT
BRANCH   1  16
HETATM   16  C   UNL     1      24.521  45.555  49.539  1.00  0.00     0.103 C 
BRANCH  16  17
HETATM   17  C   UNL     1      24.418  44.887  50.911  1.00  0.00     0.133 C 
BRANCH  17  18
HETATM   18  N   UNL     1      25.689  44.911  51.643  1.00  0.00    -0.352 N 
HETATM   19  C   UNL     1      25.659  44.608  53.005  1.00  0.00     0.253 C 
HETATM   20  O   UNL     1      24.643  44.218  53.577  1.00  0.00    -0.267 OA
HETATM   21  C   UNL     1      26.903  45.061  50.850  1.00  0.00     0.152 C 
BRANCH  19  22
HETATM   22  C   UNL     1      26.890  44.758  53.814  1.00  0.00     0.032 A 
HETATM   23  C   UNL     1      27.218  45.970  54.417  1.00  0.00     0.019 A 
HETATM   24  C   UNL     1      28.381  46.071  55.194  1.00  0.00     0.030 A 
HETATM   25  C   UNL     1      29.226  44.969  55.422  1.00  0.00     0.029 A 
HETATM   26  C   UNL     1      28.853  43.758  54.807  1.00  0.00     0.030 A 
HETATM   27  C   UNL     1      27.698  43.643  54.023  1.00  0.00     0.019 A 
BRANCH  25  28
HETATM   28  N   UNL     1      30.398  45.059  56.184  1.00  0.00    -0.390 N 
HETATM   29  C   UNL     1      30.394  45.856  57.409  1.00  0.00     0.149 C 
HETATM   30  C   UNL     1      31.239  43.858  56.232  1.00  0.00     0.149 C 
ENDBRANCH  25  28
ENDBRANCH  19  22
ENDBRANCH  17  18
ENDBRANCH  16  17
ENDBRANCH   1  16
BRANCH  12  31
HETATM   31  O   UNL     1      16.578  51.104  46.552  1.00  0.00    -0.356 OA
HETATM   32  C   UNL     1      15.617  52.126  46.780  1.00  0.00     0.210 C 
ENDBRANCH  12  31
TORSDOF 6
ENDMDL
MODEL 2
REMARK VINA RESULT:      -9.5      2.140     11.743
REMARK  6 active torsions:
REMARK  status: ('A' for Active; 'I' for Inactive)
REMARK    1  A    between atoms: N_2  and  C_3 
REMARK    2  A    between atoms: C_6  and  C_7 
REMARK       I    between atoms: C_7  and  N_8 
REMARK    3  A    between atoms: N_8  and  C_9 
REMARK    4  A    between atoms: C_9  and  C_10 
REMARK    5  A    between atoms: C_10  and  C_11 
REMARK    6  A    between atoms: C_22  and  O_23 
ROOT
HETATM    1  C   UNL     1      25.061  44.976  50.033  1.00  0.00     0.158 A 
HETATM    2  N   UNL     1      25.544  43.936  49.344  1.00  0.00    -0.111 NA
HETATM    3  O   UNL     1      26.620  43.510  50.123  1.00  0.00    -0.189 OA
HETATM    4  C   UNL     1      26.670  44.332  51.217  1.00  0.00     0.223 A 
HETATM    5  C   UNL     1      27.631  44.207  52.261  1.00  0.00     0.089 A 
HETATM    6  N   UNL     1      27.679  45.084  53.315  1.00  0.00    -0.352 N 
HETATM    7  H   UNL     1      27.056  45.872  53.429  1.00  0.00     0.166 HD
HETATM    8  C   UNL     1      28.683  44.732  54.187  1.00  0.00     0.045 A 
HETATM    9  C   UNL     1      29.299  43.595  53.666  1.00  0.00    -0.007 A 
HETATM   10  C   UNL     1      28.632  43.276  52.450  1.00  0.00     0.048 A 
HETATM   11  C   UNL     1      29.093  45.324  55.388  1.00  0.00     0.067 A 
HETATM   12  C   UNL     1      30.156  44.740  56.088  1.00  0.00     0.070 A 
HETATM   13  C   UNL     1      30.787  43.603  55.584  1.00  0.00     0.038 A 
HETATM   14  C   UNL     1      30.370  43.022  54.377  1.00  0.00     0.016 A 
HETATM   15  N   UNL     1      25.722  45.247  51.206  1.00  0.00    -0.203 NA
ENDROOT
BRANCH   1  16
HETATM   16  C   UNL     1      23.858  45.720  49.582  1.00  0.00     0.103 C 
BRANCH  16  17
HETATM   17  C   UNL     1      24.065  47.236  49.552  1.00  0.00     0.133 C 
BRANCH  17  18
HETATM   18  N   UNL     1      22.846  47.961  49.179  1.00  0.00    -0.352 N 
HETATM   19  C   UNL     1      22.888  49.356  49.202  1.00  0.00     0.253 C 
HETATM   20  O   UNL     1      23.923  49.987  49.410  1.00  0.00    -0.267 OA
HETATM   21  C   UNL     1      21.751  47.171  48.630  1.00  0.00     0.152 C 
BRANCH  19  22
HETATM   22  C   UNL     1      21.646  50.128  48.974  1.00  0.00     0.032 A 
HETATM   23  C   UNL     1      21.094  50.256  47.701  1.00  0.00     0.019 A 
HETATM   24  C   UNL     1      19.904  50.977  47.525  1.00  0.00     0.030 A 
HETATM   25  C   UNL     1      19.215  51.557  48.605  1.00  0.00     0.029 A 
HETATM   26  C   UNL     1      19.796  51.394  49.878  1.00  0.00     0.030 A 
HETATM   27  C   UNL     1      20.987  50.682  50.069  1.00  0.00     0.019 A 
BRANCH  25  28
HETATM   28  N   UNL     1      18.033  52.292  48.442  1.00  0.00    -0.390 N 
HETATM   29  C   UNL     1      17.199  52.053  47.266  1.00  0.00     0.149 C 
HETATM   30  C   UNL     1      17.294  52.620  49.666  1.00  0.00     0.149 C 
ENDBRANCH  25  28
ENDBRANCH  19  22
ENDBRANCH  17  18
ENDBRANCH  16  17
ENDBRANCH   1  16
BRANCH  12  31
HETATM   31  O   UNL     1      30.480  45.385  57.252  1.00  0.00    -0.356 OA
HETATM   32  C   UNL     1      29.406  45.924  58.011  1.00  0.00     0.210 C 
ENDBRANCH  12  31
TORSDOF 6
ENDMDL
MODEL 3
REMARK VINA RESULT:      -9.1      1.536      2.049
REMARK  6 active torsions:
REMARK  status: ('A' for Active; 'I' for Inactive)
REMARK    1  A    between atoms: N_2  and  C_3 
REMARK    2  A    between atoms: C_6  and  C_7 
REMARK       I    between atoms: C_7  and  N_8 
REMARK    3  A    between atoms: N_8  and  C_9 
REMARK    4  A    between atoms: C_9  and  C_10 
REMARK    5  A    between atoms: C_10  and  C_11 
REMARK    6  A    between atoms: C_22  and  O_23 
ROOT
HETATM    1  C   UNL     1      25.368  45.523  49.562  1.00  0.00     0.158 A 
HETATM    2  N   UNL     1      26.313  46.470  49.586  1.00  0.00    -0.111 NA
HETATM    3  O   UNL     1      25.582  47.652  49.472  1.00  0.00    -0.189 OA
HETATM    4  C   UNL     1      24.261  47.299  49.404  1.00  0.00     0.223 A 
HETATM    5  C   UNL     1      23.193  48.236  49.295  1.00  0.00     0.089 A 
HETATM    6  N   UNL     1      21.886  47.838  49.177  1.00  0.00    -0.352 N 
HETATM    7  H   UNL     1      21.584  46.874  49.152  1.00  0.00     0.166 HD
HETATM    8  C   UNL     1      21.056  48.933  49.104  1.00  0.00     0.045 A 
HETATM    9  C   UNL     1      21.864  50.066  49.173  1.00  0.00    -0.007 A 
HETATM   10  C   UNL     1      23.210  49.616  49.287  1.00  0.00     0.048 A 
HETATM   11  C   UNL     1      19.663  49.011  48.985  1.00  0.00     0.067 A 
HETATM   12  C   UNL     1      19.069  50.279  48.943  1.00  0.00     0.070 A 
HETATM   13  C   UNL     1      19.860  51.426  49.008  1.00  0.00     0.038 A 
HETATM   14  C   UNL     1      21.256  51.333  49.123  1.00  0.00     0.016 A 
HETATM   15  N   UNL     1      24.082  45.995  49.463  1.00  0.00    -0.203 NA
ENDROOT
BRANCH   1  16
HETATM   16  C   UNL     1      25.701  44.083  49.706  1.00  0.00     0.103 C 
BRANCH  16  17
HETATM   17  C   UNL     1      25.408  43.535  51.104  1.00  0.00     0.133 C 
BRANCH  17  18
HETATM   18  N   UNL     1      26.578  43.596  51.987  1.00  0.00    -0.352 N 
HETATM   19  C   UNL     1      26.362  43.903  53.330  1.00  0.00     0.253 C 
HETATM   20  O   UNL     1      25.237  44.010  53.815  1.00  0.00    -0.267 OA
HETATM   21  C   UNL     1      27.847  43.143  51.431  1.00  0.00     0.152 C 
BRANCH  19  22
HETATM   22  C   UNL     1      27.520  44.117  54.227  1.00  0.00     0.032 A 
HETATM   23  C   UNL     1      28.552  43.185  54.314  1.00  0.00     0.019 A 
HETATM   24  C   UNL     1      29.645  43.430  55.158  1.00  0.00     0.030 A 
HETATM   25  C   UNL     1      29.760  44.616  55.907  1.00  0.00     0.029 A 
HETATM   26  C   UNL     1      28.704  45.540  55.781  1.00  0.00     0.030 A 
HETATM   27  C   UNL     1      27.604  45.306  54.947  1.00  0.00     0.019 A 
BRANCH  25  28
HETATM   28  N   UNL     1      30.839  44.868  56.764  1.00  0.00    -0.390 N 
HETATM   29  C   UNL     1      30.673  45.819  57.862  1.00  0.00     0.149 C 
HETATM   30  C   UNL     1      31.716  43.731  57.060  1.00  0.00     0.149 C 
ENDBRANCH  25  28
ENDBRANCH  19  22
ENDBRANCH  17  18
ENDBRANCH  16  17
ENDBRANCH   1  16
BRANCH  12  31
HETATM   31  O   UNL     1      17.704  50.255  48.833  1.00  0.00    -0.356 OA
HETATM   32  C   UNL     1      17.092  48.979  48.693  1.00  0.00     0.210 C 
ENDBRANCH  12  31
TORSDOF 6
ENDMDL
MODEL 4
REMARK VINA RESULT:      -8.9      3.328      4.465
REMARK  6 active torsions:
REMARK  status: ('A' for Active; 'I' for Inactive)
REMARK    1  A    between atoms: N_2  and  C_3 
REMARK    2  A    between atoms: C_6  and  C_7 
REMARK       I    between atoms: C_7  and  N_8 
REMARK    3  A    between atoms: N_8  and  C_9 
REMARK    4  A    between atoms: C_9  and  C_10 
REMARK    5  A    between atoms: C_10  and  C_11 
REMARK    6  A    between atoms: C_22  and  O_23 
ROOT
HETATM    1  C   UNL     1      25.211  48.145  49.908  1.00  0.00     0.158 A 
HETATM    2  N   UNL     1      25.764  48.809  48.886  1.00  0.00    -0.111 NA
HETATM    3  O   UNL     1      24.731  49.638  48.449  1.00  0.00    -0.189 OA
HETATM    4  C   UNL     1      23.656  49.400  49.264  1.00  0.00     0.223 A 
HETATM    5  C   UNL     1      22.404  50.069  49.143  1.00  0.00     0.089 A 
HETATM    6  N   UNL     1      21.336  49.763  49.947  1.00  0.00    -0.352 N 
HETATM    7  H   UNL     1      21.349  49.054  50.667  1.00  0.00     0.166 HD
HETATM    8  C   UNL     1      20.258  50.561  49.637  1.00  0.00     0.045 A 
HETATM    9  C   UNL     1      20.654  51.399  48.596  1.00  0.00    -0.007 A 
HETATM   10  C   UNL     1      22.006  51.076  48.288  1.00  0.00     0.048 A 
HETATM   11  C   UNL     1      18.974  50.609  50.192  1.00  0.00     0.067 A 
HETATM   12  C   UNL     1      18.063  51.542  49.681  1.00  0.00     0.070 A 
HETATM   13  C   UNL     1      18.438  52.389  48.638  1.00  0.00     0.038 A 
HETATM   14  C   UNL     1      19.728  52.327  48.087  1.00  0.00     0.016 A 
HETATM   15  N   UNL     1      23.910  48.491  50.183  1.00  0.00    -0.203 NA
ENDROOT
BRANCH   1  16
HETATM   16  C   UNL     1      25.985  47.168  50.715  1.00  0.00     0.103 C 
BRANCH  16  17
HETATM   17  C   UNL     1      25.152  45.965  51.163  1.00  0.00     0.133 C 
BRANCH  17  18
HETATM   18  N   UNL     1      25.654  44.700  50.617  1.00  0.00    -0.352 N 
HETATM   19  C   UNL     1      25.320  43.525  51.290  1.00  0.00     0.253 C 
HETATM   20  O   UNL     1      24.540  43.502  52.241  1.00  0.00    -0.267 OA
HETATM   21  C   UNL     1      26.300  44.756  49.311  1.00  0.00     0.152 C 
BRANCH  19  22
HETATM   22  C   UNL     1      25.921  42.241  50.862  1.00  0.00     0.032 A 
HETATM   23  C   UNL     1      25.344  41.471  49.854  1.00  0.00     0.019 A 
HETATM   24  C   UNL     1      25.952  40.271  49.459  1.00  0.00     0.030 A 
HETATM   25  C   UNL     1      27.160  39.822  50.025  1.00  0.00     0.029 A 
HETATM   26  C   UNL     1      27.719  40.636  51.031  1.00  0.00     0.030 A 
HETATM   27  C   UNL     1      27.120  41.833  51.440  1.00  0.00     0.019 A 
BRANCH  25  28
HETATM   28  N   UNL     1      27.771  38.618  49.649  1.00  0.00    -0.390 N 
HETATM   29  C   UNL     1      29.128  38.331  50.112  1.00  0.00     0.149 C 
HETATM   30  C   UNL     1      26.895  37.448  49.542  1.00  0.00     0.149 C 
ENDBRANCH  25  28
ENDBRANCH  19  22
ENDBRANCH  17  18
ENDBRANCH  16  17
ENDBRANCH   1  16
BRANCH  12  31
HETATM   31  O   UNL     1      16.836  51.519  50.290  1.00  0.00    -0.356 OA
HETATM   32  C   UNL     1      15.839  52.382  49.761  1.00  0.00     0.210 C 
ENDBRANCH  12  31
TORSDOF 6
ENDMDL
MODEL 5
REMARK VINA RESULT:      -8.5      2.513     11.884
REMARK  6 active torsions:
REMARK  status: ('A' for Active; 'I' for Inactive)
REMARK    1  A    between atoms: N_2  and  C_3 
REMARK    2  A    between atoms: C_6  and  C_7 
REMARK       I    between atoms: C_7  and  N_8 
REMARK    3  A    between atoms: N_8  and  C_9 
REMARK    4  A    between atoms: C_9  and  C_10 
REMARK    5  A    between atoms: C_10  and  C_11 
REMARK    6  A    between atoms: C_22  and  O_23 
ROOT
HETATM    1  C   UNL     1      23.357  47.647  49.253  1.00  0.00     0.158 A 
HETATM    2  N   UNL     1      23.426  46.442  48.673  1.00  0.00    -0.111 NA
HETATM    3  O   UNL     1      24.289  45.735  49.510  1.00  0.00    -0.189 OA
HETATM    4  C   UNL     1      24.646  46.584  50.524  1.00  0.00     0.223 A 
HETATM    5  C   UNL     1      25.513  46.221  51.594  1.00  0.00     0.089 A 
HETATM    6  N   UNL     1      25.887  47.118  52.563  1.00  0.00    -0.352 N 
HETATM    7  H   UNL     1      25.590  48.084  52.590  1.00  0.00     0.166 HD
HETATM    8  C   UNL     1      26.712  46.513  53.483  1.00  0.00     0.045 A 
HETATM    9  C   UNL     1      26.871  45.188  53.083  1.00  0.00    -0.007 A 
HETATM   10  C   UNL     1      26.117  45.016  51.889  1.00  0.00     0.048 A 
HETATM   11  C   UNL     1      27.324  47.030  54.632  1.00  0.00     0.067 A 
HETATM   12  C   UNL     1      28.117  46.173  55.405  1.00  0.00     0.070 A 
HETATM   13  C   UNL     1      28.292  44.843  55.021  1.00  0.00     0.038 A 
HETATM   14  C   UNL     1      27.677  44.340  53.865  1.00  0.00     0.016 A 
HETATM   15  N   UNL     1      24.088  47.772  50.409  1.00  0.00    -0.203 NA
ENDROOT
BRANCH   1  16
HETATM   16  C   UNL     1      22.493  48.726  48.711  1.00  0.00     0.103 C 
BRANCH  16  17
HETATM   17  C   UNL     1      21.055  48.274  48.455  1.00  0.00     0.133 C 
BRANCH  17  18
HETATM   18  N   UNL     1      20.115  49.399  48.398  1.00  0.00    -0.352 N 
HETATM   19  C   UNL     1      19.115  49.459  49.369  1.00  0.00     0.253 C 
HETATM   20  O   UNL     1      19.064  48.681  50.320  1.00  0.00    -0.267 OA
HETATM   21  C   UNL     1      20.418  50.463  47.449  1.00  0.00     0.152 C 
BRANCH  19  22
HETATM   22  C   UNL     1      18.060  50.492  49.268  1.00  0.00     0.032 A 
HETATM   23  C   UNL     1      16.855  50.238  48.616  1.00  0.00     0.019 A 
HETATM   24  C   UNL     1      15.869  51.233  48.559  1.00  0.00     0.030 A 
HETATM   25  C   UNL     1      16.036  52.488  49.173  1.00  0.00     0.029 A 
HETATM   26  C   UNL     1      17.262  52.702  49.834  1.00  0.00     0.030 A 
HETATM   27  C   UNL     1      18.258  51.720  49.895  1.00  0.00     0.019 A 
BRANCH  25  28
HETATM   28  N   UNL     1      15.065  53.497  49.111  1.00  0.00    -0.390 N 
HETATM   29  C   UNL     1      15.204  54.676  49.964  1.00  0.00     0.149 C 
HETATM   30  C   UNL     1      14.475  53.754  47.794  1.00  0.00     0.149 C 
ENDBRANCH  25  28
ENDBRANCH  19  22
ENDBRANCH  17  18
ENDBRANCH  16  17
ENDBRANCH   1  16
BRANCH  12  31
HETATM   31  O   UNL     1      28.668  46.765  56.511  1.00  0.00    -0.356 OA
HETATM   32  C   UNL     1      29.144  45.900  57.534  1.00  0.00     0.210 C 
ENDBRANCH  12  31
TORSDOF 6
ENDMDL
MODEL 6
REMARK VINA RESULT:      -8.5      2.257     11.852
REMARK  6 active torsions:
REMARK  status: ('A' for Active; 'I' for Inactive)
REMARK    1  A    between atoms: N_2  and  C_3 
REMARK    2  A    between atoms: C_6  and  C_7 
REMARK       I    between atoms: C_7  and  N_8 
REMARK    3  A    between atoms: N_8  and  C_9 
REMARK    4  A    between atoms: C_9  and  C_10 
REMARK    5  A    between atoms: C_10  and  C_11 
REMARK    6  A    between atoms: C_22  and  O_23 
ROOT
HETATM    1  C   UNL     1      24.822  43.800  50.595  1.00  0.00     0.158 A 
HETATM    2  N   UNL     1      25.229  42.581  50.222  1.00  0.00    -0.111 NA
HETATM    3  O   UNL     1      26.331  42.348  51.044  1.00  0.00    -0.189 OA
HETATM    4  C   UNL     1      26.472  43.450  51.844  1.00  0.00     0.223 A 
HETATM    5  C   UNL     1      27.486  43.586  52.836  1.00  0.00     0.089 A 
HETATM    6  N   UNL     1      27.624  44.729  53.582  1.00  0.00    -0.352 N 
HETATM    7  H   UNL     1      27.037  45.547  53.486  1.00  0.00     0.166 HD
HETATM    8  C   UNL     1      28.664  44.597  54.473  1.00  0.00     0.045 A 
HETATM    9  C   UNL     1      29.208  43.329  54.284  1.00  0.00    -0.007 A 
HETATM   10  C   UNL     1      28.463  42.702  53.246  1.00  0.00     0.048 A 
HETATM   11  C   UNL     1      29.162  45.493  55.428  1.00  0.00     0.067 A 
HETATM   12  C   UNL     1      30.242  45.086  56.221  1.00  0.00     0.070 A 
HETATM   13  C   UNL     1      30.803  43.821  56.047  1.00  0.00     0.038 A 
HETATM   14  C   UNL     1      30.297  42.935  55.083  1.00  0.00     0.016 A 
HETATM   15  N   UNL     1      25.557  44.368  51.607  1.00  0.00    -0.203 NA
ENDROOT
BRANCH   1  16
HETATM   16  C   UNL     1      23.622  44.440  49.999  1.00  0.00     0.103 C 
BRANCH  16  17
HETATM   17  C   UNL     1      23.940  45.737  49.254  1.00  0.00     0.133 C 
BRANCH  17  18
HETATM   18  N   UNL     1      22.739  46.380  48.709  1.00  0.00    -0.352 N 
HETATM   19  C   UNL     1      22.543  47.732  48.992  1.00  0.00     0.253 C 
HETATM   20  O   UNL     1      23.380  48.419  49.574  1.00  0.00    -0.267 OA
HETATM   21  C   UNL     1      21.950  45.605  47.760  1.00  0.00     0.152 C 
BRANCH  19  22
HETATM   22  C   UNL     1      21.278  48.387  48.586  1.00  0.00     0.032 A 
HETATM   23  C   UNL     1      20.050  47.977  49.102  1.00  0.00     0.019 A 
HETATM   24  C   UNL     1      18.875  48.633  48.712  1.00  0.00     0.030 A 
HETATM   25  C   UNL     1      18.888  49.732  47.832  1.00  0.00     0.029 A 
HETATM   26  C   UNL     1      20.150  50.125  47.343  1.00  0.00     0.030 A 
HETATM   27  C   UNL     1      21.332  49.476  47.719  1.00  0.00     0.019 A 
BRANCH  25  28
HETATM   28  N   UNL     1      17.720  50.388  47.423  1.00  0.00    -0.390 N 
HETATM   29  C   UNL     1      16.550  50.376  48.298  1.00  0.00     0.149 C 
HETATM   30  C   UNL     1      17.902  51.622  46.652  1.00  0.00     0.149 C 
ENDBRANCH  25  28
ENDBRANCH  19  22
ENDBRANCH  17  18
ENDBRANCH  16  17
ENDBRANCH   1  16
BRANCH  12  31
HETATM   31  O   UNL     1      30.654  46.025  57.129  1.00  0.00    -0.356 OA
HETATM   32  C   UNL     1      30.683  45.631  58.495  1.00  0.00     0.210 C 
ENDBRANCH  12  31
TORSDOF 6
ENDMDL
MODEL 7
REMARK VINA RESULT:      -8.3      1.839      2.274
REMARK  6 active torsions:
REMARK  status: ('A' for Active; 'I' for Inactive)
REMARK    1  A    between atoms: N_2  and  C_3 
REMARK    2  A    between atoms: C_6  and  C_7 
REMARK       I    between atoms: C_7  and  N_8 
REMARK    3  A    between atoms: N_8  and  C_9 
REMARK    4  A    between atoms: C_9  and  C_10 
REMARK    5  A    between atoms: C_10  and  C_11 
REMARK    6  A    between atoms: C_22  and  O_23 
ROOT
HETATM    1  C   UNL     1      22.845  46.909  48.854  1.00  0.00     0.158 A 
HETATM    2  N   UNL     1      22.266  46.050  48.007  1.00  0.00    -0.111 NA
HETATM    3  O   UNL     1      20.993  46.590  47.826  1.00  0.00    -0.189 OA
HETATM    4  C   UNL     1      20.935  47.735  48.577  1.00  0.00     0.223 A 
HETATM    5  C   UNL     1      19.793  48.583  48.644  1.00  0.00     0.089 A 
HETATM    6  N   UNL     1      19.758  49.693  49.450  1.00  0.00    -0.352 N 
HETATM    7  H   UNL     1      20.517  49.987  50.048  1.00  0.00     0.166 HD
HETATM    8  C   UNL     1      18.552  50.343  49.318  1.00  0.00     0.045 A 
HETATM    9  C   UNL     1      17.793  49.618  48.402  1.00  0.00    -0.007 A 
HETATM   10  C   UNL     1      18.581  48.508  47.988  1.00  0.00     0.048 A 
HETATM   11  C   UNL     1      18.077  51.509  49.932  1.00  0.00     0.067 A 
HETATM   12  C   UNL     1      16.793  51.958  49.600  1.00  0.00     0.070 A 
HETATM   13  C   UNL     1      16.015  51.247  48.686  1.00  0.00     0.038 A 
HETATM   14  C   UNL     1      16.502  50.077  48.082  1.00  0.00     0.016 A 
HETATM   15  N   UNL     1      22.059  47.973  49.222  1.00  0.00    -0.203 NA
ENDROOT
BRANCH   1  16
HETATM   16  C   UNL     1      24.254  46.744  49.293  1.00  0.00     0.103 C 
BRANCH  16  17
HETATM   17  C   UNL     1      24.591  45.310  49.707  1.00  0.00     0.133 C 
BRANCH  17  18
HETATM   18  N   UNL     1      25.763  45.240  50.585  1.00  0.00    -0.352 N 
HETATM   19  C   UNL     1      25.559  44.862  51.912  1.00  0.00     0.253 C 
HETATM   20  O   UNL     1      24.469  44.482  52.335  1.00  0.00    -0.267 OA
HETATM   21  C   UNL     1      27.069  45.384  49.952  1.00  0.00     0.152 C 
BRANCH  19  22
HETATM   22  C   UNL     1      26.687  44.916  52.869  1.00  0.00     0.032 A 
HETATM   23  C   UNL     1      26.847  45.990  53.743  1.00  0.00     0.019 A 
HETATM   24  C   UNL     1      27.915  45.997  54.651  1.00  0.00     0.030 A 
HETATM   25  C   UNL     1      28.828  44.930  54.741  1.00  0.00     0.029 A 
HETATM   26  C   UNL     1      28.625  43.857  53.851  1.00  0.00     0.030 A 
HETATM   27  C   UNL     1      27.566  43.838  52.935  1.00  0.00     0.019 A 
BRANCH  25  28
HETATM   28  N   UNL     1      29.908  44.931  55.634  1.00  0.00    -0.390 N 
HETATM   29  C   UNL     1      29.845  45.768  56.830  1.00  0.00     0.149 C 
HETATM   30  C   UNL     1      30.611  43.656  55.808  1.00  0.00     0.149 C 
ENDBRANCH  25  28
ENDBRANCH  19  22
ENDBRANCH  17  18
ENDBRANCH  16  17
ENDBRANCH   1  16
BRANCH  12  31
HETATM   31  O   UNL     1      16.418  53.107  50.244  1.00  0.00    -0.356 OA
HETATM   32  C   UNL     1      15.024  53.370  50.333  1.00  0.00     0.210 C 
ENDBRANCH  12  31
TORSDOF 6
ENDMDL
MODEL 8
REMARK VINA RESULT:      -8.2      6.560     11.439
REMARK  6 active torsions:
REMARK  status: ('A' for Active; 'I' for Inactive)
REMARK    1  A    between atoms: N_2  and  C_3 
REMARK    2  A    between atoms: C_6  and  C_7 
REMARK       I    between atoms: C_7  and  N_8 
REMARK    3  A    between atoms: N_8  and  C_9 
REMARK    4  A    between atoms: C_9  and  C_10 
REMARK    5  A    between atoms: C_10  and  C_11 
REMARK    6  A    between atoms: C_22  and  O_23 
ROOT
HETATM    1  C   UNL     1      24.707  42.877  50.613  1.00  0.00     0.158 A 
HETATM    2  N   UNL     1      23.791  43.767  51.011  1.00  0.00    -0.111 NA
HETATM    3  O   UNL     1      24.409  44.402  52.088  1.00  0.00    -0.189 OA
HETATM    4  C   UNL     1      25.649  43.838  52.225  1.00  0.00     0.223 A 
HETATM    5  C   UNL     1      26.595  44.231  53.214  1.00  0.00     0.089 A 
HETATM    6  N   UNL     1      27.808  43.604  53.352  1.00  0.00    -0.352 N 
HETATM    7  H   UNL     1      28.116  42.829  52.781  1.00  0.00     0.166 HD
HETATM    8  C   UNL     1      28.535  44.184  54.365  1.00  0.00     0.045 A 
HETATM    9  C   UNL     1      27.757  45.211  54.894  1.00  0.00    -0.007 A 
HETATM   10  C   UNL     1      26.534  45.229  54.166  1.00  0.00     0.048 A 
HETATM   11  C   UNL     1      29.814  43.884  54.852  1.00  0.00     0.067 A 
HETATM   12  C   UNL     1      30.322  44.656  55.905  1.00  0.00     0.070 A 
HETATM   13  C   UNL     1      29.558  45.688  56.450  1.00  0.00     0.038 A 
HETATM   14  C   UNL     1      28.277  45.974  55.956  1.00  0.00     0.016 A 
HETATM   15  N   UNL     1      25.879  42.897  51.331  1.00  0.00    -0.203 NA
ENDROOT
BRANCH   1  16
HETATM   16  C   UNL     1      24.484  41.995  49.440  1.00  0.00     0.103 C 
BRANCH  16  17
HETATM   17  C   UNL     1      25.417  40.783  49.412  1.00  0.00     0.133 C 
BRANCH  17  18
HETATM   18  N   UNL     1      25.857  40.445  48.055  1.00  0.00    -0.352 N 
HETATM   19  C   UNL     1      27.202  40.122  47.870  1.00  0.00     0.253 C 
HETATM   20  O   UNL     1      27.992  40.003  48.806  1.00  0.00    -0.267 OA
HETATM   21  C   UNL     1      24.817  40.286  47.045  1.00  0.00     0.152 C 
BRANCH  19  22
HETATM   22  C   UNL     1      27.722  39.915  46.500  1.00  0.00     0.032 A 
HETATM   23  C   UNL     1      28.107  40.989  45.700  1.00  0.00     0.019 A 
HETATM   24  C   UNL     1      28.616  40.754  44.415  1.00  0.00     0.030 A 
HETATM   25  C   UNL     1      28.789  39.454  43.904  1.00  0.00     0.029 A 
HETATM   26  C   UNL     1      28.401  38.395  44.749  1.00  0.00     0.030 A 
HETATM   27  C   UNL     1      27.886  38.613  46.032  1.00  0.00     0.019 A 
BRANCH  25  28
HETATM   28  N   UNL     1      29.283  39.205  42.617  1.00  0.00    -0.390 N 
HETATM   29  C   UNL     1      28.532  39.686  41.458  1.00  0.00     0.149 C 
HETATM   30  C   UNL     1      30.740  39.229  42.462  1.00  0.00     0.149 C 
ENDBRANCH  25  28
ENDBRANCH  19  22
ENDBRANCH  17  18
ENDBRANCH  16  17
ENDBRANCH   1  16
BRANCH  12  31
HETATM   31  O   UNL     1      31.580  44.293  56.308  1.00  0.00    -0.356 OA
HETATM   32  C   UNL     1      31.671  43.257  57.277  1.00  0.00     0.210 C 
ENDBRANCH  12  31
TORSDOF 6
ENDMDL
MODEL 9
REMARK VINA RESULT:      -8.2      2.198      2.736
REMARK  6 active torsions:
REMARK  status: ('A' for Active; 'I' for Inactive)
REMARK    1  A    between atoms: N_2  and  C_3 
REMARK    2  A    between atoms: C_6  and  C_7 
REMARK       I    between atoms: C_7  and  N_8 
REMARK    3  A    between atoms: N_8  and  C_9 
REMARK    4  A    between atoms: C_9  and  C_10 
REMARK    5  A    between atoms: C_10  and  C_11 
REMARK    6  A    between atoms: C_22  and  O_23 
ROOT
HETATM    1  C   UNL     1      23.793  44.853  48.650  1.00  0.00     0.158 A 
HETATM    2  N   UNL     1      23.240  44.187  47.630  1.00  0.00    -0.111 NA
HETATM    3  O   UNL     1      22.050  44.878  47.405  1.00  0.00    -0.189 OA
HETATM    4  C   UNL     1      22.009  45.906  48.309  1.00  0.00     0.223 A 
HETATM    5  C   UNL     1      20.947  46.853  48.387  1.00  0.00     0.089 A 
HETATM    6  N   UNL     1      20.919  47.837  49.342  1.00  0.00    -0.352 N 
HETATM    7  H   UNL     1      21.628  47.963  50.052  1.00  0.00     0.166 HD
HETATM    8  C   UNL     1      19.800  48.623  49.189  1.00  0.00     0.045 A 
HETATM    9  C   UNL     1      19.089  48.117  48.102  1.00  0.00    -0.007 A 
HETATM   10  C   UNL     1      19.817  46.998  47.608  1.00  0.00     0.048 A 
HETATM   11  C   UNL     1      19.364  49.735  49.919  1.00  0.00     0.067 A 
HETATM   12  C   UNL     1      18.172  50.359  49.531  1.00  0.00     0.070 A 
HETATM   13  C   UNL     1      17.443  49.868  48.447  1.00  0.00     0.038 A 
HETATM   14  C   UNL     1      17.890  48.749  47.727  1.00  0.00     0.016 A 
HETATM   15  N   UNL     1      23.068  45.933  49.093  1.00  0.00    -0.203 NA
ENDROOT
BRANCH   1  16
HETATM   16  C   UNL     1      25.121  44.481  49.199  1.00  0.00     0.103 C 
BRANCH  16  17
HETATM   17  C   UNL     1      25.033  43.736  50.532  1.00  0.00     0.133 C 
BRANCH  17  18
HETATM   18  N   UNL     1      26.106  44.114  51.458  1.00  0.00    -0.352 N 
HETATM   19  C   UNL     1      26.881  43.092  52.006  1.00  0.00     0.253 C 
HETATM   20  O   UNL     1      26.774  41.917  51.659  1.00  0.00    -0.267 OA
HETATM   21  C   UNL     1      26.397  45.538  51.582  1.00  0.00     0.152 C 
BRANCH  19  22
HETATM   22  C   UNL     1      27.878  43.412  53.052  1.00  0.00     0.032 A 
HETATM   23  C   UNL     1      29.215  43.043  52.919  1.00  0.00     0.019 A 
HETATM   24  C   UNL     1      30.136  43.381  53.920  1.00  0.00     0.030 A 
HETATM   25  C   UNL     1      29.766  44.121  55.058  1.00  0.00     0.029 A 
HETATM   26  C   UNL     1      28.408  44.488  55.150  1.00  0.00     0.030 A 
HETATM   27  C   UNL     1      27.476  44.153  54.161  1.00  0.00     0.019 A 
BRANCH  25  28
HETATM   28  N   UNL     1      30.673  44.454  56.073  1.00  0.00    -0.390 N 
HETATM   29  C   UNL     1      30.368  45.572  56.964  1.00  0.00     0.149 C 
HETATM   30  C   UNL     1      31.385  43.338  56.703  1.00  0.00     0.149 C 
ENDBRANCH  25  28
ENDBRANCH  19  22
ENDBRANCH  17  18
ENDBRANCH  16  17
ENDBRANCH   1  16
BRANCH  12  31
HETATM   31  O   UNL     1      17.830  51.440  50.299  1.00  0.00    -0.356 OA
HETATM   32  C   UNL     1      16.696  52.192  49.885  1.00  0.00     0.210 C 
ENDBRANCH  12  31
TORSDOF 6
ENDMDL
MODEL 10
REMARK VINA RESULT:      -8.1      7.844     12.291
REMARK  6 active torsions:
REMARK  status: ('A' for Active; 'I' for Inactive)
REMARK    1  A    between atoms: N_2  and  C_3 
REMARK    2  A    between atoms: C_6  and  C_7 
REMARK       I    between atoms: C_7  and  N_8 
REMARK    3  A    between atoms: N_8  and  C_9 
REMARK    4  A    between atoms: C_9  and  C_10 
REMARK    5  A    between atoms: C_10  and  C_11 
REMARK    6  A    between atoms: C_22  and  O_23 
ROOT
HETATM    1  C   UNL     1      26.447  40.286  49.877  1.00  0.00     0.158 A 
HETATM    2  N   UNL     1      25.375  41.082  49.788  1.00  0.00    -0.111 NA
HETATM    3  O   UNL     1      25.626  42.064  50.746  1.00  0.00    -0.189 OA
HETATM    4  C   UNL     1      26.838  41.769  51.312  1.00  0.00     0.223 A 
HETATM    5  C   UNL     1      27.451  42.553  52.331  1.00  0.00     0.089 A 
HETATM    6  N   UNL     1      28.642  42.193  52.908  1.00  0.00    -0.352 N 
HETATM    7  H   UNL     1      29.164  41.362  52.667  1.00  0.00     0.166 HD
HETATM    8  C   UNL     1      29.020  43.125  53.848  1.00  0.00     0.045 A 
HETATM    9  C   UNL     1      28.033  44.107  53.872  1.00  0.00    -0.007 A 
HETATM   10  C   UNL     1      27.046  43.735  52.917  1.00  0.00     0.048 A 
HETATM   11  C   UNL     1      30.152  43.176  54.671  1.00  0.00     0.067 A 
HETATM   12  C   UNL     1      30.290  44.264  55.543  1.00  0.00     0.070 A 
HETATM   13  C   UNL     1      29.312  45.258  55.585  1.00  0.00     0.038 A 
HETATM   14  C   UNL     1      28.181  45.191  54.757  1.00  0.00     0.016 A 
HETATM   15  N   UNL     1      27.384  40.684  50.801  1.00  0.00    -0.203 NA
ENDROOT
BRANCH   1  16
HETATM   16  C   UNL     1      26.625  39.111  48.988  1.00  0.00     0.103 C 
BRANCH  16  17
HETATM   17  C   UNL     1      28.013  39.046  48.348  1.00  0.00     0.133 C 
BRANCH  17  18
HETATM   18  N   UNL     1      27.972  39.244  46.895  1.00  0.00    -0.352 N 
HETATM   19  C   UNL     1      28.129  40.543  46.413  1.00  0.00     0.253 C 
HETATM   20  O   UNL     1      28.409  41.494  47.141  1.00  0.00    -0.267 OA
HETATM   21  C   UNL     1      27.962  38.044  46.067  1.00  0.00     0.152 C 
BRANCH  19  22
HETATM   22  C   UNL     1      27.951  40.812  44.968  1.00  0.00     0.032 A 
HETATM   23  C   UNL     1      26.708  41.155  44.441  1.00  0.00     0.019 A 
HETATM   24  C   UNL     1      26.580  41.424  43.071  1.00  0.00     0.030 A 
HETATM   25  C   UNL     1      27.684  41.395  42.197  1.00  0.00     0.029 A 
HETATM   26  C   UNL     1      28.926  41.059  42.770  1.00  0.00     0.030 A 
HETATM   27  C   UNL     1      29.067  40.782  44.136  1.00  0.00     0.019 A 
BRANCH  25  28
HETATM   28  N   UNL     1      27.569  41.649  40.824  1.00  0.00    -0.390 N 
HETATM   29  C   UNL     1      27.705  43.020  40.336  1.00  0.00     0.149 C 
HETATM   30  C   UNL     1      28.096  40.618  39.924  1.00  0.00     0.149 C 
ENDBRANCH  25  28
ENDBRANCH  19  22
ENDBRANCH  17  18
ENDBRANCH  16  17
ENDBRANCH   1  16
BRANCH  12  31
HETATM   31  O   UNL     1      31.429  44.231  56.303  1.00  0.00    -0.356 OA
HETATM   32  C   UNL     1      31.584  43.126  57.184  1.00  0.00     0.210 C 
ENDBRANCH  12  31
TORSDOF 6
ENDMDL
