MODEL 1
REMARK VINA RESULT:      -8.4      0.000      0.000
REMARK  5 active torsions:
REMARK  status: ('A' for Active; 'I' for Inactive)
REMARK    1  A    between atoms: C_3  and  N_4 
REMARK       I    between atoms: N_4  and  C_5 
REMARK       I    between atoms: C_5  and  N_6 
REMARK    2  A    between atoms: N_6  and  C_7 
REMARK    3  A    between atoms: C_7  and  C_8 
REMARK    4  A    between atoms: C_8  and  C_9 
REMARK    5  A    between atoms: N_16  and  C_17 
ROOT
HETATM    1  C   UNL     1      25.420  44.967  53.873  1.00  0.00     0.054 C 
HETATM    2  C   UNL     1      25.809  45.501  52.544  1.00  0.00     0.003 A 
HETATM    3  C   UNL     1      26.531  44.883  51.492  1.00  0.00     0.159 A 
HETATM    4  N   UNL     1      26.723  45.722  50.471  1.00  0.00    -0.149 NA
HETATM    5  N   UNL     1      26.033  46.859  50.796  1.00  0.00    -0.241 N 
HETATM    6  C   UNL     1      25.553  46.772  52.080  1.00  0.00     0.129 A 
ENDROOT
BRANCH   3   7
HETATM    7  N   UNL     1      26.996  43.589  51.551  1.00  0.00    -0.291 N 
HETATM    8  C   UNL     1      28.052  43.050  52.203  1.00  0.00     0.321 C 
HETATM    9  N   UNL     1      28.859  43.862  52.933  1.00  0.00    -0.342 N 
HETATM   10  O   UNL     1      28.232  41.834  52.116  1.00  0.00    -0.247 OA
HETATM   11  H   UNL     1      28.524  44.809  53.088  1.00  0.00     0.164 HD
HETATM   12  H   UNL     1      26.468  42.891  51.052  1.00  0.00     0.172 HD
BRANCH   9  13
HETATM   13  C   UNL     1      29.855  43.270  53.794  1.00  0.00     0.134 C 
BRANCH  13  14
HETATM   14  C   UNL     1      29.976  43.978  55.133  1.00  0.00    -0.021 A 
HETATM   15  C   UNL     1      30.555  43.128  56.261  1.00  0.00     0.012 A 
HETATM   16  C   UNL     1      31.385  44.217  55.656  1.00  0.00     0.012 A 
BRANCH  14  17
HETATM   17  C   UNL     1      28.808  44.947  55.448  1.00  0.00    -0.004 A 
HETATM   18  C   UNL     1      28.799  45.909  56.616  1.00  0.00     0.006 A 
HETATM   19  C   UNL     1      28.897  46.438  55.220  1.00  0.00     0.006 A 
ENDBRANCH  14  17
ENDBRANCH  13  14
ENDBRANCH   9  13
ENDBRANCH   3   7
BRANCH   5  20
HETATM   20  C   UNL     1      25.954  47.942  49.867  1.00  0.00     0.079 A 
HETATM   21  C   UNL     1      24.771  48.421  49.281  1.00  0.00     0.062 A 
HETATM   22 CL   UNL     1      23.208  47.696  49.414  1.00  0.00    -0.082 Cl
HETATM   23  C   UNL     1      24.819  49.532  48.418  1.00  0.00     0.026 A 
HETATM   24  C   UNL     1      26.025  50.158  48.114  1.00  0.00     0.002 A 
HETATM   25  C   UNL     1      27.204  49.670  48.659  1.00  0.00     0.002 A 
HETATM   26  C   UNL     1      27.168  48.573  49.522  1.00  0.00     0.033 A 
ENDBRANCH   5  20
TORSDOF 5
ENDMDL
MODEL 2
REMARK VINA RESULT:      -8.0      4.413      9.068
REMARK  5 active torsions:
REMARK  status: ('A' for Active; 'I' for Inactive)
REMARK    1  A    between atoms: C_3  and  N_4 
REMARK       I    between atoms: N_4  and  C_5 
REMARK       I    between atoms: C_5  and  N_6 
REMARK    2  A    between atoms: N_6  and  C_7 
REMARK    3  A    between atoms: C_7  and  C_8 
REMARK    4  A    between atoms: C_8  and  C_9 
REMARK    5  A    between atoms: N_16  and  C_17 
ROOT
HETATM    1  C   UNL     1      22.458  46.836  48.183  1.00  0.00     0.054 C 
HETATM    2  C   UNL     1      23.529  47.023  49.194  1.00  0.00     0.003 A 
HETATM    3  C   UNL     1      24.250  48.191  49.548  1.00  0.00     0.159 A 
HETATM    4  N   UNL     1      25.176  47.932  50.474  1.00  0.00    -0.149 NA
HETATM    5  N   UNL     1      24.996  46.618  50.815  1.00  0.00    -0.241 N 
HETATM    6  C   UNL     1      24.067  46.036  49.988  1.00  0.00     0.129 A 
ENDROOT
BRANCH   3   7
HETATM    7  N   UNL     1      24.029  49.421  48.974  1.00  0.00    -0.291 N 
HETATM    8  C   UNL     1      23.005  50.296  49.107  1.00  0.00     0.321 C 
HETATM    9  N   UNL     1      21.963  49.971  49.915  1.00  0.00    -0.342 N 
HETATM   10  O   UNL     1      23.067  51.363  48.495  1.00  0.00    -0.247 OA
HETATM   11  H   UNL     1      22.090  49.157  50.510  1.00  0.00     0.164 HD
HETATM   12  H   UNL     1      24.744  49.774  48.358  1.00  0.00     0.172 HD
BRANCH   9  13
HETATM   13  C   UNL     1      20.975  50.978  50.224  1.00  0.00     0.134 C 
BRANCH  13  14
HETATM   14  C   UNL     1      19.720  50.856  49.378  1.00  0.00    -0.021 A 
HETATM   15  C   UNL     1      19.297  52.137  48.664  1.00  0.00     0.012 A 
HETATM   16  C   UNL     1      19.890  51.012  47.874  1.00  0.00     0.012 A 
BRANCH  14  17
HETATM   17  C   UNL     1      18.627  49.942  49.990  1.00  0.00    -0.004 A 
HETATM   18  C   UNL     1      18.631  48.433  49.887  1.00  0.00     0.006 A 
HETATM   19  C   UNL     1      18.864  49.087  51.212  1.00  0.00     0.006 A 
ENDBRANCH  14  17
ENDBRANCH  13  14
ENDBRANCH   9  13
ENDBRANCH   3   7
BRANCH   5  20
HETATM   20  C   UNL     1      25.777  46.033  51.860  1.00  0.00     0.079 A 
HETATM   21  C   UNL     1      26.676  44.966  51.699  1.00  0.00     0.062 A 
HETATM   22 CL   UNL     1      26.890  44.029  50.262  1.00  0.00    -0.082 Cl
HETATM   23  C   UNL     1      27.427  44.513  52.799  1.00  0.00     0.026 A 
HETATM   24  C   UNL     1      27.282  45.088  54.059  1.00  0.00     0.002 A 
HETATM   25  C   UNL     1      26.370  46.119  54.237  1.00  0.00     0.002 A 
HETATM   26  C   UNL     1      25.624  46.582  53.151  1.00  0.00     0.033 A 
ENDBRANCH   5  20
TORSDOF 5
ENDMDL
MODEL 3
REMARK VINA RESULT:      -7.9      2.273      7.321
REMARK  5 active torsions:
REMARK  status: ('A' for Active; 'I' for Inactive)
REMARK    1  A    between atoms: C_3  and  N_4 
REMARK       I    between atoms: N_4  and  C_5 
REMARK       I    between atoms: C_5  and  N_6 
REMARK    2  A    between atoms: N_6  and  C_7 
REMARK    3  A    between atoms: C_7  and  C_8 
REMARK    4  A    between atoms: C_8  and  C_9 
REMARK    5  A    between atoms: N_16  and  C_17 
ROOT
HETATM    1  C   UNL     1      28.513  40.965  51.536  1.00  0.00     0.054 C 
HETATM    2  C   UNL     1      28.536  42.012  52.588  1.00  0.00     0.003 A 
HETATM    3  C   UNL     1      27.567  42.995  52.914  1.00  0.00     0.159 A 
HETATM    4  N   UNL     1      27.990  43.791  53.898  1.00  0.00    -0.149 NA
HETATM    5  N   UNL     1      29.190  43.271  54.301  1.00  0.00    -0.241 N 
HETATM    6  C   UNL     1      29.572  42.253  53.461  1.00  0.00     0.129 A 
ENDROOT
BRANCH   3   7
HETATM    7  N   UNL     1      26.362  43.114  52.262  1.00  0.00    -0.291 N 
HETATM    8  C   UNL     1      25.960  43.951  51.277  1.00  0.00     0.321 C 
HETATM    9  N   UNL     1      26.831  44.881  50.807  1.00  0.00    -0.342 N 
HETATM   10  O   UNL     1      24.816  43.826  50.837  1.00  0.00    -0.247 OA
HETATM   11  H   UNL     1      27.797  44.784  51.106  1.00  0.00     0.164 HD
HETATM   12  H   UNL     1      25.635  42.465  52.521  1.00  0.00     0.172 HD
BRANCH   9  13
HETATM   13  C   UNL     1      26.484  45.632  49.624  1.00  0.00     0.134 C 
BRANCH  13  14
HETATM   14  C   UNL     1      26.326  47.119  49.892  1.00  0.00    -0.021 A 
HETATM   15  C   UNL     1      24.919  47.555  50.292  1.00  0.00     0.012 A 
HETATM   16  C   UNL     1      26.004  47.526  51.323  1.00  0.00     0.012 A 
BRANCH  14  17
HETATM   17  C   UNL     1      27.153  48.027  48.947  1.00  0.00    -0.004 A 
HETATM   18  C   UNL     1      26.744  49.428  48.548  1.00  0.00     0.006 A 
HETATM   19  C   UNL     1      27.930  49.226  49.436  1.00  0.00     0.006 A 
ENDBRANCH  14  17
ENDBRANCH  13  14
ENDBRANCH   9  13
ENDBRANCH   3   7
BRANCH   5  20
HETATM   20  C   UNL     1      29.883  43.840  55.415  1.00  0.00     0.079 A 
HETATM   21  C   UNL     1      29.713  45.151  55.889  1.00  0.00     0.062 A 
HETATM   22 CL   UNL     1      28.782  46.393  55.128  1.00  0.00    -0.082 Cl
HETATM   23  C   UNL     1      30.418  45.577  57.031  1.00  0.00     0.026 A 
HETATM   24  C   UNL     1      31.302  44.729  57.692  1.00  0.00     0.002 A 
HETATM   25  C   UNL     1      31.505  43.444  57.210  1.00  0.00     0.002 A 
HETATM   26  C   UNL     1      30.806  43.007  56.082  1.00  0.00     0.033 A 
ENDBRANCH   5  20
TORSDOF 5
ENDMDL
MODEL 4
REMARK VINA RESULT:      -7.9      3.645      7.131
REMARK  5 active torsions:
REMARK  status: ('A' for Active; 'I' for Inactive)
REMARK    1  A    between atoms: C_3  and  N_4 
REMARK       I    between atoms: N_4  and  C_5 
REMARK       I    between atoms: C_5  and  N_6 
REMARK    2  A    between atoms: N_6  and  C_7 
REMARK    3  A    between atoms: C_7  and  C_8 
REMARK    4  A    between atoms: C_8  and  C_9 
REMARK    5  A    between atoms: N_16  and  C_17 
ROOT
HETATM    1  C   UNL     1      24.850  44.519  51.841  1.00  0.00     0.054 C 
HETATM    2  C   UNL     1      26.247  44.256  52.268  1.00  0.00     0.003 A 
HETATM    3  C   UNL     1      27.329  43.697  51.543  1.00  0.00     0.159 A 
HETATM    4  N   UNL     1      28.418  43.576  52.305  1.00  0.00    -0.149 NA
HETATM    5  N   UNL     1      28.095  44.156  53.501  1.00  0.00    -0.241 N 
HETATM    6  C   UNL     1      26.763  44.489  53.523  1.00  0.00     0.129 A 
ENDROOT
BRANCH   3   7
HETATM    7  N   UNL     1      27.236  43.305  50.227  1.00  0.00    -0.291 N 
HETATM    8  C   UNL     1      27.163  42.075  49.667  1.00  0.00     0.321 C 
HETATM    9  N   UNL     1      27.204  40.982  50.471  1.00  0.00    -0.342 N 
HETATM   10  O   UNL     1      27.050  41.998  48.442  1.00  0.00    -0.247 OA
HETATM   11  H   UNL     1      27.116  41.153  51.469  1.00  0.00     0.164 HD
HETATM   12  H   UNL     1      27.188  44.035  49.535  1.00  0.00     0.172 HD
BRANCH   9  13
HETATM   13  C   UNL     1      26.918  39.684  49.905  1.00  0.00     0.134 C 
BRANCH  13  14
HETATM   14  C   UNL     1      28.169  38.941  49.469  1.00  0.00    -0.021 A 
HETATM   15  C   UNL     1      27.940  37.856  48.420  1.00  0.00     0.012 A 
HETATM   16  C   UNL     1      28.613  39.134  48.026  1.00  0.00     0.012 A 
BRANCH  14  17
HETATM   17  C   UNL     1      29.184  38.678  50.611  1.00  0.00    -0.004 A 
HETATM   18  C   UNL     1      29.631  37.298  51.044  1.00  0.00     0.006 A 
HETATM   19  C   UNL     1      30.598  38.212  50.359  1.00  0.00     0.006 A 
ENDBRANCH  14  17
ENDBRANCH  13  14
ENDBRANCH   9  13
ENDBRANCH   3   7
BRANCH   5  20
HETATM   20  C   UNL     1      29.080  44.279  54.530  1.00  0.00     0.079 A 
HETATM   21  C   UNL     1      29.274  45.414  55.335  1.00  0.00     0.062 A 
HETATM   22 CL   UNL     1      28.496  46.945  55.132  1.00  0.00    -0.082 Cl
HETATM   23  C   UNL     1      30.245  45.392  56.353  1.00  0.00     0.026 A 
HETATM   24  C   UNL     1      31.040  44.269  56.567  1.00  0.00     0.002 A 
HETATM   25  C   UNL     1      30.883  43.156  55.754  1.00  0.00     0.002 A 
HETATM   26  C   UNL     1      29.917  43.164  54.745  1.00  0.00     0.033 A 
ENDBRANCH   5  20
TORSDOF 5
ENDMDL
MODEL 5
REMARK VINA RESULT:      -7.8      3.940      7.057
REMARK  5 active torsions:
REMARK  status: ('A' for Active; 'I' for Inactive)
REMARK    1  A    between atoms: C_3  and  N_4 
REMARK       I    between atoms: N_4  and  C_5 
REMARK       I    between atoms: C_5  and  N_6 
REMARK    2  A    between atoms: N_6  and  C_7 
REMARK    3  A    between atoms: C_7  and  C_8 
REMARK    4  A    between atoms: C_8  and  C_9 
REMARK    5  A    between atoms: N_16  and  C_17 
ROOT
HETATM    1  C   UNL     1      24.491  43.222  50.992  1.00  0.00     0.054 C 
HETATM    2  C   UNL     1      25.904  43.257  51.448  1.00  0.00     0.003 A 
HETATM    3  C   UNL     1      27.094  42.940  50.744  1.00  0.00     0.159 A 
HETATM    4  N   UNL     1      28.168  43.047  51.528  1.00  0.00    -0.149 NA
HETATM    5  N   UNL     1      27.707  43.541  52.719  1.00  0.00    -0.241 N 
HETATM    6  C   UNL     1      26.334  43.587  52.713  1.00  0.00     0.129 A 
ENDROOT
BRANCH   3   7
HETATM    7  N   UNL     1      27.111  42.543  49.427  1.00  0.00    -0.291 N 
HETATM    8  C   UNL     1      27.727  41.504  48.817  1.00  0.00     0.321 C 
HETATM    9  N   UNL     1      28.501  40.671  49.559  1.00  0.00    -0.342 N 
HETATM   10  O   UNL     1      27.550  41.350  47.608  1.00  0.00    -0.247 OA
HETATM   11  H   UNL     1      28.438  40.776  50.568  1.00  0.00     0.164 HD
HETATM   12  H   UNL     1      26.561  43.085  48.779  1.00  0.00     0.172 HD
BRANCH   9  13
HETATM   13  C   UNL     1      28.988  39.450  48.962  1.00  0.00     0.134 C 
BRANCH  13  14
HETATM   14  C   UNL     1      29.006  38.282  49.934  1.00  0.00    -0.021 A 
HETATM   15  C   UNL     1      30.398  37.787  50.319  1.00  0.00     0.012 A 
HETATM   16  C   UNL     1      29.583  38.551  51.317  1.00  0.00     0.012 A 
BRANCH  14  17
HETATM   17  C   UNL     1      27.878  37.245  49.703  1.00  0.00    -0.004 A 
HETATM   18  C   UNL     1      26.423  37.609  49.502  1.00  0.00     0.006 A 
HETATM   19  C   UNL     1      27.212  37.045  48.362  1.00  0.00     0.006 A 
ENDBRANCH  14  17
ENDBRANCH  13  14
ENDBRANCH   9  13
ENDBRANCH   3   7
BRANCH   5  20
HETATM   20  C   UNL     1      28.623  43.862  53.767  1.00  0.00     0.079 A 
HETATM   21  C   UNL     1      28.547  45.000  54.589  1.00  0.00     0.062 A 
HETATM   22 CL   UNL     1      27.453  46.323  54.389  1.00  0.00    -0.082 Cl
HETATM   23  C   UNL     1      29.483  45.178  55.625  1.00  0.00     0.026 A 
HETATM   24  C   UNL     1      30.504  44.256  55.841  1.00  0.00     0.002 A 
HETATM   25  C   UNL     1      30.610  43.148  55.012  1.00  0.00     0.002 A 
HETATM   26  C   UNL     1      29.683  42.957  53.986  1.00  0.00     0.033 A 
ENDBRANCH   5  20
TORSDOF 5
ENDMDL
MODEL 6
REMARK VINA RESULT:      -7.7      2.755      5.710
REMARK  5 active torsions:
REMARK  status: ('A' for Active; 'I' for Inactive)
REMARK    1  A    between atoms: C_3  and  N_4 
REMARK       I    between atoms: N_4  and  C_5 
REMARK       I    between atoms: C_5  and  N_6 
REMARK    2  A    between atoms: N_6  and  C_7 
REMARK    3  A    between atoms: C_7  and  C_8 
REMARK    4  A    between atoms: C_8  and  C_9 
REMARK    5  A    between atoms: N_16  and  C_17 
ROOT
HETATM    1  C   UNL     1      24.452  47.094  50.318  1.00  0.00     0.054 C 
HETATM    2  C   UNL     1      25.168  46.349  51.383  1.00  0.00     0.003 A 
HETATM    3  C   UNL     1      25.213  44.956  51.645  1.00  0.00     0.159 A 
HETATM    4  N   UNL     1      25.932  44.687  52.737  1.00  0.00    -0.149 NA
HETATM    5  N   UNL     1      26.456  45.887  53.136  1.00  0.00    -0.241 N 
HETATM    6  C   UNL     1      25.932  46.908  52.383  1.00  0.00     0.129 A 
ENDROOT
BRANCH   3   7
HETATM    7  N   UNL     1      24.562  44.020  50.875  1.00  0.00    -0.291 N 
HETATM    8  C   UNL     1      24.869  42.734  50.586  1.00  0.00     0.321 C 
HETATM    9  N   UNL     1      26.014  42.203  51.086  1.00  0.00    -0.342 N 
HETATM   10  O   UNL     1      24.086  42.091  49.885  1.00  0.00    -0.247 OA
HETATM   11  H   UNL     1      26.494  42.752  51.793  1.00  0.00     0.164 HD
HETATM   12  H   UNL     1      23.689  44.299  50.456  1.00  0.00     0.172 HD
BRANCH   9  13
HETATM   13  C   UNL     1      26.243  40.783  50.958  1.00  0.00     0.134 C 
BRANCH  13  14
HETATM   14  C   UNL     1      27.704  40.437  50.728  1.00  0.00    -0.021 A 
HETATM   15  C   UNL     1      27.949  39.297  49.744  1.00  0.00     0.012 A 
HETATM   16  C   UNL     1      28.260  40.703  49.336  1.00  0.00     0.012 A 
BRANCH  14  17
HETATM   17  C   UNL     1      28.588  40.535  51.998  1.00  0.00    -0.004 A 
HETATM   18  C   UNL     1      29.188  41.825  52.513  1.00  0.00     0.006 A 
HETATM   19  C   UNL     1      28.102  41.150  53.288  1.00  0.00     0.006 A 
ENDBRANCH  14  17
ENDBRANCH  13  14
ENDBRANCH   9  13
ENDBRANCH   3   7
BRANCH   5  20
HETATM   20  C   UNL     1      27.361  45.944  54.242  1.00  0.00     0.079 A 
HETATM   21  C   UNL     1      27.320  46.897  55.273  1.00  0.00     0.062 A 
HETATM   22 CL   UNL     1      26.298  48.290  55.326  1.00  0.00    -0.082 Cl
HETATM   23  C   UNL     1      28.238  46.815  56.337  1.00  0.00     0.026 A 
HETATM   24  C   UNL     1      29.206  45.815  56.379  1.00  0.00     0.002 A 
HETATM   25  C   UNL     1      29.278  44.891  55.347  1.00  0.00     0.002 A 
HETATM   26  C   UNL     1      28.368  44.958  54.289  1.00  0.00     0.033 A 
ENDBRANCH   5  20
TORSDOF 5
ENDMDL
MODEL 7
REMARK VINA RESULT:      -7.6      3.708      7.404
REMARK  5 active torsions:
REMARK  status: ('A' for Active; 'I' for Inactive)
REMARK    1  A    between atoms: C_3  and  N_4 
REMARK       I    between atoms: N_4  and  C_5 
REMARK       I    between atoms: C_5  and  N_6 
REMARK    2  A    between atoms: N_6  and  C_7 
REMARK    3  A    between atoms: C_7  and  C_8 
REMARK    4  A    between atoms: C_8  and  C_9 
REMARK    5  A    between atoms: N_16  and  C_17 
ROOT
HETATM    1  C   UNL     1      26.570  44.610  50.531  1.00  0.00     0.054 C 
HETATM    2  C   UNL     1      27.191  44.075  51.768  1.00  0.00     0.003 A 
HETATM    3  C   UNL     1      27.115  42.778  52.336  1.00  0.00     0.159 A 
HETATM    4  N   UNL     1      27.776  42.711  53.493  1.00  0.00    -0.149 NA
HETATM    5  N   UNL     1      28.384  43.929  53.640  1.00  0.00    -0.241 N 
HETATM    6  C   UNL     1      27.967  44.789  52.653  1.00  0.00     0.129 A 
ENDROOT
BRANCH   3   7
HETATM    7  N   UNL     1      26.414  41.741  51.764  1.00  0.00    -0.291 N 
HETATM    8  C   UNL     1      26.831  40.670  51.050  1.00  0.00     0.321 C 
HETATM    9  N   UNL     1      28.155  40.530  50.787  1.00  0.00    -0.342 N 
HETATM   10  O   UNL     1      25.986  39.856  50.673  1.00  0.00    -0.247 OA
HETATM   11  H   UNL     1      28.783  41.151  51.290  1.00  0.00     0.164 HD
HETATM   12  H   UNL     1      25.416  41.734  51.902  1.00  0.00     0.172 HD
BRANCH   9  13
HETATM   13  C   UNL     1      28.628  39.293  50.211  1.00  0.00     0.134 C 
BRANCH  13  14
HETATM   14  C   UNL     1      28.441  39.233  48.704  1.00  0.00    -0.021 A 
HETATM   15  C   UNL     1      29.148  38.069  48.014  1.00  0.00     0.012 A 
HETATM   16  C   UNL     1      27.658  38.047  48.159  1.00  0.00     0.012 A 
BRANCH  14  17
HETATM   17  C   UNL     1      28.423  40.618  48.009  1.00  0.00    -0.004 A 
HETATM   18  C   UNL     1      28.271  40.813  46.516  1.00  0.00     0.006 A 
HETATM   19  C   UNL     1      27.167  41.230  47.436  1.00  0.00     0.006 A 
ENDBRANCH  14  17
ENDBRANCH  13  14
ENDBRANCH   9  13
ENDBRANCH   3   7
BRANCH   5  20
HETATM   20  C   UNL     1      29.257  44.169  54.746  1.00  0.00     0.079 A 
HETATM   21  C   UNL     1      29.236  45.313  55.560  1.00  0.00     0.062 A 
HETATM   22 CL   UNL     1      28.287  46.733  55.290  1.00  0.00    -0.082 Cl
HETATM   23  C   UNL     1      30.115  45.408  56.655  1.00  0.00     0.026 A 
HETATM   24  C   UNL     1      31.028  44.395  56.937  1.00  0.00     0.002 A 
HETATM   25  C   UNL     1      31.082  43.277  56.117  1.00  0.00     0.002 A 
HETATM   26  C   UNL     1      30.209  43.169  55.032  1.00  0.00     0.033 A 
ENDBRANCH   5  20
TORSDOF 5
ENDMDL
MODEL 8
REMARK VINA RESULT:      -7.5      3.916      8.770
REMARK  5 active torsions:
REMARK  status: ('A' for Active; 'I' for Inactive)
REMARK    1  A    between atoms: C_3  and  N_4 
REMARK       I    between atoms: N_4  and  C_5 
REMARK       I    between atoms: C_5  and  N_6 
REMARK    2  A    between atoms: N_6  and  C_7 
REMARK    3  A    between atoms: C_7  and  C_8 
REMARK    4  A    between atoms: C_8  and  C_9 
REMARK    5  A    between atoms: N_16  and  C_17 
ROOT
HETATM    1  C   UNL     1      25.280  49.185  48.705  1.00  0.00     0.054 C 
HETATM    2  C   UNL     1      25.198  47.982  49.571  1.00  0.00     0.003 A 
HETATM    3  C   UNL     1      24.270  46.910  49.550  1.00  0.00     0.159 A 
HETATM    4  N   UNL     1      24.505  46.041  50.536  1.00  0.00    -0.149 NA
HETATM    5  N   UNL     1      25.653  46.475  51.142  1.00  0.00    -0.241 N 
HETATM    6  C   UNL     1      26.030  47.692  50.628  1.00  0.00     0.129 A 
ENDROOT
BRANCH   3   7
HETATM    7  N   UNL     1      23.244  46.815  48.639  1.00  0.00    -0.291 N 
HETATM    8  C   UNL     1      22.055  47.457  48.564  1.00  0.00     0.321 C 
HETATM    9  N   UNL     1      21.730  48.354  49.531  1.00  0.00    -0.342 N 
HETATM   10  O   UNL     1      21.316  47.208  47.611  1.00  0.00    -0.247 OA
HETATM   11  H   UNL     1      22.476  48.620  50.168  1.00  0.00     0.164 HD
HETATM   12  H   UNL     1      23.376  46.182  47.866  1.00  0.00     0.172 HD
BRANCH   9  13
HETATM   13  C   UNL     1      20.568  49.191  49.349  1.00  0.00     0.134 C 
BRANCH  13  14
HETATM   14  C   UNL     1      20.907  50.671  49.295  1.00  0.00    -0.021 A 
HETATM   15  C   UNL     1      22.272  51.040  49.869  1.00  0.00     0.012 A 
HETATM   16  C   UNL     1      22.060  51.077  48.388  1.00  0.00     0.012 A 
BRANCH  14  17
HETATM   17  C   UNL     1      19.702  51.610  49.561  1.00  0.00    -0.004 A 
HETATM   18  C   UNL     1      19.009  52.420  48.487  1.00  0.00     0.006 A 
HETATM   19  C   UNL     1      18.293  51.275  49.131  1.00  0.00     0.006 A 
ENDBRANCH  14  17
ENDBRANCH  13  14
ENDBRANCH   9  13
ENDBRANCH   3   7
BRANCH   5  20
HETATM   20  C   UNL     1      26.243  45.711  52.196  1.00  0.00     0.079 A 
HETATM   21  C   UNL     1      26.975  44.525  52.025  1.00  0.00     0.062 A 
HETATM   22 CL   UNL     1      27.161  43.653  50.544  1.00  0.00    -0.082 Cl
HETATM   23  C   UNL     1      27.552  43.892  53.142  1.00  0.00     0.026 A 
HETATM   24  C   UNL     1      27.392  44.408  54.426  1.00  0.00     0.002 A 
HETATM   25  C   UNL     1      26.639  45.558  54.610  1.00  0.00     0.002 A 
HETATM   26  C   UNL     1      26.068  46.199  53.508  1.00  0.00     0.033 A 
ENDBRANCH   5  20
TORSDOF 5
ENDMDL
MODEL 9
REMARK VINA RESULT:      -7.5      3.552      5.762
REMARK  5 active torsions:
REMARK  status: ('A' for Active; 'I' for Inactive)
REMARK    1  A    between atoms: C_3  and  N_4 
REMARK       I    between atoms: N_4  and  C_5 
REMARK       I    between atoms: C_5  and  N_6 
REMARK    2  A    between atoms: N_6  and  C_7 
REMARK    3  A    between atoms: C_7  and  C_8 
REMARK    4  A    between atoms: C_8  and  C_9 
REMARK    5  A    between atoms: N_16  and  C_17 
ROOT
HETATM    1  C   UNL     1      27.801  49.012  49.081  1.00  0.00     0.054 C 
HETATM    2  C   UNL     1      26.335  48.835  49.237  1.00  0.00     0.003 A 
HETATM    3  C   UNL     1      25.611  47.994  50.119  1.00  0.00     0.159 A 
HETATM    4  N   UNL     1      24.295  48.085  49.911  1.00  0.00    -0.149 NA
HETATM    5  N   UNL     1      24.139  49.066  48.970  1.00  0.00    -0.241 N 
HETATM    6  C   UNL     1      25.364  49.463  48.491  1.00  0.00     0.129 A 
ENDROOT
BRANCH   3   7
HETATM    7  N   UNL     1      26.211  47.170  51.043  1.00  0.00    -0.291 N 
HETATM    8  C   UNL     1      25.871  45.941  51.496  1.00  0.00     0.321 C 
HETATM    9  N   UNL     1      24.742  45.354  51.022  1.00  0.00    -0.342 N 
HETATM   10  O   UNL     1      26.611  45.397  52.317  1.00  0.00    -0.247 OA
HETATM   11  H   UNL     1      24.303  45.802  50.222  1.00  0.00     0.164 HD
HETATM   12  H   UNL     1      27.068  47.498  51.459  1.00  0.00     0.172 HD
BRANCH   9  13
HETATM   13  C   UNL     1      24.486  43.969  51.338  1.00  0.00     0.134 C 
BRANCH  13  14
HETATM   14  C   UNL     1      24.425  43.082  50.106  1.00  0.00    -0.021 A 
HETATM   15  C   UNL     1      23.018  42.671  49.678  1.00  0.00     0.012 A 
HETATM   16  C   UNL     1      23.773  43.677  48.866  1.00  0.00     0.012 A 
BRANCH  14  17
HETATM   17  C   UNL     1      25.571  42.043  50.012  1.00  0.00    -0.004 A 
HETATM   18  C   UNL     1      26.814  42.230  49.169  1.00  0.00     0.006 A 
HETATM   19  C   UNL     1      26.919  42.250  50.661  1.00  0.00     0.006 A 
ENDBRANCH  14  17
ENDBRANCH  13  14
ENDBRANCH   9  13
ENDBRANCH   3   7
BRANCH   5  20
HETATM   20  C   UNL     1      22.830  49.484  48.577  1.00  0.00     0.079 A 
HETATM   21  C   UNL     1      21.854  48.654  48.001  1.00  0.00     0.062 A 
HETATM   22 CL   UNL     1      22.087  47.021  47.486  1.00  0.00    -0.082 Cl
HETATM   23  C   UNL     1      20.580  49.174  47.706  1.00  0.00     0.026 A 
HETATM   24  C   UNL     1      20.271  50.509  47.953  1.00  0.00     0.002 A 
HETATM   25  C   UNL     1      21.239  51.347  48.487  1.00  0.00     0.002 A 
HETATM   26  C   UNL     1      22.505  50.840  48.791  1.00  0.00     0.033 A 
ENDBRANCH   5  20
TORSDOF 5
ENDMDL
MODEL 10
REMARK VINA RESULT:      -7.4      4.056      6.020
REMARK  5 active torsions:
REMARK  status: ('A' for Active; 'I' for Inactive)
REMARK    1  A    between atoms: C_3  and  N_4 
REMARK       I    between atoms: N_4  and  C_5 
REMARK       I    between atoms: C_5  and  N_6 
REMARK    2  A    between atoms: N_6  and  C_7 
REMARK    3  A    between atoms: C_7  and  C_8 
REMARK    4  A    between atoms: C_8  and  C_9 
REMARK    5  A    between atoms: N_16  and  C_17 
ROOT
HETATM    1  C   UNL     1      25.009  48.685  49.168  1.00  0.00     0.054 C 
HETATM    2  C   UNL     1      23.531  48.760  49.058  1.00  0.00     0.003 A 
HETATM    3  C   UNL     1      22.589  47.743  48.761  1.00  0.00     0.159 A 
HETATM    4  N   UNL     1      21.347  48.228  48.701  1.00  0.00    -0.149 NA
HETATM    5  N   UNL     1      21.449  49.544  49.066  1.00  0.00    -0.241 N 
HETATM    6  C   UNL     1      22.770  49.899  49.197  1.00  0.00     0.129 A 
ENDROOT
BRANCH   3   7
HETATM    7  N   UNL     1      22.938  46.431  48.535  1.00  0.00    -0.291 N 
HETATM    8  C   UNL     1      23.611  45.543  49.303  1.00  0.00     0.321 C 
HETATM    9  N   UNL     1      24.077  45.941  50.515  1.00  0.00    -0.342 N 
HETATM   10  O   UNL     1      23.764  44.399  48.873  1.00  0.00    -0.247 OA
HETATM   11  H   UNL     1      23.746  46.840  50.852  1.00  0.00     0.164 HD
HETATM   12  H   UNL     1      22.636  46.021  47.666  1.00  0.00     0.172 HD
BRANCH   9  13
HETATM   13  C   UNL     1      24.608  44.950  51.421  1.00  0.00     0.134 C 
BRANCH  13  14
HETATM   14  C   UNL     1      26.117  45.041  51.579  1.00  0.00    -0.021 A 
HETATM   15  C   UNL     1      26.896  43.863  50.999  1.00  0.00     0.012 A 
HETATM   16  C   UNL     1      26.931  45.187  50.301  1.00  0.00     0.012 A 
BRANCH  14  17
HETATM   17  C   UNL     1      26.580  45.658  52.923  1.00  0.00    -0.004 A 
HETATM   18  C   UNL     1      26.443  47.125  53.271  1.00  0.00     0.006 A 
HETATM   19  C   UNL     1      25.615  46.109  53.993  1.00  0.00     0.006 A 
ENDBRANCH  14  17
ENDBRANCH  13  14
ENDBRANCH   9  13
ENDBRANCH   3   7
BRANCH   5  20
HETATM   20  C   UNL     1      20.274  50.348  49.195  1.00  0.00     0.079 A 
HETATM   21  C   UNL     1      19.158  50.028  49.985  1.00  0.00     0.062 A 
HETATM   22 CL   UNL     1      18.894  48.534  50.812  1.00  0.00    -0.082 Cl
HETATM   23  C   UNL     1      18.081  50.931  50.069  1.00  0.00     0.026 A 
HETATM   24  C   UNL     1      18.088  52.131  49.364  1.00  0.00     0.002 A 
HETATM   25  C   UNL     1      19.170  52.439  48.552  1.00  0.00     0.002 A 
HETATM   26  C   UNL     1      20.248  51.555  48.466  1.00  0.00     0.033 A 
ENDBRANCH   5  20
TORSDOF 5
ENDMDL
