MODEL 1
REMARK VINA RESULT:      -9.5      0.000      0.000
REMARK  9 active torsions:
REMARK  status: ('A' for Active; 'I' for Inactive)
REMARK    1  A    between atoms: C_5  and  C_6 
REMARK    2  A    between atoms: C_6  and  N_7 
REMARK       I    between atoms: N_7  and  C_8 
REMARK    3  A    between atoms: C_8  and  C_9 
REMARK    4  A    between atoms: C_10  and  S_11 
REMARK    5  A    between atoms: S_11  and  C_12 
REMARK    6  A    between atoms: C_12  and  C_13 
REMARK       I    between atoms: C_13  and  N_14 
REMARK    7  A    between atoms: N_14  and  C_15 
REMARK    8  A    between atoms: C_16  and  O_17 
REMARK    9  A    between atoms: C_20  and  O_21 
ROOT
HETATM    1  C   UNL     1      25.850  42.969  51.475  1.00  0.00     0.067 A 
HETATM    2  C   UNL     1      24.887  43.100  50.472  1.00  0.00     0.109 A 
HETATM    3  N   UNL     1      24.783  42.202  49.449  1.00  0.00    -0.253 NA
HETATM    4  C   UNL     1      25.679  41.191  49.398  1.00  0.00     0.118 A 
HETATM    5  C   UNL     1      26.676  41.000  50.335  1.00  0.00     0.020 A 
HETATM    6  C   UNL     1      26.758  41.901  51.390  1.00  0.00     0.021 A 
ENDROOT
BRANCH   2   7
HETATM    7  S   UNL     1      23.683  44.408  50.364  1.00  0.00    -0.100 SA
BRANCH   7   8
HETATM    8  C   UNL     1      24.690  45.687  49.565  1.00  0.00     0.184 C 
BRANCH   8   9
HETATM    9  C   UNL     1      24.135  47.106  49.626  1.00  0.00     0.231 C 
HETATM   10  N   UNL     1      23.179  47.418  48.676  1.00  0.00    -0.324 N 
HETATM   11  H   UNL     1      22.777  46.615  48.192  1.00  0.00     0.169 HD
HETATM   12  O   UNL     1      24.447  47.818  50.583  1.00  0.00    -0.272 OA
BRANCH  10  13
HETATM   13  C   UNL     1      22.451  48.628  48.604  1.00  0.00     0.068 A 
HETATM   14  C   UNL     1      22.939  49.828  48.053  1.00  0.00     0.097 A 
HETATM   15  C   UNL     1      22.159  50.994  48.141  1.00  0.00     0.075 A 
HETATM   16  C   UNL     1      20.897  50.964  48.740  1.00  0.00     0.070 A 
HETATM   17  C   UNL     1      20.382  49.752  49.194  1.00  0.00     0.039 A 
HETATM   18  C   UNL     1      21.149  48.591  49.118  1.00  0.00     0.035 A 
BRANCH  14  19
HETATM   19  O   UNL     1      24.108  49.757  47.341  1.00  0.00    -0.354 OA
HETATM   20  C   UNL     1      25.308  50.140  47.995  1.00  0.00     0.210 C 
ENDBRANCH  14  19
BRANCH  16  21
HETATM   21  O   UNL     1      20.061  52.036  48.899  1.00  0.00    -0.356 OA
HETATM   22  C   UNL     1      18.835  51.785  49.574  1.00  0.00     0.210 C 
ENDBRANCH  16  21
ENDBRANCH  10  13
ENDBRANCH   8   9
ENDBRANCH   7   8
ENDBRANCH   2   7
BRANCH   1  23
HETATM   23  C   UNL     1      25.979  43.910  52.614  1.00  0.00     0.254 C 
HETATM   24  N   UNL     1      27.218  44.502  52.749  1.00  0.00    -0.353 N 
HETATM   25  H   UNL     1      28.008  44.164  52.216  1.00  0.00     0.163 HD
HETATM   26  O   UNL     1      25.035  44.152  53.351  1.00  0.00    -0.268 OA
BRANCH  24  27
HETATM   27  C   UNL     1      27.496  45.431  53.822  1.00  0.00     0.161 C 
BRANCH  27  28
HETATM   28  C   UNL     1      28.634  44.935  54.677  1.00  0.00    -0.041 A 
HETATM   29  C   UNL     1      29.210  43.681  54.426  1.00  0.00     0.009 A 
HETATM   30  C   UNL     1      30.277  43.218  55.199  1.00  0.00     0.007 A 
HETATM   31  C   UNL     1      30.785  43.999  56.243  1.00  0.00    -0.062 A 
HETATM   32  C   UNL     1      31.963  43.531  57.046  1.00  0.00     0.048 C 
HETATM   33  C   UNL     1      30.216  45.252  56.493  1.00  0.00     0.007 A 
HETATM   34  C   UNL     1      29.147  45.715  55.721  1.00  0.00     0.009 A 
ENDBRANCH  27  28
ENDBRANCH  24  27
ENDBRANCH   1  23
TORSDOF 9
ENDMDL
MODEL 2
REMARK VINA RESULT:      -9.3      2.319      4.807
REMARK  9 active torsions:
REMARK  status: ('A' for Active; 'I' for Inactive)
REMARK    1  A    between atoms: C_5  and  C_6 
REMARK    2  A    between atoms: C_6  and  N_7 
REMARK       I    between atoms: N_7  and  C_8 
REMARK    3  A    between atoms: C_8  and  C_9 
REMARK    4  A    between atoms: C_10  and  S_11 
REMARK    5  A    between atoms: S_11  and  C_12 
REMARK    6  A    between atoms: C_12  and  C_13 
REMARK       I    between atoms: C_13  and  N_14 
REMARK    7  A    between atoms: N_14  and  C_15 
REMARK    8  A    between atoms: C_16  and  O_17 
REMARK    9  A    between atoms: C_20  and  O_21 
ROOT
HETATM    1  C   UNL     1      26.054  47.912  50.110  1.00  0.00     0.067 A 
HETATM    2  C   UNL     1      25.064  48.509  49.327  1.00  0.00     0.109 A 
HETATM    3  N   UNL     1      25.359  49.453  48.386  1.00  0.00    -0.253 NA
HETATM    4  C   UNL     1      26.649  49.841  48.257  1.00  0.00     0.118 A 
HETATM    5  C   UNL     1      27.685  49.319  49.005  1.00  0.00     0.020 A 
HETATM    6  C   UNL     1      27.383  48.338  49.941  1.00  0.00     0.021 A 
ENDROOT
BRANCH   2   7
HETATM    7  S   UNL     1      23.322  48.155  49.423  1.00  0.00    -0.100 SA
BRANCH   7   8
HETATM    8  C   UNL     1      22.730  49.139  48.019  1.00  0.00     0.184 C 
BRANCH   8   9
HETATM    9  C   UNL     1      21.267  49.565  48.075  1.00  0.00     0.231 C 
HETATM   10  N   UNL     1      20.958  50.527  49.020  1.00  0.00    -0.324 N 
HETATM   11  H   UNL     1      21.763  51.016  49.413  1.00  0.00     0.169 HD
HETATM   12  O   UNL     1      20.502  49.155  47.200  1.00  0.00    -0.272 OA
BRANCH  10  13
HETATM   13  C   UNL     1      19.699  51.149  49.184  1.00  0.00     0.068 A 
HETATM   14  C   UNL     1      18.706  50.727  50.087  1.00  0.00     0.097 A 
HETATM   15  C   UNL     1      17.451  51.361  50.077  1.00  0.00     0.075 A 
HETATM   16  C   UNL     1      17.195  52.421  49.203  1.00  0.00     0.070 A 
HETATM   17  C   UNL     1      18.215  52.895  48.383  1.00  0.00     0.039 A 
HETATM   18  C   UNL     1      19.460  52.270  48.379  1.00  0.00     0.035 A 
BRANCH  14  19
HETATM   19  O   UNL     1      19.069  49.794  51.023  1.00  0.00    -0.354 OA
HETATM   20  C   UNL     1      18.650  48.453  50.822  1.00  0.00     0.210 C 
ENDBRANCH  14  19
BRANCH  16  21
HETATM   21  O   UNL     1      16.010  53.097  49.092  1.00  0.00    -0.356 OA
HETATM   22  C   UNL     1      15.279  53.291  50.297  1.00  0.00     0.210 C 
ENDBRANCH  16  21
ENDBRANCH  10  13
ENDBRANCH   8   9
ENDBRANCH   7   8
ENDBRANCH   2   7
BRANCH   1  23
HETATM   23  C   UNL     1      25.777  46.868  51.126  1.00  0.00     0.254 C 
HETATM   24  N   UNL     1      26.181  45.594  50.784  1.00  0.00    -0.353 N 
HETATM   25  H   UNL     1      26.470  45.385  49.837  1.00  0.00     0.163 HD
HETATM   26  O   UNL     1      25.253  47.142  52.195  1.00  0.00    -0.268 OA
BRANCH  24  27
HETATM   27  C   UNL     1      25.964  44.471  51.669  1.00  0.00     0.161 C 
BRANCH  27  28
HETATM   28  C   UNL     1      27.184  44.211  52.514  1.00  0.00    -0.041 A 
HETATM   29  C   UNL     1      27.233  44.665  53.840  1.00  0.00     0.009 A 
HETATM   30  C   UNL     1      28.351  44.415  54.638  1.00  0.00     0.007 A 
HETATM   31  C   UNL     1      29.445  43.711  54.125  1.00  0.00    -0.062 A 
HETATM   32  C   UNL     1      30.629  43.394  54.990  1.00  0.00     0.048 C 
HETATM   33  C   UNL     1      29.397  43.253  52.803  1.00  0.00     0.007 A 
HETATM   34  C   UNL     1      28.280  43.505  52.002  1.00  0.00     0.009 A 
ENDBRANCH  27  28
ENDBRANCH  24  27
ENDBRANCH   1  23
TORSDOF 9
ENDMDL
MODEL 3
REMARK VINA RESULT:      -9.2      2.168      3.804
REMARK  9 active torsions:
REMARK  status: ('A' for Active; 'I' for Inactive)
REMARK    1  A    between atoms: C_5  and  C_6 
REMARK    2  A    between atoms: C_6  and  N_7 
REMARK       I    between atoms: N_7  and  C_8 
REMARK    3  A    between atoms: C_8  and  C_9 
REMARK    4  A    between atoms: C_10  and  S_11 
REMARK    5  A    between atoms: S_11  and  C_12 
REMARK    6  A    between atoms: C_12  and  C_13 
REMARK       I    between atoms: C_13  and  N_14 
REMARK    7  A    between atoms: N_14  and  C_15 
REMARK    8  A    between atoms: C_16  and  O_17 
REMARK    9  A    between atoms: C_20  and  O_21 
ROOT
HETATM    1  C   UNL     1      26.588  46.376  49.708  1.00  0.00     0.067 A 
HETATM    2  C   UNL     1      25.271  46.838  49.655  1.00  0.00     0.109 A 
HETATM    3  N   UNL     1      24.970  48.124  49.312  1.00  0.00    -0.253 NA
HETATM    4  C   UNL     1      25.994  48.973  49.067  1.00  0.00     0.118 A 
HETATM    5  C   UNL     1      27.324  48.606  49.118  1.00  0.00     0.020 A 
HETATM    6  C   UNL     1      27.624  47.287  49.439  1.00  0.00     0.021 A 
ENDROOT
BRANCH   2   7
HETATM    7  S   UNL     1      23.824  45.864  50.012  1.00  0.00    -0.100 SA
BRANCH   7   8
HETATM    8  C   UNL     1      23.047  45.855  48.373  1.00  0.00     0.184 C 
BRANCH   8   9
HETATM    9  C   UNL     1      22.035  46.964  48.110  1.00  0.00     0.231 C 
HETATM   10  N   UNL     1      21.653  47.703  49.215  1.00  0.00    -0.324 N 
HETATM   11  H   UNL     1      22.251  47.590  50.034  1.00  0.00     0.169 HD
HETATM   12  O   UNL     1      21.744  47.229  46.941  1.00  0.00    -0.272 OA
BRANCH  10  13
HETATM   13  C   UNL     1      20.813  48.840  49.198  1.00  0.00     0.068 A 
HETATM   14  C   UNL     1      19.412  48.803  49.072  1.00  0.00     0.097 A 
HETATM   15  C   UNL     1      18.698  50.008  48.955  1.00  0.00     0.075 A 
HETATM   16  C   UNL     1      19.362  51.237  48.994  1.00  0.00     0.070 A 
HETATM   17  C   UNL     1      20.737  51.266  49.217  1.00  0.00     0.039 A 
HETATM   18  C   UNL     1      21.455  50.078  49.327  1.00  0.00     0.035 A 
BRANCH  14  19
HETATM   19  O   UNL     1      18.806  47.580  49.202  1.00  0.00    -0.354 OA
HETATM   20  C   UNL     1      17.400  47.513  49.014  1.00  0.00     0.210 C 
ENDBRANCH  14  19
BRANCH  16  21
HETATM   21  O   UNL     1      18.776  52.467  48.871  1.00  0.00    -0.356 OA
HETATM   22  C   UNL     1      17.574  52.669  49.604  1.00  0.00     0.210 C 
ENDBRANCH  16  21
ENDBRANCH  10  13
ENDBRANCH   8   9
ENDBRANCH   7   8
ENDBRANCH   2   7
BRANCH   1  23
HETATM   23  C   UNL     1      26.954  44.981  50.053  1.00  0.00     0.254 C 
HETATM   24  N   UNL     1      27.292  44.772  51.374  1.00  0.00    -0.353 N 
HETATM   25  H   UNL     1      27.451  45.557  51.992  1.00  0.00     0.163 HD
HETATM   26  O   UNL     1      26.923  44.089  49.218  1.00  0.00    -0.268 OA
BRANCH  24  27
HETATM   27  C   UNL     1      27.685  43.466  51.854  1.00  0.00     0.161 C 
BRANCH  27  28
HETATM   28  C   UNL     1      28.587  43.586  53.055  1.00  0.00    -0.041 A 
HETATM   29  C   UNL     1      29.711  42.755  53.178  1.00  0.00     0.009 A 
HETATM   30  C   UNL     1      30.565  42.869  54.277  1.00  0.00     0.007 A 
HETATM   31  C   UNL     1      30.309  43.812  55.277  1.00  0.00    -0.062 A 
HETATM   32  C   UNL     1      31.249  43.976  56.436  1.00  0.00     0.048 C 
HETATM   33  C   UNL     1      29.192  44.646  55.155  1.00  0.00     0.007 A 
HETATM   34  C   UNL     1      28.335  44.531  54.057  1.00  0.00     0.009 A 
ENDBRANCH  27  28
ENDBRANCH  24  27
ENDBRANCH   1  23
TORSDOF 9
ENDMDL
MODEL 4
REMARK VINA RESULT:      -9.0      1.859      3.137
REMARK  9 active torsions:
REMARK  status: ('A' for Active; 'I' for Inactive)
REMARK    1  A    between atoms: C_5  and  C_6 
REMARK    2  A    between atoms: C_6  and  N_7 
REMARK       I    between atoms: N_7  and  C_8 
REMARK    3  A    between atoms: C_8  and  C_9 
REMARK    4  A    between atoms: C_10  and  S_11 
REMARK    5  A    between atoms: S_11  and  C_12 
REMARK    6  A    between atoms: C_12  and  C_13 
REMARK       I    between atoms: C_13  and  N_14 
REMARK    7  A    between atoms: N_14  and  C_15 
REMARK    8  A    between atoms: C_16  and  O_17 
REMARK    9  A    between atoms: C_20  and  O_21 
ROOT
HETATM    1  C   UNL     1      25.222  45.248  51.650  1.00  0.00     0.067 A 
HETATM    2  C   UNL     1      24.477  45.640  50.537  1.00  0.00     0.109 A 
HETATM    3  N   UNL     1      23.824  44.736  49.750  1.00  0.00    -0.253 NA
HETATM    4  C   UNL     1      23.954  43.423  50.048  1.00  0.00     0.118 A 
HETATM    5  C   UNL     1      24.689  42.948  51.116  1.00  0.00     0.020 A 
HETATM    6  C   UNL     1      25.328  43.875  51.930  1.00  0.00     0.021 A 
ENDROOT
BRANCH   2   7
HETATM    7  S   UNL     1      24.265  47.317  49.978  1.00  0.00    -0.100 SA
BRANCH   7   8
HETATM    8  C   UNL     1      23.064  47.048  48.646  1.00  0.00     0.184 C 
BRANCH   8   9
HETATM    9  C   UNL     1      22.033  48.153  48.446  1.00  0.00     0.231 C 
HETATM   10  N   UNL     1      21.109  48.304  49.465  1.00  0.00    -0.324 N 
HETATM   11  H   UNL     1      21.350  47.829  50.335  1.00  0.00     0.169 HD
HETATM   12  O   UNL     1      22.173  48.924  47.494  1.00  0.00    -0.272 OA
BRANCH  10  13
HETATM   13  C   UNL     1      20.131  49.321  49.550  1.00  0.00     0.068 A 
HETATM   14  C   UNL     1      18.745  49.117  49.414  1.00  0.00     0.097 A 
HETATM   15  C   UNL     1      17.882  50.227  49.406  1.00  0.00     0.075 A 
HETATM   16  C   UNL     1      18.385  51.521  49.562  1.00  0.00     0.070 A 
HETATM   17  C   UNL     1      19.746  51.705  49.794  1.00  0.00     0.039 A 
HETATM   18  C   UNL     1      20.611  50.613  49.796  1.00  0.00     0.035 A 
BRANCH  14  19
HETATM   19  O   UNL     1      18.301  47.820  49.426  1.00  0.00    -0.354 OA
HETATM   20  C   UNL     1      17.844  47.263  48.203  1.00  0.00     0.210 C 
ENDBRANCH  14  19
BRANCH  16  21
HETATM   21  O   UNL     1      17.646  52.673  49.551  1.00  0.00    -0.356 OA
HETATM   22  C   UNL     1      16.309  52.569  50.026  1.00  0.00     0.210 C 
ENDBRANCH  16  21
ENDBRANCH  10  13
ENDBRANCH   8   9
ENDBRANCH   7   8
ENDBRANCH   2   7
BRANCH   1  23
HETATM   23  C   UNL     1      25.927  46.201  52.542  1.00  0.00     0.254 C 
HETATM   24  N   UNL     1      26.704  45.622  53.524  1.00  0.00    -0.353 N 
HETATM   25  H   UNL     1      26.633  44.631  53.716  1.00  0.00     0.163 HD
HETATM   26  O   UNL     1      25.836  47.409  52.383  1.00  0.00    -0.268 OA
BRANCH  24  27
HETATM   27  C   UNL     1      27.437  46.426  54.476  1.00  0.00     0.161 C 
BRANCH  27  28
HETATM   28  C   UNL     1      28.559  45.632  55.095  1.00  0.00    -0.041 A 
HETATM   29  C   UNL     1      29.213  46.110  56.240  1.00  0.00     0.009 A 
HETATM   30  C   UNL     1      30.241  45.376  56.833  1.00  0.00     0.007 A 
HETATM   31  C   UNL     1      30.640  44.150  56.290  1.00  0.00    -0.062 A 
HETATM   32  C   UNL     1      31.710  43.330  56.949  1.00  0.00     0.048 C 
HETATM   33  C   UNL     1      29.987  43.668  55.150  1.00  0.00     0.007 A 
HETATM   34  C   UNL     1      28.959  44.404  54.554  1.00  0.00     0.009 A 
ENDBRANCH  27  28
ENDBRANCH  24  27
ENDBRANCH   1  23
TORSDOF 9
ENDMDL
MODEL 5
REMARK VINA RESULT:      -8.8      2.072     10.402
REMARK  9 active torsions:
REMARK  status: ('A' for Active; 'I' for Inactive)
REMARK    1  A    between atoms: C_5  and  C_6 
REMARK    2  A    between atoms: C_6  and  N_7 
REMARK       I    between atoms: N_7  and  C_8 
REMARK    3  A    between atoms: C_8  and  C_9 
REMARK    4  A    between atoms: C_10  and  S_11 
REMARK    5  A    between atoms: S_11  and  C_12 
REMARK    6  A    between atoms: C_12  and  C_13 
REMARK       I    between atoms: C_13  and  N_14 
REMARK    7  A    between atoms: N_14  and  C_15 
REMARK    8  A    between atoms: C_16  and  O_17 
REMARK    9  A    between atoms: C_20  and  O_21 
ROOT
HETATM    1  C   UNL     1      23.975  48.130  48.836  1.00  0.00     0.067 A 
HETATM    2  C   UNL     1      24.739  47.204  49.550  1.00  0.00     0.109 A 
HETATM    3  N   UNL     1      26.025  47.465  49.925  1.00  0.00    -0.253 NA
HETATM    4  C   UNL     1      26.572  48.641  49.542  1.00  0.00     0.118 A 
HETATM    5  C   UNL     1      25.897  49.602  48.816  1.00  0.00     0.020 A 
HETATM    6  C   UNL     1      24.578  49.343  48.463  1.00  0.00     0.021 A 
ENDROOT
BRANCH   2   7
HETATM    7  S   UNL     1      24.185  45.594  50.069  1.00  0.00    -0.100 SA
BRANCH   7   8
HETATM    8  C   UNL     1      25.540  44.578  49.420  1.00  0.00     0.184 C 
BRANCH   8   9
HETATM    9  C   UNL     1      26.398  43.869  50.462  1.00  0.00     0.231 C 
HETATM   10  N   UNL     1      27.064  44.691  51.353  1.00  0.00    -0.324 N 
HETATM   11  H   UNL     1      26.734  45.656  51.373  1.00  0.00     0.169 HD
HETATM   12  O   UNL     1      26.327  42.640  50.543  1.00  0.00    -0.272 OA
BRANCH  10  13
HETATM   13  C   UNL     1      27.828  44.261  52.462  1.00  0.00     0.068 A 
HETATM   14  C   UNL     1      27.553  44.590  53.802  1.00  0.00     0.097 A 
HETATM   15  C   UNL     1      28.453  44.194  54.807  1.00  0.00     0.075 A 
HETATM   16  C   UNL     1      29.595  43.453  54.490  1.00  0.00     0.070 A 
HETATM   17  C   UNL     1      29.806  43.048  53.174  1.00  0.00     0.039 A 
HETATM   18  C   UNL     1      28.925  43.442  52.169  1.00  0.00     0.035 A 
BRANCH  14  19
HETATM   19  O   UNL     1      26.342  45.176  54.066  1.00  0.00    -0.354 OA
HETATM   20  C   UNL     1      25.257  44.328  54.413  1.00  0.00     0.210 C 
ENDBRANCH  14  19
BRANCH  16  21
HETATM   21  O   UNL     1      30.546  43.030  55.378  1.00  0.00    -0.356 OA
HETATM   22  C   UNL     1      31.134  44.033  56.197  1.00  0.00     0.210 C 
ENDBRANCH  16  21
ENDBRANCH  10  13
ENDBRANCH   8   9
ENDBRANCH   7   8
ENDBRANCH   2   7
BRANCH   1  23
HETATM   23  C   UNL     1      22.568  47.893  48.432  1.00  0.00     0.254 C 
HETATM   24  N   UNL     1      21.624  48.170  49.399  1.00  0.00    -0.353 N 
HETATM   25  H   UNL     1      21.906  48.340  50.356  1.00  0.00     0.163 HD
HETATM   26  O   UNL     1      22.284  47.507  47.307  1.00  0.00    -0.268 OA
BRANCH  24  27
HETATM   27  C   UNL     1      20.213  47.973  49.153  1.00  0.00     0.161 C 
BRANCH  27  28
HETATM   28  C   UNL     1      19.458  49.269  49.299  1.00  0.00    -0.041 A 
HETATM   29  C   UNL     1      18.091  49.327  48.994  1.00  0.00     0.009 A 
HETATM   30  C   UNL     1      17.376  50.517  49.142  1.00  0.00     0.007 A 
HETATM   31  C   UNL     1      18.017  51.676  49.593  1.00  0.00    -0.062 A 
HETATM   32  C   UNL     1      17.247  52.947  49.804  1.00  0.00     0.048 C 
HETATM   33  C   UNL     1      19.381  51.620  49.903  1.00  0.00     0.007 A 
HETATM   34  C   UNL     1      20.097  50.430  49.752  1.00  0.00     0.009 A 
ENDBRANCH  27  28
ENDBRANCH  24  27
ENDBRANCH   1  23
TORSDOF 9
ENDMDL
MODEL 6
REMARK VINA RESULT:      -8.7      2.184     10.119
REMARK  9 active torsions:
REMARK  status: ('A' for Active; 'I' for Inactive)
REMARK    1  A    between atoms: C_5  and  C_6 
REMARK    2  A    between atoms: C_6  and  N_7 
REMARK       I    between atoms: N_7  and  C_8 
REMARK    3  A    between atoms: C_8  and  C_9 
REMARK    4  A    between atoms: C_10  and  S_11 
REMARK    5  A    between atoms: S_11  and  C_12 
REMARK    6  A    between atoms: C_12  and  C_13 
REMARK       I    between atoms: C_13  and  N_14 
REMARK    7  A    between atoms: N_14  and  C_15 
REMARK    8  A    between atoms: C_16  and  O_17 
REMARK    9  A    between atoms: C_20  and  O_21 
ROOT
HETATM    1  C   UNL     1      22.645  46.710  48.376  1.00  0.00     0.067 A 
HETATM    2  C   UNL     1      23.393  45.744  49.051  1.00  0.00     0.109 A 
HETATM    3  N   UNL     1      23.231  44.409  48.814  1.00  0.00    -0.253 NA
HETATM    4  C   UNL     1      22.279  44.032  47.931  1.00  0.00     0.118 A 
HETATM    5  C   UNL     1      21.481  44.919  47.237  1.00  0.00     0.020 A 
HETATM    6  C   UNL     1      21.670  46.278  47.461  1.00  0.00     0.021 A 
ENDROOT
BRANCH   2   7
HETATM    7  S   UNL     1      24.634  46.078  50.284  1.00  0.00    -0.100 SA
BRANCH   7   8
HETATM    8  C   UNL     1      24.221  44.788  51.491  1.00  0.00     0.184 C 
BRANCH   8   9
HETATM    9  C   UNL     1      25.164  44.667  52.683  1.00  0.00     0.231 C 
HETATM   10  N   UNL     1      26.390  45.293  52.546  1.00  0.00    -0.324 N 
HETATM   11  H   UNL     1      26.447  45.959  51.775  1.00  0.00     0.169 HD
HETATM   12  O   UNL     1      24.734  44.166  53.725  1.00  0.00    -0.272 OA
BRANCH  10  13
HETATM   13  C   UNL     1      27.378  45.405  53.551  1.00  0.00     0.068 A 
HETATM   14  C   UNL     1      28.342  44.422  53.843  1.00  0.00     0.097 A 
HETATM   15  C   UNL     1      29.200  44.603  54.942  1.00  0.00     0.075 A 
HETATM   16  C   UNL     1      29.123  45.760  55.723  1.00  0.00     0.070 A 
HETATM   17  C   UNL     1      28.234  46.770  55.367  1.00  0.00     0.039 A 
HETATM   18  C   UNL     1      27.373  46.598  54.284  1.00  0.00     0.035 A 
BRANCH  14  19
HETATM   19  O   UNL     1      28.473  43.391  52.949  1.00  0.00    -0.354 OA
HETATM   20  C   UNL     1      28.207  42.075  53.410  1.00  0.00     0.210 C 
ENDBRANCH  14  19
BRANCH  16  21
HETATM   21  O   UNL     1      29.891  46.035  56.822  1.00  0.00    -0.356 OA
HETATM   22  C   UNL     1      29.230  45.984  58.081  1.00  0.00     0.210 C 
ENDBRANCH  16  21
ENDBRANCH  10  13
ENDBRANCH   8   9
ENDBRANCH   7   8
ENDBRANCH   2   7
BRANCH   1  23
HETATM   23  C   UNL     1      22.809  48.169  48.588  1.00  0.00     0.254 C 
HETATM   24  N   UNL     1      21.896  48.743  49.449  1.00  0.00    -0.353 N 
HETATM   25  H   UNL     1      21.080  48.226  49.749  1.00  0.00     0.163 HD
HETATM   26  O   UNL     1      23.712  48.794  48.053  1.00  0.00    -0.268 OA
BRANCH  24  27
HETATM   27  C   UNL     1      21.923  50.159  49.741  1.00  0.00     0.161 C 
BRANCH  27  28
HETATM   28  C   UNL     1      20.558  50.770  49.555  1.00  0.00    -0.041 A 
HETATM   29  C   UNL     1      20.368  51.802  48.625  1.00  0.00     0.009 A 
HETATM   30  C   UNL     1      19.105  52.364  48.430  1.00  0.00     0.007 A 
HETATM   31  C   UNL     1      18.007  51.909  49.167  1.00  0.00    -0.062 A 
HETATM   32  C   UNL     1      16.636  52.472  48.930  1.00  0.00     0.048 C 
HETATM   33  C   UNL     1      18.192  50.876  50.094  1.00  0.00     0.007 A 
HETATM   34  C   UNL     1      19.457  50.315  50.290  1.00  0.00     0.009 A 
ENDBRANCH  27  28
ENDBRANCH  24  27
ENDBRANCH   1  23
TORSDOF 9
ENDMDL
MODEL 7
REMARK VINA RESULT:      -8.7      2.203      3.552
REMARK  9 active torsions:
REMARK  status: ('A' for Active; 'I' for Inactive)
REMARK    1  A    between atoms: C_5  and  C_6 
REMARK    2  A    between atoms: C_6  and  N_7 
REMARK       I    between atoms: N_7  and  C_8 
REMARK    3  A    between atoms: C_8  and  C_9 
REMARK    4  A    between atoms: C_10  and  S_11 
REMARK    5  A    between atoms: S_11  and  C_12 
REMARK    6  A    between atoms: C_12  and  C_13 
REMARK       I    between atoms: C_13  and  N_14 
REMARK    7  A    between atoms: N_14  and  C_15 
REMARK    8  A    between atoms: C_16  and  O_17 
REMARK    9  A    between atoms: C_20  and  O_21 
ROOT
HETATM    1  C   UNL     1      27.242  41.093  49.681  1.00  0.00     0.067 A 
HETATM    2  C   UNL     1      26.369  40.618  48.701  1.00  0.00     0.109 A 
HETATM    3  N   UNL     1      26.404  39.323  48.268  1.00  0.00    -0.253 NA
HETATM    4  C   UNL     1      27.353  38.508  48.782  1.00  0.00     0.118 A 
HETATM    5  C   UNL     1      28.269  38.902  49.737  1.00  0.00     0.020 A 
HETATM    6  C   UNL     1      28.209  40.213  50.195  1.00  0.00     0.021 A 
ENDROOT
BRANCH   2   7
HETATM    7  S   UNL     1      25.114  41.581  47.885  1.00  0.00    -0.100 SA
BRANCH   7   8
HETATM    8  C   UNL     1      23.884  41.675  49.214  1.00  0.00     0.184 C 
BRANCH   8   9
HETATM    9  C   UNL     1      23.521  43.078  49.688  1.00  0.00     0.231 C 
HETATM   10  N   UNL     1      24.093  44.118  48.978  1.00  0.00    -0.324 N 
HETATM   11  H   UNL     1      24.502  43.852  48.082  1.00  0.00     0.169 HD
HETATM   12  O   UNL     1      22.645  43.200  50.547  1.00  0.00    -0.272 OA
BRANCH  10  13
HETATM   13  C   UNL     1      23.823  45.493  49.165  1.00  0.00     0.068 A 
HETATM   14  C   UNL     1      22.738  46.183  48.593  1.00  0.00     0.097 A 
HETATM   15  C   UNL     1      22.640  47.576  48.762  1.00  0.00     0.075 A 
HETATM   16  C   UNL     1      23.590  48.270  49.516  1.00  0.00     0.070 A 
HETATM   17  C   UNL     1      24.604  47.565  50.159  1.00  0.00     0.039 A 
HETATM   18  C   UNL     1      24.715  46.186  49.993  1.00  0.00     0.035 A 
BRANCH  14  19
HETATM   19  O   UNL     1      21.758  45.427  48.003  1.00  0.00    -0.354 OA
HETATM   20  C   UNL     1      20.510  45.322  48.671  1.00  0.00     0.210 C 
ENDBRANCH  14  19
BRANCH  16  21
HETATM   21  O   UNL     1      23.607  49.621  49.732  1.00  0.00    -0.356 OA
HETATM   22  C   UNL     1      23.230  50.441  48.633  1.00  0.00     0.210 C 
ENDBRANCH  16  21
ENDBRANCH  10  13
ENDBRANCH   8   9
ENDBRANCH   7   8
ENDBRANCH   2   7
BRANCH   1  23
HETATM   23  C   UNL     1      27.219  42.485  50.193  1.00  0.00     0.254 C 
HETATM   24  N   UNL     1      27.329  42.608  51.563  1.00  0.00    -0.353 N 
HETATM   25  H   UNL     1      27.242  41.795  52.159  1.00  0.00     0.163 HD
HETATM   26  O   UNL     1      27.139  43.442  49.437  1.00  0.00    -0.268 OA
BRANCH  24  27
HETATM   27  C   UNL     1      27.307  43.903  52.207  1.00  0.00     0.161 C 
BRANCH  27  28
HETATM   28  C   UNL     1      28.311  43.959  53.329  1.00  0.00    -0.041 A 
HETATM   29  C   UNL     1      29.360  43.029  53.384  1.00  0.00     0.009 A 
HETATM   30  C   UNL     1      30.308  43.082  54.408  1.00  0.00     0.007 A 
HETATM   31  C   UNL     1      30.223  44.063  55.401  1.00  0.00    -0.062 A 
HETATM   32  C   UNL     1      31.265  44.159  56.477  1.00  0.00     0.048 C 
HETATM   33  C   UNL     1      29.180  44.996  55.347  1.00  0.00     0.007 A 
HETATM   34  C   UNL     1      28.230  44.941  54.324  1.00  0.00     0.009 A 
ENDBRANCH  27  28
ENDBRANCH  24  27
ENDBRANCH   1  23
TORSDOF 9
ENDMDL
MODEL 8
REMARK VINA RESULT:      -8.6      2.275     10.392
REMARK  9 active torsions:
REMARK  status: ('A' for Active; 'I' for Inactive)
REMARK    1  A    between atoms: C_5  and  C_6 
REMARK    2  A    between atoms: C_6  and  N_7 
REMARK       I    between atoms: N_7  and  C_8 
REMARK    3  A    between atoms: C_8  and  C_9 
REMARK    4  A    between atoms: C_10  and  S_11 
REMARK    5  A    between atoms: S_11  and  C_12 
REMARK    6  A    between atoms: C_12  and  C_13 
REMARK       I    between atoms: C_13  and  N_14 
REMARK    7  A    between atoms: N_14  and  C_15 
REMARK    8  A    between atoms: C_16  and  O_17 
REMARK    9  A    between atoms: C_20  and  O_21 
ROOT
HETATM    1  C   UNL     1      22.243  46.800  48.422  1.00  0.00     0.067 A 
HETATM    2  C   UNL     1      23.202  45.939  48.960  1.00  0.00     0.109 A 
HETATM    3  N   UNL     1      23.075  44.582  48.890  1.00  0.00    -0.253 NA
HETATM    4  C   UNL     1      21.956  44.077  48.320  1.00  0.00     0.118 A 
HETATM    5  C   UNL     1      20.950  44.855  47.784  1.00  0.00     0.020 A 
HETATM    6  C   UNL     1      21.099  46.236  47.832  1.00  0.00     0.021 A 
ENDROOT
BRANCH   2   7
HETATM    7  S   UNL     1      24.690  46.448  49.795  1.00  0.00    -0.100 SA
BRANCH   7   8
HETATM    8  C   UNL     1      25.608  44.885  49.766  1.00  0.00     0.184 C 
BRANCH   8   9
HETATM    9  C   UNL     1      26.828  44.813  50.679  1.00  0.00     0.231 C 
HETATM   10  N   UNL     1      26.593  44.343  51.958  1.00  0.00    -0.324 N 
HETATM   11  H   UNL     1      25.694  43.878  52.086  1.00  0.00     0.169 HD
HETATM   12  O   UNL     1      27.940  45.023  50.191  1.00  0.00    -0.272 OA
BRANCH  10  13
HETATM   13  C   UNL     1      27.579  44.090  52.940  1.00  0.00     0.068 A 
HETATM   14  C   UNL     1      27.792  44.878  54.086  1.00  0.00     0.097 A 
HETATM   15  C   UNL     1      28.879  44.588  54.930  1.00  0.00     0.075 A 
HETATM   16  C   UNL     1      29.725  43.511  54.656  1.00  0.00     0.070 A 
HETATM   17  C   UNL     1      29.449  42.678  53.575  1.00  0.00     0.039 A 
HETATM   18  C   UNL     1      28.379  42.960  52.728  1.00  0.00     0.035 A 
BRANCH  14  19
HETATM   19  O   UNL     1      26.838  45.816  54.385  1.00  0.00    -0.354 OA
HETATM   20  C   UNL     1      27.224  47.182  54.376  1.00  0.00     0.210 C 
ENDBRANCH  14  19
BRANCH  16  21
HETATM   21  O   UNL     1      30.820  43.147  55.393  1.00  0.00    -0.356 OA
HETATM   22  C   UNL     1      31.237  44.063  56.398  1.00  0.00     0.210 C 
ENDBRANCH  16  21
ENDBRANCH  10  13
ENDBRANCH   8   9
ENDBRANCH   7   8
ENDBRANCH   2   7
BRANCH   1  23
HETATM   23  C   UNL     1      22.357  48.278  48.458  1.00  0.00     0.254 C 
HETATM   24  N   UNL     1      21.727  48.890  49.522  1.00  0.00    -0.353 N 
HETATM   25  H   UNL     1      21.091  48.368  50.110  1.00  0.00     0.163 HD
HETATM   26  O   UNL     1      22.992  48.890  47.612  1.00  0.00    -0.268 OA
BRANCH  24  27
HETATM   27  C   UNL     1      21.741  50.328  49.681  1.00  0.00     0.161 C 
BRANCH  27  28
HETATM   28  C   UNL     1      20.361  50.901  49.486  1.00  0.00    -0.041 A 
HETATM   29  C   UNL     1      19.283  50.416  50.242  1.00  0.00     0.009 A 
HETATM   30  C   UNL     1      18.003  50.951  50.084  1.00  0.00     0.007 A 
HETATM   31  C   UNL     1      17.774  51.978  49.162  1.00  0.00    -0.062 A 
HETATM   32  C   UNL     1      16.412  52.593  49.022  1.00  0.00     0.048 C 
HETATM   33  C   UNL     1      18.848  52.467  48.410  1.00  0.00     0.007 A 
HETATM   34  C   UNL     1      20.129  51.930  48.565  1.00  0.00     0.009 A 
ENDBRANCH  27  28
ENDBRANCH  24  27
ENDBRANCH   1  23
TORSDOF 9
ENDMDL
MODEL 9
REMARK VINA RESULT:      -8.5      2.417     10.013
REMARK  9 active torsions:
REMARK  status: ('A' for Active; 'I' for Inactive)
REMARK    1  A    between atoms: C_5  and  C_6 
REMARK    2  A    between atoms: C_6  and  N_7 
REMARK       I    between atoms: N_7  and  C_8 
REMARK    3  A    between atoms: C_8  and  C_9 
REMARK    4  A    between atoms: C_10  and  S_11 
REMARK    5  A    between atoms: S_11  and  C_12 
REMARK    6  A    between atoms: C_12  and  C_13 
REMARK       I    between atoms: C_13  and  N_14 
REMARK    7  A    between atoms: N_14  and  C_15 
REMARK    8  A    between atoms: C_16  and  O_17 
REMARK    9  A    between atoms: C_20  and  O_21 
ROOT
HETATM    1  C   UNL     1      24.431  47.855  48.887  1.00  0.00     0.067 A 
HETATM    2  C   UNL     1      25.343  46.899  49.338  1.00  0.00     0.109 A 
HETATM    3  N   UNL     1      26.630  47.224  49.660  1.00  0.00    -0.253 NA
HETATM    4  C   UNL     1      27.024  48.506  49.484  1.00  0.00     0.118 A 
HETATM    5  C   UNL     1      26.194  49.508  49.022  1.00  0.00     0.020 A 
HETATM    6  C   UNL     1      24.878  49.177  48.724  1.00  0.00     0.021 A 
ENDROOT
BRANCH   2   7
HETATM    7  S   UNL     1      24.996  45.167  49.560  1.00  0.00    -0.100 SA
BRANCH   7   8
HETATM    8  C   UNL     1      24.165  45.223  51.171  1.00  0.00     0.184 C 
BRANCH   8   9
HETATM    9  C   UNL     1      25.048  44.955  52.385  1.00  0.00     0.231 C 
HETATM   10  N   UNL     1      26.194  45.725  52.475  1.00  0.00    -0.324 N 
HETATM   11  H   UNL     1      26.212  46.540  51.862  1.00  0.00     0.169 HD
HETATM   12  O   UNL     1      24.624  44.204  53.265  1.00  0.00    -0.272 OA
BRANCH  10  13
HETATM   13  C   UNL     1      27.104  45.728  53.558  1.00  0.00     0.068 A 
HETATM   14  C   UNL     1      28.016  44.695  53.844  1.00  0.00     0.097 A 
HETATM   15  C   UNL     1      28.790  44.765  55.015  1.00  0.00     0.075 A 
HETATM   16  C   UNL     1      28.684  45.860  55.876  1.00  0.00     0.070 A 
HETATM   17  C   UNL     1      27.851  46.923  55.534  1.00  0.00     0.039 A 
HETATM   18  C   UNL     1      27.074  46.862  54.379  1.00  0.00     0.035 A 
BRANCH  14  19
HETATM   19  O   UNL     1      28.189  43.732  52.884  1.00  0.00    -0.354 OA
HETATM   20  C   UNL     1      29.499  43.221  52.685  1.00  0.00     0.210 C 
ENDBRANCH  14  19
BRANCH  16  21
HETATM   21  O   UNL     1      29.371  46.026  57.048  1.00  0.00    -0.356 OA
HETATM   22  C   UNL     1      30.557  45.255  57.199  1.00  0.00     0.210 C 
ENDBRANCH  16  21
ENDBRANCH  10  13
ENDBRANCH   8   9
ENDBRANCH   7   8
ENDBRANCH   2   7
BRANCH   1  23
HETATM   23  C   UNL     1      23.020  47.546  48.550  1.00  0.00     0.254 C 
HETATM   24  N   UNL     1      22.078  48.142  49.363  1.00  0.00    -0.353 N 
HETATM   25  H   UNL     1      22.357  48.596  50.223  1.00  0.00     0.163 HD
HETATM   26  O   UNL     1      22.733  46.835  47.599  1.00  0.00    -0.268 OA
BRANCH  24  27
HETATM   27  C   UNL     1      20.663  47.921  49.163  1.00  0.00     0.161 C 
BRANCH  27  28
HETATM   28  C   UNL     1      19.900  49.217  49.255  1.00  0.00    -0.041 A 
HETATM   29  C   UNL     1      20.309  50.330  48.506  1.00  0.00     0.009 A 
HETATM   30  C   UNL     1      19.600  51.532  48.568  1.00  0.00     0.007 A 
HETATM   31  C   UNL     1      18.472  51.646  49.386  1.00  0.00    -0.062 A 
HETATM   32  C   UNL     1      17.675  52.917  49.422  1.00  0.00     0.048 C 
HETATM   33  C   UNL     1      18.059  50.536  50.132  1.00  0.00     0.007 A 
HETATM   34  C   UNL     1      18.769  49.334  50.072  1.00  0.00     0.009 A 
ENDBRANCH  27  28
ENDBRANCH  24  27
ENDBRANCH   1  23
TORSDOF 9
ENDMDL
MODEL 10
REMARK VINA RESULT:      -8.5      2.143      9.837
REMARK  9 active torsions:
REMARK  status: ('A' for Active; 'I' for Inactive)
REMARK    1  A    between atoms: C_5  and  C_6 
REMARK    2  A    between atoms: C_6  and  N_7 
REMARK       I    between atoms: N_7  and  C_8 
REMARK    3  A    between atoms: C_8  and  C_9 
REMARK    4  A    between atoms: C_10  and  S_11 
REMARK    5  A    between atoms: S_11  and  C_12 
REMARK    6  A    between atoms: C_12  and  C_13 
REMARK       I    between atoms: C_13  and  N_14 
REMARK    7  A    between atoms: N_14  and  C_15 
REMARK    8  A    between atoms: C_16  and  O_17 
REMARK    9  A    between atoms: C_20  and  O_21 
ROOT
HETATM    1  C   UNL     1      25.081  49.442  48.670  1.00  0.00     0.067 A 
HETATM    2  C   UNL     1      25.130  48.199  49.304  1.00  0.00     0.109 A 
HETATM    3  N   UNL     1      26.309  47.636  49.702  1.00  0.00    -0.253 NA
HETATM    4  C   UNL     1      27.455  48.297  49.420  1.00  0.00     0.118 A 
HETATM    5  C   UNL     1      27.498  49.518  48.778  1.00  0.00     0.020 A 
HETATM    6  C   UNL     1      26.293  50.100  48.402  1.00  0.00     0.021 A 
ENDROOT
BRANCH   2   7
HETATM    7  S   UNL     1      23.719  47.180  49.684  1.00  0.00    -0.100 SA
BRANCH   7   8
HETATM    8  C   UNL     1      24.435  45.541  49.384  1.00  0.00     0.184 C 
BRANCH   8   9
HETATM    9  C   UNL     1      24.947  44.803  50.616  1.00  0.00     0.231 C 
HETATM   10  N   UNL     1      26.279  45.009  50.929  1.00  0.00    -0.324 N 
HETATM   11  H   UNL     1      26.712  45.802  50.455  1.00  0.00     0.169 HD
HETATM   12  O   UNL     1      24.133  44.209  51.327  1.00  0.00    -0.272 OA
BRANCH  10  13
HETATM   13  C   UNL     1      26.944  44.519  52.076  1.00  0.00     0.068 A 
HETATM   14  C   UNL     1      26.787  45.034  53.377  1.00  0.00     0.097 A 
HETATM   15  C   UNL     1      27.590  44.533  54.417  1.00  0.00     0.075 A 
HETATM   16  C   UNL     1      28.514  43.513  54.177  1.00  0.00     0.070 A 
HETATM   17  C   UNL     1      28.591  42.943  52.908  1.00  0.00     0.039 A 
HETATM   18  C   UNL     1      27.806  43.436  51.868  1.00  0.00     0.035 A 
BRANCH  14  19
HETATM   19  O   UNL     1      25.757  45.915  53.580  1.00  0.00    -0.354 OA
HETATM   20  C   UNL     1      26.085  47.277  53.810  1.00  0.00     0.210 C 
ENDBRANCH  14  19
BRANCH  16  21
HETATM   21  O   UNL     1      29.357  42.963  55.104  1.00  0.00    -0.356 OA
HETATM   22  C   UNL     1      30.716  43.379  55.045  1.00  0.00     0.210 C 
ENDBRANCH  16  21
ENDBRANCH  10  13
ENDBRANCH   8   9
ENDBRANCH   7   8
ENDBRANCH   2   7
BRANCH   1  23
HETATM   23  C   UNL     1      23.820  50.096  48.244  1.00  0.00     0.254 C 
HETATM   24  N   UNL     1      22.940  50.394  49.264  1.00  0.00    -0.353 N 
HETATM   25  H   UNL     1      23.085  50.018  50.192  1.00  0.00     0.163 HD
HETATM   26  O   UNL     1      23.607  50.369  47.072  1.00  0.00    -0.268 OA
BRANCH  24  27
HETATM   27  C   UNL     1      21.663  51.020  48.999  1.00  0.00     0.161 C 
BRANCH  27  28
HETATM   28  C   UNL     1      20.566  49.990  48.934  1.00  0.00    -0.041 A 
HETATM   29  C   UNL     1      20.417  49.190  47.792  1.00  0.00     0.009 A 
HETATM   30  C   UNL     1      19.416  48.219  47.726  1.00  0.00     0.007 A 
HETATM   31  C   UNL     1      18.538  48.033  48.799  1.00  0.00    -0.062 A 
HETATM   32  C   UNL     1      17.491  46.959  48.758  1.00  0.00     0.048 C 
HETATM   33  C   UNL     1      18.687  48.827  49.942  1.00  0.00     0.007 A 
HETATM   34  C   UNL     1      19.687  49.800  50.008  1.00  0.00     0.009 A 
ENDBRANCH  27  28
ENDBRANCH  24  27
ENDBRANCH   1  23
TORSDOF 9
ENDMDL
