MODEL 1
REMARK VINA RESULT:     -10.0      0.000      0.000
REMARK  5 active torsions:
REMARK  status: ('A' for Active; 'I' for Inactive)
REMARK    1  A    between atoms: O_2  and  C_3 
REMARK    2  A    between atoms: C_6  and  N_7 
REMARK    3  A    between atoms: C_11  and  C_12 
REMARK    4  A    between atoms: C_12  and  N_13 
REMARK       I    between atoms: N_13  and  C_14 
REMARK    5  A    between atoms: C_14  and  C_15 
ROOT
HETATM    1  N   UNL     1      28.531  42.552  53.140  1.00  0.00    -0.360 N 
HETATM    2  C   UNL     1      28.071  43.360  54.164  1.00  0.00     0.230 C 
HETATM    3  O   UNL     1      27.097  43.059  54.855  1.00  0.00    -0.272 OA
HETATM    4  H   UNL     1      29.385  42.825  52.664  1.00  0.00     0.162 HD
ENDROOT
BRANCH   1   5
HETATM    5  C   UNL     1      27.985  41.236  52.895  1.00  0.00     0.129 C 
BRANCH   5   6
HETATM    6  C   UNL     1      27.199  41.153  51.593  1.00  0.00     0.031 C 
HETATM    7  C   UNL     1      28.107  41.191  50.372  1.00  0.00     0.111 C 
HETATM    8  C   UNL     1      27.249  41.824  49.304  1.00  0.00     0.224 C 
HETATM    9  N   UNL     1      26.182  42.477  49.937  1.00  0.00    -0.318 N 
HETATM   10  O   UNL     1      27.540  41.777  48.119  1.00  0.00    -0.273 OA
HETATM   11  C   UNL     1      26.267  42.332  51.373  1.00  0.00     0.139 C 
BRANCH   9  12
HETATM   12  C   UNL     1      25.188  43.278  49.307  1.00  0.00     0.037 A 
HETATM   13  C   UNL     1      24.308  42.755  48.352  1.00  0.00     0.032 A 
HETATM   14  C   UNL     1      23.319  43.548  47.750  1.00  0.00     0.039 A 
HETATM   15  C   UNL     1      23.185  44.888  48.096  1.00  0.00     0.068 A 
HETATM   16  C   UNL     1      24.064  45.430  49.031  1.00  0.00     0.039 A 
HETATM   17  C   UNL     1      25.051  44.636  49.631  1.00  0.00     0.032 A 
BRANCH  15  18
HETATM   18  O   UNL     1      22.262  45.761  47.596  1.00  0.00    -0.356 OA
HETATM   19  C   UNL     1      22.339  47.103  48.064  1.00  0.00     0.210 C 
ENDBRANCH  15  18
ENDBRANCH   9  12
ENDBRANCH   5   6
ENDBRANCH   1   5
BRANCH   2  20
HETATM   20  C   UNL     1      28.840  44.675  54.370  1.00  0.00     0.149 C 
HETATM   21  C   UNL     1      29.748  44.588  55.573  1.00  0.00    -0.007 A 
HETATM   22  C   UNL     1      29.520  45.399  56.687  1.00  0.00     0.083 A 
HETATM   23  C   UNL     1      30.826  43.687  55.595  1.00  0.00     0.011 A 
HETATM   24  C   UNL     1      30.347  45.310  57.808  1.00  0.00     0.038 A 
HETATM   25  O   UNL     1      28.498  46.315  56.761  1.00  0.00    -0.310 OA
HETATM   26  C   UNL     1      31.414  44.413  57.822  1.00  0.00     0.003 A 
HETATM   27  C   UNL     1      31.654  43.602  56.716  1.00  0.00     0.001 A 
HETATM   28  C   UNL     1      27.775  46.585  55.626  1.00  0.00     0.083 A 
HETATM   29  C   UNL     1      27.898  45.858  54.441  1.00  0.00    -0.007 A 
HETATM   30  C   UNL     1      26.867  47.643  55.714  1.00  0.00     0.038 A 
HETATM   31  C   UNL     1      27.110  46.214  53.334  1.00  0.00     0.011 A 
HETATM   32  C   UNL     1      26.206  47.274  53.423  1.00  0.00     0.001 A 
HETATM   33  C   UNL     1      26.083  47.987  54.614  1.00  0.00     0.003 A 
ENDBRANCH   2  20
TORSDOF 5
ENDMDL
MODEL 2
REMARK VINA RESULT:      -9.8      3.433      6.494
REMARK  5 active torsions:
REMARK  status: ('A' for Active; 'I' for Inactive)
REMARK    1  A    between atoms: O_2  and  C_3 
REMARK    2  A    between atoms: C_6  and  N_7 
REMARK    3  A    between atoms: C_11  and  C_12 
REMARK    4  A    between atoms: C_12  and  N_13 
REMARK       I    between atoms: N_13  and  C_14 
REMARK    5  A    between atoms: C_14  and  C_15 
ROOT
HETATM    1  N   UNL     1      26.206  46.231  51.273  1.00  0.00    -0.360 N 
HETATM    2  C   UNL     1      26.873  45.085  50.877  1.00  0.00     0.230 C 
HETATM    3  O   UNL     1      27.600  45.056  49.884  1.00  0.00    -0.272 OA
HETATM    4  H   UNL     1      25.687  46.203  52.145  1.00  0.00     0.162 HD
ENDROOT
BRANCH   1   5
HETATM    5  C   UNL     1      26.421  47.507  50.628  1.00  0.00     0.129 C 
BRANCH   5   6
HETATM    6  C   UNL     1      25.374  47.819  49.567  1.00  0.00     0.031 C 
HETATM    7  C   UNL     1      25.765  49.013  48.709  1.00  0.00     0.111 C 
HETATM    8  C   UNL     1      24.442  49.609  48.293  1.00  0.00     0.224 C 
HETATM    9  N   UNL     1      23.455  49.118  49.161  1.00  0.00    -0.318 N 
HETATM   10  O   UNL     1      24.346  50.417  47.383  1.00  0.00    -0.273 OA
HETATM   11  C   UNL     1      24.030  48.230  50.147  1.00  0.00     0.139 C 
BRANCH   9  12
HETATM   12  C   UNL     1      22.084  49.496  49.181  1.00  0.00     0.037 A 
HETATM   13  C   UNL     1      21.059  48.584  48.901  1.00  0.00     0.032 A 
HETATM   14  C   UNL     1      19.707  48.961  48.941  1.00  0.00     0.039 A 
HETATM   15  C   UNL     1      19.350  50.264  49.269  1.00  0.00     0.068 A 
HETATM   16  C   UNL     1      20.358  51.189  49.532  1.00  0.00     0.039 A 
HETATM   17  C   UNL     1      21.706  50.810  49.492  1.00  0.00     0.032 A 
BRANCH  15  18
HETATM   18  O   UNL     1      18.078  50.754  49.355  1.00  0.00    -0.356 OA
HETATM   19  C   UNL     1      17.949  52.123  49.721  1.00  0.00     0.210 C 
ENDBRANCH  15  18
ENDBRANCH   9  12
ENDBRANCH   5   6
ENDBRANCH   1   5
BRANCH   2  20
HETATM   20  C   UNL     1      26.627  43.839  51.744  1.00  0.00     0.149 C 
HETATM   21  C   UNL     1      27.795  43.585  52.668  1.00  0.00    -0.007 A 
HETATM   22  C   UNL     1      28.567  42.431  52.521  1.00  0.00     0.083 A 
HETATM   23  C   UNL     1      28.126  44.505  53.677  1.00  0.00     0.011 A 
HETATM   24  C   UNL     1      29.658  42.199  53.361  1.00  0.00     0.038 A 
HETATM   25  O   UNL     1      28.323  41.470  51.571  1.00  0.00    -0.310 OA
HETATM   26  C   UNL     1      29.981  43.117  54.361  1.00  0.00     0.003 A 
HETATM   27  C   UNL     1      29.214  44.269  54.518  1.00  0.00     0.001 A 
HETATM   28  C   UNL     1      27.159  41.543  50.847  1.00  0.00     0.083 A 
HETATM   29  C   UNL     1      26.289  42.634  50.892  1.00  0.00    -0.007 A 
HETATM   30  C   UNL     1      26.879  40.452  50.021  1.00  0.00     0.038 A 
HETATM   31  C   UNL     1      25.123  42.614  50.111  1.00  0.00     0.011 A 
HETATM   32  C   UNL     1      24.843  41.521  49.289  1.00  0.00     0.001 A 
HETATM   33  C   UNL     1      25.723  40.442  49.242  1.00  0.00     0.003 A 
ENDBRANCH   2  20
TORSDOF 5
ENDMDL
MODEL 3
REMARK VINA RESULT:      -9.7      4.015      7.255
REMARK  5 active torsions:
REMARK  status: ('A' for Active; 'I' for Inactive)
REMARK    1  A    between atoms: O_2  and  C_3 
REMARK    2  A    between atoms: C_6  and  N_7 
REMARK    3  A    between atoms: C_11  and  C_12 
REMARK    4  A    between atoms: C_12  and  N_13 
REMARK       I    between atoms: N_13  and  C_14 
REMARK    5  A    between atoms: C_14  and  C_15 
ROOT
HETATM    1  N   UNL     1      24.373  46.058  49.559  1.00  0.00    -0.360 N 
HETATM    2  C   UNL     1      24.656  45.116  50.532  1.00  0.00     0.230 C 
HETATM    3  O   UNL     1      23.779  44.443  51.072  1.00  0.00    -0.272 OA
HETATM    4  H   UNL     1      25.152  46.520  49.101  1.00  0.00     0.162 HD
ENDROOT
BRANCH   1   5
HETATM    5  C   UNL     1      23.045  46.224  49.013  1.00  0.00     0.129 C 
BRANCH   5   6
HETATM    6  C   UNL     1      22.763  47.651  48.560  1.00  0.00     0.031 C 
HETATM    7  C   UNL     1      23.691  48.657  49.226  1.00  0.00     0.111 C 
HETATM    8  C   UNL     1      22.871  49.923  49.280  1.00  0.00     0.224 C 
HETATM    9  N   UNL     1      21.524  49.575  49.105  1.00  0.00    -0.318 N 
HETATM   10  O   UNL     1      23.369  51.016  49.501  1.00  0.00    -0.273 OA
HETATM   11  C   UNL     1      21.378  48.145  48.943  1.00  0.00     0.139 C 
BRANCH   9  12
HETATM   12  C   UNL     1      20.407  50.452  49.180  1.00  0.00     0.037 A 
HETATM   13  C   UNL     1      20.324  51.616  48.405  1.00  0.00     0.032 A 
HETATM   14  C   UNL     1      19.210  52.468  48.471  1.00  0.00     0.039 A 
HETATM   15  C   UNL     1      18.146  52.168  49.314  1.00  0.00     0.068 A 
HETATM   16  C   UNL     1      18.219  51.024  50.106  1.00  0.00     0.039 A 
HETATM   17  C   UNL     1      19.333  50.175  50.038  1.00  0.00     0.032 A 
BRANCH  15  18
HETATM   18  O   UNL     1      17.004  52.902  49.463  1.00  0.00    -0.356 OA
HETATM   19  C   UNL     1      15.827  52.181  49.807  1.00  0.00     0.210 C 
ENDBRANCH  15  18
ENDBRANCH   9  12
ENDBRANCH   5   6
ENDBRANCH   1   5
BRANCH   2  20
HETATM   20  C   UNL     1      26.139  44.981  50.915  1.00  0.00     0.149 C 
HETATM   21  C   UNL     1      26.611  43.555  50.752  1.00  0.00    -0.007 A 
HETATM   22  C   UNL     1      27.011  42.816  51.867  1.00  0.00     0.083 A 
HETATM   23  C   UNL     1      26.646  42.951  49.484  1.00  0.00     0.011 A 
HETATM   24  C   UNL     1      27.432  41.493  51.724  1.00  0.00     0.038 A 
HETATM   25  O   UNL     1      27.019  43.317  53.146  1.00  0.00    -0.310 OA
HETATM   26  C   UNL     1      27.464  40.900  50.462  1.00  0.00     0.003 A 
HETATM   27  C   UNL     1      27.071  41.629  49.343  1.00  0.00     0.001 A 
HETATM   28  C   UNL     1      26.803  44.661  53.326  1.00  0.00     0.083 A 
HETATM   29  C   UNL     1      26.400  45.522  52.304  1.00  0.00    -0.007 A 
HETATM   30  C   UNL     1      26.992  45.145  54.623  1.00  0.00     0.038 A 
HETATM   31  C   UNL     1      26.204  46.882  52.592  1.00  0.00     0.011 A 
HETATM   32  C   UNL     1      26.396  47.364  53.887  1.00  0.00     0.001 A 
HETATM   33  C   UNL     1      26.789  46.495  54.903  1.00  0.00     0.003 A 
ENDBRANCH   2  20
TORSDOF 5
ENDMDL
MODEL 4
REMARK VINA RESULT:      -9.6      3.153      9.810
REMARK  5 active torsions:
REMARK  status: ('A' for Active; 'I' for Inactive)
REMARK    1  A    between atoms: O_2  and  C_3 
REMARK    2  A    between atoms: C_6  and  N_7 
REMARK    3  A    between atoms: C_11  and  C_12 
REMARK    4  A    between atoms: C_12  and  N_13 
REMARK       I    between atoms: N_13  and  C_14 
REMARK    5  A    between atoms: C_14  and  C_15 
ROOT
HETATM    1  N   UNL     1      23.309  48.219  49.155  1.00  0.00    -0.360 N 
HETATM    2  C   UNL     1      22.933  48.929  48.030  1.00  0.00     0.230 C 
HETATM    3  O   UNL     1      23.712  49.662  47.421  1.00  0.00    -0.272 OA
HETATM    4  H   UNL     1      22.638  47.574  49.560  1.00  0.00     0.162 HD
ENDROOT
BRANCH   1   5
HETATM    5  C   UNL     1      24.678  48.183  49.619  1.00  0.00     0.129 C 
BRANCH   5   6
HETATM    6  C   UNL     1      25.193  46.767  49.842  1.00  0.00     0.031 C 
HETATM    7  C   UNL     1      24.100  45.830  50.335  1.00  0.00     0.111 C 
HETATM    8  C   UNL     1      24.843  44.810  51.161  1.00  0.00     0.224 C 
HETATM    9  N   UNL     1      26.100  45.344  51.481  1.00  0.00    -0.318 N 
HETATM   10  O   UNL     1      24.341  43.748  51.497  1.00  0.00    -0.273 OA
HETATM   11  C   UNL     1      26.251  46.672  50.929  1.00  0.00     0.139 C 
BRANCH   9  12
HETATM   12  C   UNL     1      27.081  44.751  52.323  1.00  0.00     0.037 A 
HETATM   13  C   UNL     1      27.994  43.803  51.844  1.00  0.00     0.032 A 
HETATM   14  C   UNL     1      28.971  43.236  52.677  1.00  0.00     0.039 A 
HETATM   15  C   UNL     1      29.060  43.611  54.013  1.00  0.00     0.068 A 
HETATM   16  C   UNL     1      28.148  44.539  54.511  1.00  0.00     0.039 A 
HETATM   17  C   UNL     1      27.174  45.104  53.677  1.00  0.00     0.032 A 
BRANCH  15  18
HETATM   18  O   UNL     1      29.968  43.147  54.922  1.00  0.00    -0.356 OA
HETATM   19  C   UNL     1      30.571  44.118  55.768  1.00  0.00     0.210 C 
ENDBRANCH  15  18
ENDBRANCH   9  12
ENDBRANCH   5   6
ENDBRANCH   1   5
BRANCH   2  20
HETATM   20  C   UNL     1      21.466  48.762  47.599  1.00  0.00     0.149 C 
HETATM   21  C   UNL     1      20.555  49.628  48.436  1.00  0.00    -0.007 A 
HETATM   22  C   UNL     1      19.610  49.042  49.280  1.00  0.00     0.083 A 
HETATM   23  C   UNL     1      20.651  51.029  48.386  1.00  0.00     0.011 A 
HETATM   24  C   UNL     1      18.777  49.838  50.069  1.00  0.00     0.038 A 
HETATM   25  O   UNL     1      19.434  47.685  49.396  1.00  0.00    -0.310 OA
HETATM   26  C   UNL     1      18.878  51.228  50.014  1.00  0.00     0.003 A 
HETATM   27  C   UNL     1      19.815  51.823  49.173  1.00  0.00     0.001 A 
HETATM   28  C   UNL     1      20.083  46.861  48.511  1.00  0.00     0.083 A 
HETATM   29  C   UNL     1      21.051  47.306  47.610  1.00  0.00    -0.007 A 
HETATM   30  C   UNL     1      19.736  45.509  48.563  1.00  0.00     0.038 A 
HETATM   31  C   UNL     1      21.659  46.382  46.745  1.00  0.00     0.011 A 
HETATM   32  C   UNL     1      21.309  45.032  46.796  1.00  0.00     0.001 A 
HETATM   33  C   UNL     1      20.349  44.595  47.706  1.00  0.00     0.003 A 
ENDBRANCH   2  20
TORSDOF 5
ENDMDL
MODEL 5
REMARK VINA RESULT:      -9.5      3.281     10.219
REMARK  5 active torsions:
REMARK  status: ('A' for Active; 'I' for Inactive)
REMARK    1  A    between atoms: O_2  and  C_3 
REMARK    2  A    between atoms: C_6  and  N_7 
REMARK    3  A    between atoms: C_11  and  C_12 
REMARK    4  A    between atoms: C_12  and  N_13 
REMARK       I    between atoms: N_13  and  C_14 
REMARK    5  A    between atoms: C_14  and  C_15 
ROOT
HETATM    1  N   UNL     1      23.229  48.101  49.675  1.00  0.00    -0.360 N 
HETATM    2  C   UNL     1      22.399  48.451  48.625  1.00  0.00     0.230 C 
HETATM    3  O   UNL     1      22.833  48.878  47.556  1.00  0.00    -0.272 OA
HETATM    4  H   UNL     1      22.807  47.683  50.498  1.00  0.00     0.162 HD
ENDROOT
BRANCH   1   5
HETATM    5  C   UNL     1      24.669  48.086  49.544  1.00  0.00     0.129 C 
BRANCH   5   6
HETATM    6  C   UNL     1      25.311  46.865  50.191  1.00  0.00     0.031 C 
HETATM    7  C   UNL     1      24.274  45.888  50.726  1.00  0.00     0.111 C 
HETATM    8  C   UNL     1      24.972  45.221  51.886  1.00  0.00     0.224 C 
HETATM    9  N   UNL     1      26.063  46.022  52.254  1.00  0.00    -0.318 N 
HETATM   10  O   UNL     1      24.556  44.192  52.395  1.00  0.00    -0.273 OA
HETATM   11  C   UNL     1      26.144  47.199  51.417  1.00  0.00     0.139 C 
BRANCH   9  12
HETATM   12  C   UNL     1      26.934  45.810  53.359  1.00  0.00     0.037 A 
HETATM   13  C   UNL     1      27.762  44.684  53.445  1.00  0.00     0.032 A 
HETATM   14  C   UNL     1      28.632  44.491  54.530  1.00  0.00     0.039 A 
HETATM   15  C   UNL     1      28.695  45.428  55.556  1.00  0.00     0.068 A 
HETATM   16  C   UNL     1      27.864  46.545  55.495  1.00  0.00     0.039 A 
HETATM   17  C   UNL     1      26.997  46.735  54.411  1.00  0.00     0.032 A 
BRANCH  15  18
HETATM   18  O   UNL     1      29.502  45.366  56.655  1.00  0.00    -0.356 OA
HETATM   19  C   UNL     1      29.095  46.129  57.785  1.00  0.00     0.210 C 
ENDBRANCH  15  18
ENDBRANCH   9  12
ENDBRANCH   5   6
ENDBRANCH   1   5
BRANCH   2  20
HETATM   20  C   UNL     1      20.892  48.295  48.889  1.00  0.00     0.149 C 
HETATM   21  C   UNL     1      20.324  47.134  48.108  1.00  0.00    -0.007 A 
HETATM   22  C   UNL     1      19.381  47.358  47.103  1.00  0.00     0.083 A 
HETATM   23  C   UNL     1      20.740  45.818  48.372  1.00  0.00     0.011 A 
HETATM   24  C   UNL     1      18.865  46.290  46.366  1.00  0.00     0.038 A 
HETATM   25  O   UNL     1      18.907  48.604  46.772  1.00  0.00    -0.310 OA
HETATM   26  C   UNL     1      19.283  44.987  46.635  1.00  0.00     0.003 A 
HETATM   27  C   UNL     1      20.220  44.752  47.638  1.00  0.00     0.001 A 
HETATM   28  C   UNL     1      19.227  49.665  47.582  1.00  0.00     0.083 A 
HETATM   29  C   UNL     1      20.151  49.588  48.625  1.00  0.00    -0.007 A 
HETATM   30  C   UNL     1      18.581  50.871  47.300  1.00  0.00     0.038 A 
HETATM   31  C   UNL     1      20.410  50.733  49.397  1.00  0.00     0.011 A 
HETATM   32  C   UNL     1      19.761  51.936  49.115  1.00  0.00     0.001 A 
HETATM   33  C   UNL     1      18.848  52.005  48.065  1.00  0.00     0.003 A 
ENDBRANCH   2  20
TORSDOF 5
ENDMDL
MODEL 6
REMARK VINA RESULT:      -9.3      2.835      4.657
REMARK  5 active torsions:
REMARK  status: ('A' for Active; 'I' for Inactive)
REMARK    1  A    between atoms: O_2  and  C_3 
REMARK    2  A    between atoms: C_6  and  N_7 
REMARK    3  A    between atoms: C_11  and  C_12 
REMARK    4  A    between atoms: C_12  and  N_13 
REMARK       I    between atoms: N_13  and  C_14 
REMARK    5  A    between atoms: C_14  and  C_15 
ROOT
HETATM    1  N   UNL     1      28.304  42.879  52.965  1.00  0.00    -0.360 N 
HETATM    2  C   UNL     1      27.974  43.553  54.127  1.00  0.00     0.230 C 
HETATM    3  O   UNL     1      27.092  43.160  54.890  1.00  0.00    -0.272 OA
HETATM    4  H   UNL     1      29.093  43.218  52.425  1.00  0.00     0.162 HD
ENDROOT
BRANCH   1   5
HETATM    5  C   UNL     1      27.729  41.595  52.632  1.00  0.00     0.129 C 
BRANCH   5   6
HETATM    6  C   UNL     1      27.507  41.414  51.136  1.00  0.00     0.031 C 
HETATM    7  C   UNL     1      26.040  41.553  50.754  1.00  0.00     0.111 C 
HETATM    8  C   UNL     1      25.899  40.673  49.536  1.00  0.00     0.224 C 
HETATM    9  N   UNL     1      26.995  39.798  49.505  1.00  0.00    -0.318 N 
HETATM   10  O   UNL     1      24.935  40.738  48.790  1.00  0.00    -0.273 OA
HETATM   11  C   UNL     1      27.869  40.026  50.635  1.00  0.00     0.139 C 
BRANCH   9  12
HETATM   12  C   UNL     1      27.207  38.741  48.577  1.00  0.00     0.037 A 
HETATM   13  C   UNL     1      27.956  38.920  47.407  1.00  0.00     0.032 A 
HETATM   14  C   UNL     1      28.176  37.867  46.505  1.00  0.00     0.039 A 
HETATM   15  C   UNL     1      27.653  36.604  46.758  1.00  0.00     0.068 A 
HETATM   16  C   UNL     1      26.889  36.413  47.908  1.00  0.00     0.039 A 
HETATM   17  C   UNL     1      26.671  37.466  48.807  1.00  0.00     0.032 A 
BRANCH  15  18
HETATM   18  O   UNL     1      27.802  35.497  45.973  1.00  0.00    -0.356 OA
HETATM   19  C   UNL     1      28.076  35.729  44.596  1.00  0.00     0.210 C 
ENDBRANCH  15  18
ENDBRANCH   9  12
ENDBRANCH   5   6
ENDBRANCH   1   5
BRANCH   2  20
HETATM   20  C   UNL     1      28.765  44.845  54.394  1.00  0.00     0.149 C 
HETATM   21  C   UNL     1      29.681  44.681  55.583  1.00  0.00    -0.007 A 
HETATM   22  C   UNL     1      29.474  45.438  56.739  1.00  0.00     0.083 A 
HETATM   23  C   UNL     1      30.746  43.764  55.549  1.00  0.00     0.011 A 
HETATM   24  C   UNL     1      30.308  45.278  57.847  1.00  0.00     0.038 A 
HETATM   25  O   UNL     1      28.467  46.363  56.869  1.00  0.00    -0.310 OA
HETATM   26  C   UNL     1      31.362  44.365  57.806  1.00  0.00     0.003 A 
HETATM   27  C   UNL     1      31.580  43.609  56.657  1.00  0.00     0.001 A 
HETATM   28  C   UNL     1      27.739  46.703  55.756  1.00  0.00     0.083 A 
HETATM   29  C   UNL     1      27.842  46.036  54.534  1.00  0.00    -0.007 A 
HETATM   30  C   UNL     1      26.849  47.768  55.906  1.00  0.00     0.038 A 
HETATM   31  C   UNL     1      27.051  46.461  53.454  1.00  0.00     0.011 A 
HETATM   32  C   UNL     1      26.164  47.527  53.605  1.00  0.00     0.001 A 
HETATM   33  C   UNL     1      26.062  48.180  54.832  1.00  0.00     0.003 A 
ENDBRANCH   2  20
TORSDOF 5
ENDMDL
MODEL 7
REMARK VINA RESULT:      -9.1      3.723      7.191
REMARK  5 active torsions:
REMARK  status: ('A' for Active; 'I' for Inactive)
REMARK    1  A    between atoms: O_2  and  C_3 
REMARK    2  A    between atoms: C_6  and  N_7 
REMARK    3  A    between atoms: C_11  and  C_12 
REMARK    4  A    between atoms: C_12  and  N_13 
REMARK       I    between atoms: N_13  and  C_14 
REMARK    5  A    between atoms: C_14  and  C_15 
ROOT
HETATM    1  N   UNL     1      24.651  47.770  50.095  1.00  0.00    -0.360 N 
HETATM    2  C   UNL     1      25.561  46.761  50.353  1.00  0.00     0.230 C 
HETATM    3  O   UNL     1      26.592  46.619  49.696  1.00  0.00    -0.272 OA
HETATM    4  H   UNL     1      23.863  47.875  50.725  1.00  0.00     0.162 HD
ENDROOT
BRANCH   1   5
HETATM    5  C   UNL     1      24.911  48.809  49.123  1.00  0.00     0.129 C 
BRANCH   5   6
HETATM    6  C   UNL     1      23.656  49.258  48.385  1.00  0.00     0.031 C 
HETATM    7  C   UNL     1      23.236  50.668  48.773  1.00  0.00     0.111 C 
HETATM    8  C   UNL     1      21.739  50.662  48.589  1.00  0.00     0.224 C 
HETATM    9  N   UNL     1      21.312  49.326  48.556  1.00  0.00    -0.318 N 
HETATM   10  O   UNL     1      21.081  51.690  48.544  1.00  0.00    -0.273 OA
HETATM   11  C   UNL     1      22.430  48.423  48.715  1.00  0.00     0.139 C 
BRANCH   9  12
HETATM   12  C   UNL     1      19.965  48.870  48.490  1.00  0.00     0.037 A 
HETATM   13  C   UNL     1      19.255  48.486  49.634  1.00  0.00     0.032 A 
HETATM   14  C   UNL     1      17.921  48.054  49.562  1.00  0.00     0.039 A 
HETATM   15  C   UNL     1      17.264  48.004  48.337  1.00  0.00     0.068 A 
HETATM   16  C   UNL     1      17.961  48.365  47.187  1.00  0.00     0.039 A 
HETATM   17  C   UNL     1      19.293  48.796  47.262  1.00  0.00     0.032 A 
BRANCH  15  18
HETATM   18  O   UNL     1      15.971  47.617  48.133  1.00  0.00    -0.356 OA
HETATM   19  C   UNL     1      15.205  48.412  47.235  1.00  0.00     0.210 C 
ENDBRANCH  15  18
ENDBRANCH   9  12
ENDBRANCH   5   6
ENDBRANCH   1   5
BRANCH   2  20
HETATM   20  C   UNL     1      25.189  45.809  51.502  1.00  0.00     0.149 C 
HETATM   21  C   UNL     1      26.063  46.051  52.710  1.00  0.00    -0.007 A 
HETATM   22  C   UNL     1      26.944  45.061  53.150  1.00  0.00     0.083 A 
HETATM   23  C   UNL     1      26.010  47.274  53.400  1.00  0.00     0.011 A 
HETATM   24  C   UNL     1      27.766  45.287  54.256  1.00  0.00     0.038 A 
HETATM   25  O   UNL     1      27.066  43.833  52.548  1.00  0.00    -0.310 OA
HETATM   26  C   UNL     1      27.708  46.504  54.935  1.00  0.00     0.003 A 
HETATM   27  C   UNL     1      26.830  47.496  54.507  1.00  0.00     0.001 A 
HETATM   28  C   UNL     1      26.155  43.481  51.583  1.00  0.00     0.083 A 
HETATM   29  C   UNL     1      25.216  44.364  51.049  1.00  0.00    -0.007 A 
HETATM   30  C   UNL     1      26.220  42.161  51.130  1.00  0.00     0.038 A 
HETATM   31  C   UNL     1      24.327  43.906  50.064  1.00  0.00     0.011 A 
HETATM   32  C   UNL     1      24.391  42.586  49.614  1.00  0.00     0.001 A 
HETATM   33  C   UNL     1      25.340  41.715  50.146  1.00  0.00     0.003 A 
ENDBRANCH   2  20
TORSDOF 5
ENDMDL
MODEL 8
REMARK VINA RESULT:      -9.1      3.124      6.192
REMARK  5 active torsions:
REMARK  status: ('A' for Active; 'I' for Inactive)
REMARK    1  A    between atoms: O_2  and  C_3 
REMARK    2  A    between atoms: C_6  and  N_7 
REMARK    3  A    between atoms: C_11  and  C_12 
REMARK    4  A    between atoms: C_12  and  N_13 
REMARK       I    between atoms: N_13  and  C_14 
REMARK    5  A    between atoms: C_14  and  C_15 
ROOT
HETATM    1  N   UNL     1      24.984  44.840  50.494  1.00  0.00    -0.360 N 
HETATM    2  C   UNL     1      26.249  44.916  51.047  1.00  0.00     0.230 C 
HETATM    3  O   UNL     1      27.219  45.341  50.420  1.00  0.00    -0.272 OA
HETATM    4  H   UNL     1      24.217  44.553  51.094  1.00  0.00     0.162 HD
ENDROOT
BRANCH   1   5
HETATM    5  C   UNL     1      24.683  45.379  49.186  1.00  0.00     0.129 C 
BRANCH   5   6
HETATM    6  C   UNL     1      23.234  45.827  49.048  1.00  0.00     0.031 C 
HETATM    7  C   UNL     1      22.729  45.703  47.618  1.00  0.00     0.111 C 
HETATM    8  C   UNL     1      21.687  46.789  47.507  1.00  0.00     0.224 C 
HETATM    9  N   UNL     1      21.895  47.697  48.555  1.00  0.00    -0.318 N 
HETATM   10  O   UNL     1      20.875  46.825  46.596  1.00  0.00    -0.273 OA
HETATM   11  C   UNL     1      23.023  47.298  49.368  1.00  0.00     0.139 C 
BRANCH   9  12
HETATM   12  C   UNL     1      21.194  48.917  48.769  1.00  0.00     0.037 A 
HETATM   13  C   UNL     1      21.635  50.131  48.229  1.00  0.00     0.032 A 
HETATM   14  C   UNL     1      20.927  51.326  48.430  1.00  0.00     0.039 A 
HETATM   15  C   UNL     1      19.753  51.332  49.175  1.00  0.00     0.068 A 
HETATM   16  C   UNL     1      19.309  50.136  49.735  1.00  0.00     0.039 A 
HETATM   17  C   UNL     1      20.018  48.943  49.533  1.00  0.00     0.032 A 
BRANCH  15  18
HETATM   18  O   UNL     1      18.967  52.418  49.433  1.00  0.00    -0.356 OA
HETATM   19  C   UNL     1      17.585  52.163  49.656  1.00  0.00     0.210 C 
ENDBRANCH  15  18
ENDBRANCH   9  12
ENDBRANCH   5   6
ENDBRANCH   1   5
BRANCH   2  20
HETATM   20  C   UNL     1      26.374  44.409  52.494  1.00  0.00     0.149 C 
HETATM   21  C   UNL     1      26.717  45.539  53.435  1.00  0.00    -0.007 A 
HETATM   22  C   UNL     1      27.941  45.547  54.107  1.00  0.00     0.083 A 
HETATM   23  C   UNL     1      25.819  46.600  53.640  1.00  0.00     0.011 A 
HETATM   24  C   UNL     1      28.270  46.599  54.965  1.00  0.00     0.038 A 
HETATM   25  O   UNL     1      28.883  44.556  53.978  1.00  0.00    -0.310 OA
HETATM   26  C   UNL     1      27.373  47.648  55.164  1.00  0.00     0.003 A 
HETATM   27  C   UNL     1      26.148  47.648  54.501  1.00  0.00     0.001 A 
HETATM   28  C   UNL     1      28.542  43.409  53.305  1.00  0.00     0.083 A 
HETATM   29  C   UNL     1      27.353  43.258  52.591  1.00  0.00    -0.007 A 
HETATM   30  C   UNL     1      29.473  42.369  53.353  1.00  0.00     0.038 A 
HETATM   31  C   UNL     1      27.097  42.043  51.935  1.00  0.00     0.011 A 
HETATM   32  C   UNL     1      28.027  41.004  51.986  1.00  0.00     0.001 A 
HETATM   33  C   UNL     1      29.217  41.168  52.693  1.00  0.00     0.003 A 
ENDBRANCH   2  20
TORSDOF 5
ENDMDL
MODEL 9
REMARK VINA RESULT:      -9.0      1.955      2.433
REMARK  5 active torsions:
REMARK  status: ('A' for Active; 'I' for Inactive)
REMARK    1  A    between atoms: O_2  and  C_3 
REMARK    2  A    between atoms: C_6  and  N_7 
REMARK    3  A    between atoms: C_11  and  C_12 
REMARK    4  A    between atoms: C_12  and  N_13 
REMARK       I    between atoms: N_13  and  C_14 
REMARK    5  A    between atoms: C_14  and  C_15 
ROOT
HETATM    1  N   UNL     1      28.906  41.585  51.935  1.00  0.00    -0.360 N 
HETATM    2  C   UNL     1      28.396  42.288  53.011  1.00  0.00     0.230 C 
HETATM    3  O   UNL     1      27.654  41.771  53.846  1.00  0.00    -0.272 OA
HETATM    4  H   UNL     1      29.573  42.054  51.331  1.00  0.00     0.162 HD
ENDROOT
BRANCH   1   5
HETATM    5  C   UNL     1      28.712  40.159  51.787  1.00  0.00     0.129 C 
BRANCH   5   6
HETATM    6  C   UNL     1      27.990  39.789  50.498  1.00  0.00     0.031 C 
HETATM    7  C   UNL     1      28.704  40.327  49.267  1.00  0.00     0.111 C 
HETATM    8  C   UNL     1      27.593  40.538  48.268  1.00  0.00     0.224 C 
HETATM    9  N   UNL     1      26.379  40.565  48.970  1.00  0.00    -0.318 N 
HETATM   10  O   UNL     1      27.806  40.705  47.077  1.00  0.00    -0.273 OA
HETATM   11  C   UNL     1      26.600  40.394  50.389  1.00  0.00     0.139 C 
BRANCH   9  12
HETATM   12  C   UNL     1      25.092  40.833  48.424  1.00  0.00     0.037 A 
HETATM   13  C   UNL     1      24.539  40.045  47.407  1.00  0.00     0.032 A 
HETATM   14  C   UNL     1      23.262  40.305  46.887  1.00  0.00     0.039 A 
HETATM   15  C   UNL     1      22.503  41.361  47.380  1.00  0.00     0.068 A 
HETATM   16  C   UNL     1      23.045  42.166  48.380  1.00  0.00     0.039 A 
HETATM   17  C   UNL     1      24.321  41.904  48.897  1.00  0.00     0.032 A 
BRANCH  15  18
HETATM   18  O   UNL     1      21.248  41.711  46.972  1.00  0.00    -0.356 OA
HETATM   19  C   UNL     1      21.140  42.908  46.210  1.00  0.00     0.210 C 
ENDBRANCH  15  18
ENDBRANCH   9  12
ENDBRANCH   5   6
ENDBRANCH   1   5
BRANCH   2  20
HETATM   20  C   UNL     1      28.797  43.771  53.086  1.00  0.00     0.149 C 
HETATM   21  C   UNL     1      29.424  44.095  54.421  1.00  0.00    -0.007 A 
HETATM   22  C   UNL     1      28.792  44.978  55.299  1.00  0.00     0.083 A 
HETATM   23  C   UNL     1      30.643  43.509  54.803  1.00  0.00     0.011 A 
HETATM   24  C   UNL     1      29.359  45.267  56.541  1.00  0.00     0.038 A 
HETATM   25  O   UNL     1      27.603  45.605  55.017  1.00  0.00    -0.310 OA
HETATM   26  C   UNL     1      30.569  44.681  56.913  1.00  0.00     0.003 A 
HETATM   27  C   UNL     1      31.211  43.803  56.043  1.00  0.00     0.001 A 
HETATM   28  C   UNL     1      27.097  45.513  53.745  1.00  0.00     0.083 A 
HETATM   29  C   UNL     1      27.626  44.674  52.763  1.00  0.00    -0.007 A 
HETATM   30  C   UNL     1      25.982  46.308  53.468  1.00  0.00     0.038 A 
HETATM   31  C   UNL     1      27.034  44.652  51.489  1.00  0.00     0.011 A 
HETATM   32  C   UNL     1      25.922  45.449  51.214  1.00  0.00     0.001 A 
HETATM   33  C   UNL     1      25.395  46.276  52.204  1.00  0.00     0.003 A 
ENDBRANCH   2  20
TORSDOF 5
ENDMDL
MODEL 10
REMARK VINA RESULT:      -8.8      2.303      4.145
REMARK  5 active torsions:
REMARK  status: ('A' for Active; 'I' for Inactive)
REMARK    1  A    between atoms: O_2  and  C_3 
REMARK    2  A    between atoms: C_6  and  N_7 
REMARK    3  A    between atoms: C_11  and  C_12 
REMARK    4  A    between atoms: C_12  and  N_13 
REMARK       I    between atoms: N_13  and  C_14 
REMARK    5  A    between atoms: C_14  and  C_15 
ROOT
HETATM    1  N   UNL     1      25.595  42.698  50.631  1.00  0.00    -0.360 N 
HETATM    2  C   UNL     1      26.936  42.800  50.305  1.00  0.00     0.230 C 
HETATM    3  O   UNL     1      27.516  41.955  49.624  1.00  0.00    -0.272 OA
HETATM    4  H   UNL     1      25.165  43.470  51.129  1.00  0.00     0.162 HD
ENDROOT
BRANCH   1   5
HETATM    5  C   UNL     1      24.749  41.660  50.084  1.00  0.00     0.129 C 
BRANCH   5   6
HETATM    6  C   UNL     1      23.642  42.207  49.191  1.00  0.00     0.031 C 
HETATM    7  C   UNL     1      24.145  42.538  47.793  1.00  0.00     0.111 C 
HETATM    8  C   UNL     1      23.245  43.662  47.343  1.00  0.00     0.224 C 
HETATM    9  N   UNL     1      22.632  44.209  48.480  1.00  0.00    -0.318 N 
HETATM   10  O   UNL     1      23.167  44.010  46.175  1.00  0.00    -0.273 OA
HETATM   11  C   UNL     1      23.069  43.527  49.679  1.00  0.00     0.139 C 
BRANCH   9  12
HETATM   12  C   UNL     1      21.779  45.347  48.517  1.00  0.00     0.037 A 
HETATM   13  C   UNL     1      20.391  45.229  48.657  1.00  0.00     0.032 A 
HETATM   14  C   UNL     1      19.558  46.358  48.711  1.00  0.00     0.039 A 
HETATM   15  C   UNL     1      20.100  47.636  48.631  1.00  0.00     0.068 A 
HETATM   16  C   UNL     1      21.478  47.771  48.473  1.00  0.00     0.039 A 
HETATM   17  C   UNL     1      22.307  46.642  48.419  1.00  0.00     0.032 A 
BRANCH  15  18
HETATM   18  O   UNL     1      19.406  48.811  48.682  1.00  0.00    -0.356 OA
HETATM   19  C   UNL     1      19.684  49.664  49.786  1.00  0.00     0.210 C 
ENDBRANCH  15  18
ENDBRANCH   9  12
ENDBRANCH   5   6
ENDBRANCH   1   5
BRANCH   2  20
HETATM   20  C   UNL     1      27.665  44.030  50.870  1.00  0.00     0.149 C 
HETATM   21  C   UNL     1      28.270  43.727  52.221  1.00  0.00    -0.007 A 
HETATM   22  C   UNL     1      27.808  44.387  53.361  1.00  0.00     0.083 A 
HETATM   23  C   UNL     1      29.294  42.774  52.351  1.00  0.00     0.011 A 
HETATM   24  C   UNL     1      28.353  44.097  54.614  1.00  0.00     0.038 A 
HETATM   25  O   UNL     1      26.817  45.337  53.339  1.00  0.00    -0.310 OA
HETATM   26  C   UNL     1      29.369  43.150  54.735  1.00  0.00     0.003 A 
HETATM   27  C   UNL     1      29.839  42.489  53.603  1.00  0.00     0.001 A 
HETATM   28  C   UNL     1      26.380  45.802  52.123  1.00  0.00     0.083 A 
HETATM   29  C   UNL     1      26.757  45.241  50.902  1.00  0.00    -0.007 A 
HETATM   30  C   UNL     1      25.500  46.885  52.161  1.00  0.00     0.038 A 
HETATM   31  C   UNL     1      26.254  45.790  49.712  1.00  0.00     0.011 A 
HETATM   32  C   UNL     1      25.376  46.875  49.751  1.00  0.00     0.001 A 
HETATM   33  C   UNL     1      24.998  47.421  50.976  1.00  0.00     0.003 A 
ENDBRANCH   2  20
TORSDOF 5
ENDMDL
