MODEL 1
REMARK VINA RESULT:      -8.3      0.000      0.000
REMARK  10 active torsions:
REMARK  status: ('A' for Active; 'I' for Inactive)
REMARK    1  A    between atoms: C_1  and  C_17 
REMARK    2  A    between atoms: C_4  and  C_5 
REMARK    3  A    between atoms: C_5  and  O_18 
REMARK    4  A    between atoms: C_6  and  C_11 
REMARK    5  A    between atoms: C_6  and  C_14 
REMARK    6  A    between atoms: C_6  and  N_15 
REMARK    7  A    between atoms: C_8  and  O_20 
REMARK    8  A    between atoms: C_11  and  O_34 
REMARK    9  A    between atoms: C_13  and  C_14 
REMARK       I    between atoms: N_15  and  C_16 
REMARK   10  A    between atoms: C_16  and  C_17 
ROOT
HETATM    1  C           1      26.465  44.451  51.899  0.00  0.00     0.056 C 
HETATM    2  C           1      26.380  45.126  53.313  0.00  0.00    -0.030 C 
HETATM    3  C           1      25.441  44.282  54.204  0.00  0.00     0.016 C 
HETATM    4  C           1      28.107  46.240  55.065  0.00  0.00     0.008 C 
HETATM    5  C           1      27.828  45.233  53.896  0.00  0.00     0.012 C 
HETATM    6  C           1      27.415  47.580  54.743  0.00  0.00     0.128 C 
HETATM    7  C           1      25.788  46.547  53.144  0.00  0.00     0.013 C 
HETATM    8  C           1      28.258  40.258  50.677  0.00  0.00     0.017 A 
HETATM    9  C           1      29.636  46.514  55.129  0.00  0.00     0.020 C 
HETATM   10  C           1      25.942  47.429  54.384  0.00  0.00     0.033 C 
HETATM   11  C           1      28.448  43.835  54.116  0.00  0.00     0.054 C 
HETATM   12  C           1      28.191  42.935  52.942  0.00  0.00     0.010 A 
HETATM   13  C           1      27.314  43.209  51.973  0.00  0.00     0.054 A 
HETATM   14  N           1      27.271  42.284  51.118  0.00  0.00    -0.244 NA
HETATM   15  C           1      28.089  41.368  51.433  0.00  0.00     0.110 A 
HETATM   16  C           1      27.572  40.087  49.526  0.00  0.00     0.130 A 
HETATM   17  N           1      27.649  39.089  48.750  0.00  0.00    -0.272 NA
HETATM   18  C           1      28.442  38.157  49.066  0.00  0.00     0.116 A 
HETATM   19  C           1      29.194  38.183  50.174  0.00  0.00     0.020 A 
HETATM   20  C           1      29.099  39.248  50.985  0.00  0.00     0.017 A 
HETATM   21  S           1      28.811  41.632  52.690  0.00  0.00    -0.072 SA
ENDROOT
BRANCH   1  22
HETATM   22  C           1      25.110  44.163  51.214  0.00  0.00     0.114 C 
BRANCH  22  23
HETATM   23  C           1      24.813  44.948  49.942  0.00  0.00     0.218 C 
HETATM   24  N           1      23.995  46.026  50.147  0.00  0.00    -0.354 N 
HETATM   25  H           1      23.625  46.165  51.088  0.00  0.00     0.162 HD
HETATM   26  O           1      25.267  44.654  48.864  0.00  0.00    -0.274 OA
BRANCH  24  27
HETATM   27  C           1      23.515  46.917  49.082  0.00  0.00     0.108 C 
BRANCH  27  28
HETATM   28  C           1      22.121  46.549  48.565  0.00  0.00     0.189 C 
BRANCH  28  29
HETATM   29  O           1      21.161  47.433  49.107  0.00  0.00    -0.399 OA
HETATM   30  H           1      20.328  47.325  48.641  0.00  0.00     0.209 HD
ENDBRANCH  28  29
ENDBRANCH  27  28
BRANCH  27  31
HETATM   31  C           1      23.614  48.401  49.481  0.00  0.00     0.031 C 
BRANCH  31  32
HETATM   32  C           1      24.011  49.402  48.374  0.00  0.00    -0.021 C 
HETATM   33  C           1      25.506  49.761  48.429  0.00  0.00     0.009 C 
HETATM   34  C           1      23.160  50.681  48.342  0.00  0.00     0.009 C 
ENDBRANCH  31  32
ENDBRANCH  27  31
ENDBRANCH  24  27
ENDBRANCH  22  23
ENDBRANCH   1  22
BRANCH   4  35
HETATM   35  C           1      27.680  45.720  56.453  0.00  0.00     0.176 C 
BRANCH  35  36
HETATM   36  O           1      28.521  46.213  57.480  0.00  0.00    -0.400 OA
HETATM   37  H           1      28.861  47.076  57.239  0.00  0.00     0.209 HD
ENDBRANCH  35  36
ENDBRANCH   4  35
BRANCH   6  38
HETATM   38  O           1      27.511  48.476  55.825  0.00  0.00    -0.395 OA
HETATM   39  H           1      27.739  48.001  56.625  0.00  0.00     0.210 HD
ENDBRANCH   6  38
TORSDOF 10
ENDMDL
MODEL 2
REMARK VINA RESULT:      -8.3      2.897      7.225
REMARK  10 active torsions:
REMARK  status: ('A' for Active; 'I' for Inactive)
REMARK    1  A    between atoms: C_1  and  C_17 
REMARK    2  A    between atoms: C_4  and  C_5 
REMARK    3  A    between atoms: C_5  and  O_18 
REMARK    4  A    between atoms: C_6  and  C_11 
REMARK    5  A    between atoms: C_6  and  C_14 
REMARK    6  A    between atoms: C_6  and  N_15 
REMARK    7  A    between atoms: C_8  and  O_20 
REMARK    8  A    between atoms: C_11  and  O_34 
REMARK    9  A    between atoms: C_13  and  C_14 
REMARK       I    between atoms: N_15  and  C_16 
REMARK   10  A    between atoms: C_16  and  C_17 
ROOT
HETATM    1  C           1      26.447  41.572  49.624  0.00  0.00     0.056 C 
HETATM    2  C           1      26.806  40.520  48.515  0.00  0.00    -0.030 C 
HETATM    3  C           1      28.022  41.042  47.719  0.00  0.00     0.016 C 
HETATM    4  C           1      27.031  37.834  48.354  0.00  0.00     0.008 C 
HETATM    5  C           1      27.085  39.147  49.210  0.00  0.00     0.012 C 
HETATM    6  C           1      25.785  37.883  47.446  0.00  0.00     0.128 C 
HETATM    7  C           1      25.592  40.378  47.564  0.00  0.00     0.013 C 
HETATM    8  C           1      28.953  42.938  53.385  0.00  0.00     0.017 A 
HETATM    9  C           1      26.855  36.623  49.313  0.00  0.00     0.020 C 
HETATM   10  C           1      25.679  39.167  46.633  0.00  0.00     0.033 C 
HETATM   11  C           1      28.313  39.231  50.144  0.00  0.00     0.054 C 
HETATM   12  C           1      28.281  40.482  50.972  0.00  0.00     0.010 A 
HETATM   13  C           1      27.462  41.510  50.736  0.00  0.00     0.054 A 
HETATM   14  N           1      27.648  42.445  51.560  0.00  0.00    -0.244 NA
HETATM   15  C           1      28.559  42.121  52.381  0.00  0.00     0.110 A 
HETATM   16  C           1      28.366  44.140  53.576  0.00  0.00     0.130 A 
HETATM   17  N           1      28.659  44.981  54.476  0.00  0.00    -0.272 NA
HETATM   18  C           1      29.583  44.681  55.285  0.00  0.00     0.116 A 
HETATM   19  C           1      30.255  43.523  55.228  0.00  0.00     0.020 A 
HETATM   20  C           1      29.931  42.645  54.266  0.00  0.00     0.017 A 
HETATM   21  S           1      29.139  40.791  52.119  0.00  0.00    -0.072 SA
ENDROOT
BRANCH   1  22
HETATM   22  C           1      26.245  43.021  49.129  0.00  0.00     0.114 C 
BRANCH  22  23
HETATM   23  C           1      25.188  43.844  49.855  0.00  0.00     0.218 C 
HETATM   24  N           1      25.706  44.652  50.832  0.00  0.00    -0.354 N 
HETATM   25  H           1      26.707  44.587  51.016  0.00  0.00     0.162 HD
HETATM   26  O           1      24.014  43.797  49.586  0.00  0.00    -0.274 OA
BRANCH  24  27
HETATM   27  C           1      24.900  45.508  51.713  0.00  0.00     0.108 C 
BRANCH  27  28
HETATM   28  C           1      25.010  45.129  53.194  0.00  0.00     0.189 C 
BRANCH  28  29
HETATM   29  O           1      24.979  43.723  53.331  0.00  0.00    -0.399 OA
HETATM   30  H           1      25.487  43.466  54.104  0.00  0.00     0.209 HD
ENDBRANCH  28  29
ENDBRANCH  27  28
BRANCH  27  31
HETATM   31  C           1      25.173  47.004  51.473  0.00  0.00     0.031 C 
BRANCH  31  32
HETATM   32  C           1      25.224  47.484  50.007  0.00  0.00    -0.021 C 
HETATM   33  C           1      26.524  48.247  49.694  0.00  0.00     0.009 C 
HETATM   34  C           1      24.007  48.313  49.568  0.00  0.00     0.009 C 
ENDBRANCH  31  32
ENDBRANCH  27  31
ENDBRANCH  24  27
ENDBRANCH  22  23
ENDBRANCH   1  22
BRANCH   4  35
HETATM   35  C           1      28.306  37.576  47.525  0.00  0.00     0.176 C 
BRANCH  35  36
HETATM   36  O           1      28.364  36.242  47.052  0.00  0.00    -0.400 OA
HETATM   37  H           1      29.089  35.777  47.473  0.00  0.00     0.209 HD
ENDBRANCH  35  36
ENDBRANCH   4  35
BRANCH   6  38
HETATM   38  O           1      25.763  36.796  46.552  0.00  0.00    -0.395 OA
HETATM   39  H           1      26.616  36.359  46.545  0.00  0.00     0.210 HD
ENDBRANCH   6  38
TORSDOF 10
ENDMDL
MODEL 3
REMARK VINA RESULT:      -8.1      3.050      7.941
REMARK  10 active torsions:
REMARK  status: ('A' for Active; 'I' for Inactive)
REMARK    1  A    between atoms: C_1  and  C_17 
REMARK    2  A    between atoms: C_4  and  C_5 
REMARK    3  A    between atoms: C_5  and  O_18 
REMARK    4  A    between atoms: C_6  and  C_11 
REMARK    5  A    between atoms: C_6  and  C_14 
REMARK    6  A    between atoms: C_6  and  N_15 
REMARK    7  A    between atoms: C_8  and  O_20 
REMARK    8  A    between atoms: C_11  and  O_34 
REMARK    9  A    between atoms: C_13  and  C_14 
REMARK       I    between atoms: N_15  and  C_16 
REMARK   10  A    between atoms: C_16  and  C_17 
ROOT
HETATM    1  C           1      25.485  44.823  50.864  0.00  0.00     0.056 C 
HETATM    2  C           1      25.849  43.317  51.111  0.00  0.00    -0.030 C 
HETATM    3  C           1      24.660  42.635  51.822  0.00  0.00     0.016 C 
HETATM    4  C           1      26.995  41.317  49.704  0.00  0.00     0.008 C 
HETATM    5  C           1      26.184  42.658  49.732  0.00  0.00     0.012 C 
HETATM    6  C           1      28.171  41.426  50.696  0.00  0.00     0.128 C 
HETATM    7  C           1      27.097  43.257  52.025  0.00  0.00     0.013 C 
HETATM    8  C           1      22.128  46.688  48.117  0.00  0.00     0.017 A 
HETATM    9  C           1      27.604  41.135  48.285  0.00  0.00     0.020 C 
HETATM   10  C           1      27.748  41.874  52.089  0.00  0.00     0.033 C 
HETATM   11  C           1      24.955  42.662  48.795  0.00  0.00     0.054 C 
HETATM   12  C           1      24.251  43.988  48.827  0.00  0.00     0.010 A 
HETATM   13  C           1      24.486  44.932  49.742  0.00  0.00     0.054 A 
HETATM   14  N           1      23.750  45.940  49.561  0.00  0.00    -0.244 NA
HETATM   15  C           1      23.009  45.756  48.548  0.00  0.00     0.110 A 
HETATM   16  C           1      22.017  47.882  48.740  0.00  0.00     0.130 A 
HETATM   17  N           1      21.225  48.819  48.425  0.00  0.00    -0.272 NA
HETATM   18  C           1      20.463  48.638  47.433  0.00  0.00     0.116 A 
HETATM   19  C           1      20.461  47.509  46.711  0.00  0.00     0.020 A 
HETATM   20  C           1      21.306  46.527  47.060  0.00  0.00     0.017 A 
HETATM   21  S           1      23.200  44.439  47.913  0.00  0.00    -0.072 SA
ENDROOT
BRANCH   1  22
HETATM   22  C           1      25.019  45.610  52.109  0.00  0.00     0.114 C 
BRANCH  22  23
HETATM   23  C           1      25.906  46.767  52.551  0.00  0.00     0.218 C 
HETATM   24  N           1      26.383  46.629  53.827  0.00  0.00    -0.354 N 
HETATM   25  H           1      26.064  45.823  54.365  0.00  0.00     0.162 HD
HETATM   26  O           1      26.171  47.705  51.841  0.00  0.00    -0.274 OA
BRANCH  24  27
HETATM   27  C           1      27.217  47.625  54.512  0.00  0.00     0.108 C 
BRANCH  27  28
HETATM   28  C           1      26.520  48.282  55.708  0.00  0.00     0.189 C 
BRANCH  28  29
HETATM   29  O           1      25.393  49.010  55.263  0.00  0.00    -0.399 OA
HETATM   30  H           1      25.543  49.947  55.405  0.00  0.00     0.209 HD
ENDBRANCH  28  29
ENDBRANCH  27  28
BRANCH  27  31
HETATM   31  C           1      28.602  47.063  54.883  0.00  0.00     0.031 C 
BRANCH  31  32
HETATM   32  C           1      28.634  45.792  55.759  0.00  0.00    -0.021 C 
HETATM   33  C           1      29.425  46.008  57.061  0.00  0.00     0.009 C 
HETATM   34  C           1      29.143  44.536  55.033  0.00  0.00     0.009 C 
ENDBRANCH  31  32
ENDBRANCH  27  31
ENDBRANCH  24  27
ENDBRANCH  22  23
ENDBRANCH   1  22
BRANCH   4  35
HETATM   35  C           1      26.143  40.065  49.997  0.00  0.00     0.176 C 
BRANCH  35  36
HETATM   36  O           1      26.679  38.908  49.380  0.00  0.00    -0.400 OA
HETATM   37  H           1      27.227  38.429  50.003  0.00  0.00     0.209 HD
ENDBRANCH  35  36
ENDBRANCH   4  35
BRANCH   6  38
HETATM   38  O           1      28.850  40.199  50.819  0.00  0.00    -0.395 OA
HETATM   39  H           1      29.495  40.108  50.116  0.00  0.00     0.210 HD
ENDBRANCH   6  38
TORSDOF 10
ENDMDL
MODEL 4
REMARK VINA RESULT:      -7.9      3.188      9.243
REMARK  10 active torsions:
REMARK  status: ('A' for Active; 'I' for Inactive)
REMARK    1  A    between atoms: C_1  and  C_17 
REMARK    2  A    between atoms: C_4  and  C_5 
REMARK    3  A    between atoms: C_5  and  O_18 
REMARK    4  A    between atoms: C_6  and  C_11 
REMARK    5  A    between atoms: C_6  and  C_14 
REMARK    6  A    between atoms: C_6  and  N_15 
REMARK    7  A    between atoms: C_8  and  O_20 
REMARK    8  A    between atoms: C_11  and  O_34 
REMARK    9  A    between atoms: C_13  and  C_14 
REMARK       I    between atoms: N_15  and  C_16 
REMARK   10  A    between atoms: C_16  and  C_17 
ROOT
HETATM    1  C           1      24.835  44.639  49.674  0.00  0.00     0.056 C 
HETATM    2  C           1      24.408  43.135  49.532  0.00  0.00    -0.030 C 
HETATM    3  C           1      23.222  42.870  50.486  0.00  0.00     0.016 C 
HETATM    4  C           1      24.017  41.387  47.511  0.00  0.00     0.008 C 
HETATM    5  C           1      24.048  42.865  48.033  0.00  0.00     0.012 C 
HETATM    6  C           1      25.260  40.645  48.045  0.00  0.00     0.128 C 
HETATM    7  C           1      25.606  42.244  49.941  0.00  0.00     0.013 C 
HETATM    8  C           1      22.436  48.557  48.585  0.00  0.00     0.017 A 
HETATM    9  C           1      24.122  41.407  45.960  0.00  0.00     0.020 C 
HETATM   10  C           1      25.440  40.774  49.551  0.00  0.00     0.033 C 
HETATM   11  C           1      22.831  43.708  47.588  0.00  0.00     0.054 C 
HETATM   12  C           1      22.944  45.124  48.075  0.00  0.00     0.010 A 
HETATM   13  C           1      23.824  45.525  48.995  0.00  0.00     0.054 A 
HETATM   14  N           1      23.699  46.755  49.244  0.00  0.00    -0.244 NA
HETATM   15  C           1      22.773  47.247  48.530  0.00  0.00     0.110 A 
HETATM   16  C           1      23.096  49.413  49.395  0.00  0.00     0.130 A 
HETATM   17  N           1      22.859  50.650  49.527  0.00  0.00    -0.272 NA
HETATM   18  C           1      21.922  51.148  48.840  0.00  0.00     0.116 A 
HETATM   19  C           1      21.180  50.427  47.988  0.00  0.00     0.020 A 
HETATM   20  C           1      21.445  49.118  47.862  0.00  0.00     0.017 A 
HETATM   21  S           1      22.112  46.256  47.662  0.00  0.00    -0.072 SA
ENDROOT
BRANCH   1  22
HETATM   22  C           1      25.124  45.117  51.114  0.00  0.00     0.114 C 
BRANCH  22  23
HETATM   23  C           1      26.540  44.896  51.631  0.00  0.00     0.218 C 
HETATM   24  N           1      26.611  44.792  52.994  0.00  0.00    -0.354 N 
HETATM   25  H           1      25.749  44.927  53.523  0.00  0.00     0.162 HD
HETATM   26  O           1      27.501  44.807  50.907  0.00  0.00    -0.274 OA
BRANCH  24  27
HETATM   27  C           1      27.861  44.627  53.749  0.00  0.00     0.108 C 
BRANCH  27  28
HETATM   28  C           1      28.108  45.746  54.766  0.00  0.00     0.189 C 
BRANCH  28  29
HETATM   29  O           1      29.044  45.314  55.733  0.00  0.00    -0.399 OA
HETATM   30  H           1      29.433  44.483  55.451  0.00  0.00     0.209 HD
ENDBRANCH  28  29
ENDBRANCH  27  28
BRANCH  27  31
HETATM   31  C           1      27.973  43.229  54.383  0.00  0.00     0.031 C 
BRANCH  31  32
HETATM   32  C           1      28.953  42.234  53.724  0.00  0.00    -0.021 C 
HETATM   33  C           1      30.073  42.952  52.951  0.00  0.00     0.009 C 
HETATM   34  C           1      28.280  41.184  52.824  0.00  0.00     0.009 C 
ENDBRANCH  31  32
ENDBRANCH  27  31
ENDBRANCH  24  27
ENDBRANCH  22  23
ENDBRANCH   1  22
BRANCH   4  35
HETATM   35  C           1      22.725  40.624  47.869  0.00  0.00     0.176 C 
BRANCH  35  36
HETATM   36  O           1      22.594  39.430  47.119  0.00  0.00    -0.400 OA
HETATM   37  H           1      22.403  39.639  46.203  0.00  0.00     0.209 HD
ENDBRANCH  35  36
ENDBRANCH   4  35
BRANCH   6  38
HETATM   38  O           1      25.211  39.275  47.726  0.00  0.00    -0.395 OA
HETATM   39  H           1      25.243  39.157  46.775  0.00  0.00     0.210 HD
ENDBRANCH   6  38
TORSDOF 10
ENDMDL
MODEL 5
REMARK VINA RESULT:      -7.9      3.242      8.217
REMARK  10 active torsions:
REMARK  status: ('A' for Active; 'I' for Inactive)
REMARK    1  A    between atoms: C_1  and  C_17 
REMARK    2  A    between atoms: C_4  and  C_5 
REMARK    3  A    between atoms: C_5  and  O_18 
REMARK    4  A    between atoms: C_6  and  C_11 
REMARK    5  A    between atoms: C_6  and  C_14 
REMARK    6  A    between atoms: C_6  and  N_15 
REMARK    7  A    between atoms: C_8  and  O_20 
REMARK    8  A    between atoms: C_11  and  O_34 
REMARK    9  A    between atoms: C_13  and  C_14 
REMARK       I    between atoms: N_15  and  C_16 
REMARK   10  A    between atoms: C_16  and  C_17 
ROOT
HETATM    1  C           1      26.276  42.895  50.189  0.00  0.00     0.056 C 
HETATM    2  C           1      24.783  43.024  49.723  0.00  0.00    -0.030 C 
HETATM    3  C           1      23.890  42.260  50.726  0.00  0.00     0.016 C 
HETATM    4  C           1      23.179  44.984  48.788  0.00  0.00     0.008 C 
HETATM    5  C           1      24.424  44.544  49.633  0.00  0.00     0.012 C 
HETATM    6  C           1      23.190  44.219  47.449  0.00  0.00     0.128 C 
HETATM    7  C           1      24.649  42.380  48.322  0.00  0.00     0.013 C 
HETATM    8  C           1      28.361  44.565  54.083  0.00  0.00     0.017 A 
HETATM    9  C           1      23.315  46.497  48.456  0.00  0.00     0.020 C 
HETATM   10  C           1      23.334  42.711  47.616  0.00  0.00     0.033 C 
HETATM   11  C           1      24.510  45.223  51.018  0.00  0.00     0.054 C 
HETATM   12  C           1      25.747  44.801  51.756  0.00  0.00     0.010 A 
HETATM   13  C           1      26.517  43.774  51.389  0.00  0.00     0.054 A 
HETATM   14  N           1      27.481  43.615  52.186  0.00  0.00    -0.244 NA
HETATM   15  C           1      27.434  44.494  53.099  0.00  0.00     0.110 A 
HETATM   16  C           1      29.403  43.706  54.122  0.00  0.00     0.130 A 
HETATM   17  N           1      30.319  43.680  54.996  0.00  0.00    -0.272 NA
HETATM   18  C           1      30.270  44.535  55.927  0.00  0.00     0.116 A 
HETATM   19  C           1      29.300  45.455  56.021  0.00  0.00     0.020 A 
HETATM   20  C           1      28.339  45.467  55.086  0.00  0.00     0.017 A 
HETATM   21  S           1      26.280  45.403  52.980  0.00  0.00    -0.072 SA
ENDROOT
BRANCH   1  22
HETATM   22  C           1      26.776  41.455  50.440  0.00  0.00     0.114 C 
BRANCH  22  23
HETATM   23  C           1      27.715  40.871  49.392  0.00  0.00     0.218 C 
HETATM   24  N           1      28.165  39.617  49.705  0.00  0.00    -0.354 N 
HETATM   25  H           1      27.888  39.227  50.606  0.00  0.00     0.162 HD
HETATM   26  O           1      28.020  41.453  48.380  0.00  0.00    -0.274 OA
BRANCH  24  27
HETATM   27  C           1      29.119  38.851  48.891  0.00  0.00     0.108 C 
BRANCH  27  28
HETATM   28  C           1      30.091  38.009  49.724  0.00  0.00     0.189 C 
BRANCH  28  29
HETATM   29  O           1      31.405  38.509  49.576  0.00  0.00    -0.399 OA
HETATM   30  H           1      31.568  39.181  50.242  0.00  0.00     0.209 HD
ENDBRANCH  28  29
ENDBRANCH  27  28
BRANCH  27  31
HETATM   31  C           1      28.415  38.020  47.803  0.00  0.00     0.031 C 
BRANCH  31  32
HETATM   32  C           1      26.920  37.698  48.020  0.00  0.00    -0.021 C 
HETATM   33  C           1      26.628  36.193  47.882  0.00  0.00     0.009 C 
HETATM   34  C           1      25.962  38.507  47.131  0.00  0.00     0.009 C 
ENDBRANCH  31  32
ENDBRANCH  27  31
ENDBRANCH  24  27
ENDBRANCH  22  23
ENDBRANCH   1  22
BRANCH   4  35
HETATM   35  C           1      21.832  44.798  49.517  0.00  0.00     0.176 C 
BRANCH  35  36
HETATM   36  O           1      20.881  45.769  49.119  0.00  0.00    -0.400 OA
HETATM   37  H           1      21.119  46.130  48.263  0.00  0.00     0.209 HD
ENDBRANCH  35  36
ENDBRANCH   4  35
BRANCH   6  38
HETATM   38  O           1      22.018  44.467  46.711  0.00  0.00    -0.395 OA
HETATM   39  H           1      21.363  44.892  47.267  0.00  0.00     0.210 HD
ENDBRANCH   6  38
TORSDOF 10
ENDMDL
MODEL 6
REMARK VINA RESULT:      -7.7      2.836      7.131
REMARK  10 active torsions:
REMARK  status: ('A' for Active; 'I' for Inactive)
REMARK    1  A    between atoms: C_1  and  C_17 
REMARK    2  A    between atoms: C_4  and  C_5 
REMARK    3  A    between atoms: C_5  and  O_18 
REMARK    4  A    between atoms: C_6  and  C_11 
REMARK    5  A    between atoms: C_6  and  C_14 
REMARK    6  A    between atoms: C_6  and  N_15 
REMARK    7  A    between atoms: C_8  and  O_20 
REMARK    8  A    between atoms: C_11  and  O_34 
REMARK    9  A    between atoms: C_13  and  C_14 
REMARK       I    between atoms: N_15  and  C_16 
REMARK   10  A    between atoms: C_16  and  C_17 
ROOT
HETATM    1  C           1      26.352  41.912  49.890  0.00  0.00     0.056 C 
HETATM    2  C           1      26.685  40.878  48.757  0.00  0.00    -0.030 C 
HETATM    3  C           1      27.882  41.414  47.941  0.00  0.00     0.016 C 
HETATM    4  C           1      26.908  38.195  48.549  0.00  0.00     0.008 C 
HETATM    5  C           1      26.981  39.494  49.424  0.00  0.00     0.012 C 
HETATM    6  C           1      25.641  38.257  47.671  0.00  0.00     0.128 C 
HETATM    7  C           1      25.450  40.749  47.832  0.00  0.00     0.013 C 
HETATM    8  C           1      28.942  43.222  53.614  0.00  0.00     0.017 A 
HETATM    9  C           1      26.755  36.969  49.493  0.00  0.00     0.020 C 
HETATM   10  C           1      25.516  39.553  46.881  0.00  0.00     0.033 C 
HETATM   11  C           1      28.230  39.565  50.331  0.00  0.00     0.054 C 
HETATM   12  C           1      28.217  40.804  51.179  0.00  0.00     0.010 A 
HETATM   13  C           1      27.392  41.833  50.977  0.00  0.00     0.054 A 
HETATM   14  N           1      27.597  42.756  51.812  0.00  0.00    -0.244 NA
HETATM   15  C           1      28.527  42.421  52.606  0.00  0.00     0.110 A 
HETATM   16  C           1      28.359  44.420  53.837  0.00  0.00     0.130 A 
HETATM   17  N           1      28.673  45.247  54.743  0.00  0.00    -0.272 NA
HETATM   18  C           1      29.615  44.936  55.525  0.00  0.00     0.116 A 
HETATM   19  C           1      30.287  43.779  55.434  0.00  0.00     0.020 A 
HETATM   20  C           1      29.942  42.916  54.467  0.00  0.00     0.017 A 
HETATM   21  S           1      29.101  41.095  52.310  0.00  0.00    -0.072 SA
ENDROOT
BRANCH   1  22
HETATM   22  C           1      26.136  43.369  49.423  0.00  0.00     0.114 C 
BRANCH  22  23
HETATM   23  C           1      24.799  44.005  49.781  0.00  0.00     0.218 C 
HETATM   24  N           1      24.530  45.141  49.067  0.00  0.00    -0.354 N 
HETATM   25  H           1      25.249  45.477  48.426  0.00  0.00     0.162 HD
HETATM   26  O           1      24.047  43.544  50.604  0.00  0.00    -0.274 OA
BRANCH  24  27
HETATM   27  C           1      23.334  45.973  49.253  0.00  0.00     0.108 C 
BRANCH  27  28
HETATM   28  C           1      23.626  47.477  49.200  0.00  0.00     0.189 C 
BRANCH  28  29
HETATM   29  O           1      24.125  47.911  50.449  0.00  0.00    -0.399 OA
HETATM   30  H           1      23.726  48.753  50.677  0.00  0.00     0.209 HD
ENDBRANCH  28  29
ENDBRANCH  27  28
BRANCH  27  31
HETATM   31  C           1      22.193  45.569  48.302  0.00  0.00     0.031 C 
BRANCH  31  32
HETATM   32  C           1      22.575  44.743  47.055  0.00  0.00    -0.021 C 
HETATM   33  C           1      21.984  45.338  45.765  0.00  0.00     0.009 C 
HETATM   34  C           1      22.230  43.248  47.154  0.00  0.00     0.009 C 
ENDBRANCH  31  32
ENDBRANCH  27  31
ENDBRANCH  24  27
ENDBRANCH  22  23
ENDBRANCH   1  22
BRANCH   4  35
HETATM   35  C           1      28.163  37.951  47.686  0.00  0.00     0.176 C 
BRANCH  35  36
HETATM   36  O           1      28.279  36.594  47.299  0.00  0.00    -0.400 OA
HETATM   37  H           1      29.067  36.471  46.767  0.00  0.00     0.209 HD
ENDBRANCH  35  36
ENDBRANCH   4  35
BRANCH   6  38
HETATM   38  O           1      25.599  37.184  46.761  0.00  0.00    -0.395 OA
HETATM   39  H           1      25.470  36.359  47.231  0.00  0.00     0.210 HD
ENDBRANCH   6  38
TORSDOF 10
ENDMDL
MODEL 7
REMARK VINA RESULT:      -7.7      5.142     10.529
REMARK  10 active torsions:
REMARK  status: ('A' for Active; 'I' for Inactive)
REMARK    1  A    between atoms: C_1  and  C_17 
REMARK    2  A    between atoms: C_4  and  C_5 
REMARK    3  A    between atoms: C_5  and  O_18 
REMARK    4  A    between atoms: C_6  and  C_11 
REMARK    5  A    between atoms: C_6  and  C_14 
REMARK    6  A    between atoms: C_6  and  N_15 
REMARK    7  A    between atoms: C_8  and  O_20 
REMARK    8  A    between atoms: C_11  and  O_34 
REMARK    9  A    between atoms: C_13  and  C_14 
REMARK       I    between atoms: N_15  and  C_16 
REMARK   10  A    between atoms: C_16  and  C_17 
ROOT
HETATM    1  C           1      19.435  47.929  48.004  0.00  0.00     0.056 C 
HETATM    2  C           1      18.222  48.922  47.923  0.00  0.00    -0.030 C 
HETATM    3  C           1      18.043  49.591  49.304  0.00  0.00     0.016 C 
HETATM    4  C           1      17.315  50.777  46.182  0.00  0.00     0.008 C 
HETATM    5  C           1      18.508  49.957  46.785  0.00  0.00     0.012 C 
HETATM    6  C           1      16.130  49.821  45.935  0.00  0.00     0.128 C 
HETATM    7  C           1      16.949  48.114  47.574  0.00  0.00     0.013 C 
HETATM    8  C           1      24.014  48.835  48.716  0.00  0.00     0.017 A 
HETATM    9  C           1      17.749  51.341  44.800  0.00  0.00     0.020 C 
HETATM   10  C           1      15.763  48.984  47.153  0.00  0.00     0.033 C 
HETATM   11  C           1      19.753  50.814  47.107  0.00  0.00     0.054 C 
HETATM   12  C           1      20.876  49.967  47.631  0.00  0.00     0.010 A 
HETATM   13  C           1      20.728  48.701  48.028  0.00  0.00     0.054 A 
HETATM   14  N           1      21.817  48.221  48.445  0.00  0.00    -0.244 NA
HETATM   15  C           1      22.736  49.090  48.350  0.00  0.00     0.110 A 
HETATM   16  C           1      24.376  47.619  49.180  0.00  0.00     0.130 A 
HETATM   17  N           1      25.537  47.277  49.553  0.00  0.00    -0.272 NA
HETATM   18  C           1      26.456  48.142  49.488  0.00  0.00     0.116 A 
HETATM   19  C           1      26.253  49.390  49.045  0.00  0.00     0.020 A 
HETATM   20  C           1      25.017  49.735  48.654  0.00  0.00     0.017 A 
HETATM   21  S           1      22.267  50.383  47.821  0.00  0.00    -0.072 SA
ENDROOT
BRANCH   1  22
HETATM   22  C           1      19.376  46.896  49.152  0.00  0.00     0.114 C 
BRANCH  22  23
HETATM   23  C           1      19.904  45.502  48.836  0.00  0.00     0.218 C 
HETATM   24  N           1      21.242  45.359  49.089  0.00  0.00    -0.354 N 
HETATM   25  H           1      21.756  46.185  49.396  0.00  0.00     0.162 HD
HETATM   26  O           1      19.208  44.610  48.419  0.00  0.00    -0.274 OA
BRANCH  24  27
HETATM   27  C           1      22.009  44.134  48.825  0.00  0.00     0.108 C 
BRANCH  27  28
HETATM   28  C           1      23.035  44.291  47.697  0.00  0.00     0.189 C 
BRANCH  28  29
HETATM   29  O           1      22.726  45.435  46.926  0.00  0.00    -0.399 OA
HETATM   30  H           1      23.392  45.548  46.243  0.00  0.00     0.209 HD
ENDBRANCH  28  29
ENDBRANCH  27  28
BRANCH  27  31
HETATM   31  C           1      22.638  43.558  50.106  0.00  0.00     0.031 C 
BRANCH  31  32
HETATM   32  C           1      24.161  43.737  50.285  0.00  0.00    -0.021 C 
HETATM   33  C           1      24.905  42.390  50.283  0.00  0.00     0.009 C 
HETATM   34  C           1      24.562  44.560  51.520  0.00  0.00     0.009 C 
ENDBRANCH  31  32
ENDBRANCH  27  31
ENDBRANCH  24  27
ENDBRANCH  22  23
ENDBRANCH   1  22
BRANCH   4  35
HETATM   35  C           1      16.882  51.978  47.047  0.00  0.00     0.176 C 
BRANCH  35  36
HETATM   36  O           1      16.198  52.955  46.285  0.00  0.00    -0.400 OA
HETATM   37  H           1      15.385  53.206  46.727  0.00  0.00     0.209 HD
ENDBRANCH  35  36
ENDBRANCH   4  35
BRANCH   6  38
HETATM   38  O           1      14.982  50.528  45.528  0.00  0.00    -0.395 OA
HETATM   39  H           1      14.532  50.051  44.830  0.00  0.00     0.210 HD
ENDBRANCH   6  38
TORSDOF 10
ENDMDL
MODEL 8
REMARK VINA RESULT:      -7.5      3.234      7.940
REMARK  10 active torsions:
REMARK  status: ('A' for Active; 'I' for Inactive)
REMARK    1  A    between atoms: C_1  and  C_17 
REMARK    2  A    between atoms: C_4  and  C_5 
REMARK    3  A    between atoms: C_5  and  O_18 
REMARK    4  A    between atoms: C_6  and  C_11 
REMARK    5  A    between atoms: C_6  and  C_14 
REMARK    6  A    between atoms: C_6  and  N_15 
REMARK    7  A    between atoms: C_8  and  O_20 
REMARK    8  A    between atoms: C_11  and  O_34 
REMARK    9  A    between atoms: C_13  and  C_14 
REMARK       I    between atoms: N_15  and  C_16 
REMARK   10  A    between atoms: C_16  and  C_17 
ROOT
HETATM    1  C           1      23.324  47.676  49.607  0.00  0.00     0.056 C 
HETATM    2  C           1      22.597  48.905  48.956  0.00  0.00    -0.030 C 
HETATM    3  C           1      23.341  49.282  47.655  0.00  0.00     0.016 C 
HETATM    4  C           1      20.047  49.656  48.483  0.00  0.00     0.008 C 
HETATM    5  C           1      21.103  48.518  48.704  0.00  0.00     0.012 C 
HETATM    6  C           1      20.284  50.764  49.530  0.00  0.00     0.128 C 
HETATM    7  C           1      22.661  50.093  49.946  0.00  0.00     0.013 C 
HETATM    8  C           1      23.776  43.260  47.998  0.00  0.00     0.017 A 
HETATM    9  C           1      18.629  49.074  48.742  0.00  0.00     0.020 C 
HETATM   10  C           1      21.727  51.249  49.581  0.00  0.00     0.033 C 
HETATM   11  C           1      20.987  47.356  47.692  0.00  0.00     0.054 C 
HETATM   12  C           1      21.988  46.277  47.986  0.00  0.00     0.010 A 
HETATM   13  C           1      23.015  46.425  48.825  0.00  0.00     0.054 A 
HETATM   14  N           1      23.718  45.380  48.880  0.00  0.00    -0.244 NA
HETATM   15  C           1      23.227  44.490  48.121  0.00  0.00     0.110 A 
HETATM   16  C           1      24.873  42.912  48.708  0.00  0.00     0.130 A 
HETATM   17  N           1      25.469  41.796  48.665  0.00  0.00    -0.272 NA
HETATM   18  C           1      25.004  40.909  47.893  0.00  0.00     0.116 A 
HETATM   19  C           1      23.919  41.102  47.130  0.00  0.00     0.020 A 
HETATM   20  C           1      23.302  42.291  47.188  0.00  0.00     0.017 A 
HETATM   21  S           1      22.025  44.938  47.395  0.00  0.00    -0.072 SA
ENDROOT
BRANCH   1  22
HETATM   22  C           1      24.844  47.839  49.828  0.00  0.00     0.114 C 
BRANCH  22  23
HETATM   23  C           1      25.427  47.155  51.059  0.00  0.00     0.218 C 
HETATM   24  N           1      25.915  45.902  50.803  0.00  0.00    -0.354 N 
HETATM   25  H           1      25.794  45.532  49.860  0.00  0.00     0.162 HD
HETATM   26  O           1      25.466  47.674  52.147  0.00  0.00    -0.274 OA
BRANCH  24  27
HETATM   27  C           1      26.484  45.010  51.822  0.00  0.00     0.108 C 
BRANCH  27  28
HETATM   28  C           1      25.427  44.192  52.572  0.00  0.00     0.189 C 
BRANCH  28  29
HETATM   29  O           1      24.214  44.198  51.845  0.00  0.00    -0.399 OA
HETATM   30  H           1      23.688  43.436  52.097  0.00  0.00     0.209 HD
ENDBRANCH  28  29
ENDBRANCH  27  28
BRANCH  27  31
HETATM   31  C           1      27.609  44.125  51.254  0.00  0.00     0.031 C 
BRANCH  31  32
HETATM   32  C           1      28.087  42.946  52.130  0.00  0.00    -0.021 C 
HETATM   33  C           1      29.528  43.147  52.632  0.00  0.00     0.009 C 
HETATM   34  C           1      27.945  41.566  51.468  0.00  0.00     0.009 C 
ENDBRANCH  31  32
ENDBRANCH  27  31
ENDBRANCH  24  27
ENDBRANCH  22  23
ENDBRANCH   1  22
BRANCH   4  35
HETATM   35  C           1      20.046  50.239  47.056  0.00  0.00     0.176 C 
BRANCH  35  36
HETATM   36  O           1      18.812  50.017  46.398  0.00  0.00    -0.400 OA
HETATM   37  H           1      18.084  50.215  46.990  0.00  0.00     0.209 HD
ENDBRANCH  35  36
ENDBRANCH   4  35
BRANCH   6  38
HETATM   38  O           1      19.457  51.878  49.289  0.00  0.00    -0.395 OA
HETATM   39  H           1      18.709  51.868  49.888  0.00  0.00     0.210 HD
ENDBRANCH   6  38
TORSDOF 10
ENDMDL
MODEL 9
REMARK VINA RESULT:      -7.5      4.347      9.381
REMARK  10 active torsions:
REMARK  status: ('A' for Active; 'I' for Inactive)
REMARK    1  A    between atoms: C_1  and  C_17 
REMARK    2  A    between atoms: C_4  and  C_5 
REMARK    3  A    between atoms: C_5  and  O_18 
REMARK    4  A    between atoms: C_6  and  C_11 
REMARK    5  A    between atoms: C_6  and  C_14 
REMARK    6  A    between atoms: C_6  and  N_15 
REMARK    7  A    between atoms: C_8  and  O_20 
REMARK    8  A    between atoms: C_11  and  O_34 
REMARK    9  A    between atoms: C_13  and  C_14 
REMARK       I    between atoms: N_15  and  C_16 
REMARK   10  A    between atoms: C_16  and  C_17 
ROOT
HETATM    1  C           1      21.511  48.372  48.421  0.00  0.00     0.056 C 
HETATM    2  C           1      20.708  49.721  48.412  0.00  0.00    -0.030 C 
HETATM    3  C           1      21.282  50.626  47.299  0.00  0.00     0.016 C 
HETATM    4  C           1      18.119  50.467  48.583  0.00  0.00     0.008 C 
HETATM    5  C           1      19.194  49.391  48.200  0.00  0.00     0.012 C 
HETATM    6  C           1      18.486  51.071  49.954  0.00  0.00     0.128 C 
HETATM    7  C           1      20.897  50.412  49.785  0.00  0.00     0.013 C 
HETATM    8  C           1      21.757  45.005  45.120  0.00  0.00     0.017 A 
HETATM    9  C           1      16.745  49.757  48.745  0.00  0.00     0.020 C 
HETATM   10  C           1      19.924  51.567  50.030  0.00  0.00     0.033 C 
HETATM   11  C           1      18.951  48.731  46.824  0.00  0.00     0.054 C 
HETATM   12  C           1      19.982  47.677  46.538  0.00  0.00     0.010 A 
HETATM   13  C           1      21.107  47.528  47.241  0.00  0.00     0.054 A 
HETATM   14  N           1      21.811  46.586  46.785  0.00  0.00    -0.244 NA
HETATM   15  C           1      21.228  46.053  45.793  0.00  0.00     0.110 A 
HETATM   16  C           1      22.935  44.459  45.495  0.00  0.00     0.130 A 
HETATM   17  N           1      23.520  43.486  44.935  0.00  0.00    -0.272 NA
HETATM   18  C           1      22.961  42.961  43.930  0.00  0.00     0.116 A 
HETATM   19  C           1      21.789  43.389  43.441  0.00  0.00     0.020 A 
HETATM   20  C           1      21.184  44.421  44.047  0.00  0.00     0.017 A 
HETATM   21  S           1      19.944  46.692  45.455  0.00  0.00    -0.072 SA
ENDROOT
BRANCH   1  22
HETATM   22  C           1      23.048  48.510  48.512  0.00  0.00     0.114 C 
BRANCH  22  23
HETATM   23  C           1      23.752  47.601  49.511  0.00  0.00     0.218 C 
HETATM   24  N           1      23.729  46.280  49.153  0.00  0.00    -0.354 N 
HETATM   25  H           1      23.211  46.028  48.311  0.00  0.00     0.162 HD
HETATM   26  O           1      24.288  48.009  50.512  0.00  0.00    -0.274 OA
BRANCH  24  27
HETATM   27  C           1      24.291  45.192  49.964  0.00  0.00     0.108 C 
BRANCH  27  28
HETATM   28  C           1      23.454  43.909  49.921  0.00  0.00     0.189 C 
BRANCH  28  29
HETATM   29  O           1      22.344  44.033  50.788  0.00  0.00    -0.399 OA
HETATM   30  H           1      21.589  43.580  50.406  0.00  0.00     0.209 HD
ENDBRANCH  28  29
ENDBRANCH  27  28
BRANCH  27  31
HETATM   31  C           1      25.772  44.931  49.636  0.00  0.00     0.031 C 
BRANCH  31  32
HETATM   32  C           1      26.766  44.935  50.819  0.00  0.00    -0.021 C 
HETATM   33  C           1      27.352  43.537  51.086  0.00  0.00     0.009 C 
HETATM   34  C           1      26.201  45.529  52.119  0.00  0.00     0.009 C 
ENDBRANCH  31  32
ENDBRANCH  27  31
ENDBRANCH  24  27
ENDBRANCH  22  23
ENDBRANCH   1  22
BRANCH   4  35
HETATM   35  C           1      17.937  51.574  47.525  0.00  0.00     0.176 C 
BRANCH  35  36
HETATM   36  O           1      16.733  52.294  47.719  0.00  0.00    -0.400 OA
HETATM   37  H           1      16.591  52.896  46.987  0.00  0.00     0.209 HD
ENDBRANCH  35  36
ENDBRANCH   4  35
BRANCH   6  38
HETATM   38  O           1      17.635  52.143  50.282  0.00  0.00    -0.395 OA
HETATM   39  H           1      18.052  52.975  50.054  0.00  0.00     0.210 HD
ENDBRANCH   6  38
TORSDOF 10
ENDMDL
MODEL 10
REMARK VINA RESULT:      -7.4     12.727     13.819
REMARK  10 active torsions:
REMARK  status: ('A' for Active; 'I' for Inactive)
REMARK    1  A    between atoms: C_1  and  C_17 
REMARK    2  A    between atoms: C_4  and  C_5 
REMARK    3  A    between atoms: C_5  and  O_18 
REMARK    4  A    between atoms: C_6  and  C_11 
REMARK    5  A    between atoms: C_6  and  C_14 
REMARK    6  A    between atoms: C_6  and  N_15 
REMARK    7  A    between atoms: C_8  and  O_20 
REMARK    8  A    between atoms: C_11  and  O_34 
REMARK    9  A    between atoms: C_13  and  C_14 
REMARK       I    between atoms: N_15  and  C_16 
REMARK   10  A    between atoms: C_16  and  C_17 
ROOT
HETATM    1  C           1      28.063  49.759  39.312  0.00  0.00     0.056 C 
HETATM    2  C           1      28.936  50.621  40.291  0.00  0.00    -0.030 C 
HETATM    3  C           1      28.891  49.969  41.691  0.00  0.00     0.016 C 
HETATM    4  C           1      31.346  51.838  40.222  0.00  0.00     0.008 C 
HETATM    5  C           1      30.387  50.706  39.713  0.00  0.00     0.012 C 
HETATM    6  C           1      30.564  53.168  40.267  0.00  0.00     0.128 C 
HETATM    7  C           1      28.329  52.043  40.368  0.00  0.00     0.013 C 
HETATM    8  C           1      28.718  45.329  37.816  0.00  0.00     0.017 A 
HETATM    9  C           1      32.496  52.014  39.190  0.00  0.00     0.020 C 
HETATM   10  C           1      29.249  53.070  41.029  0.00  0.00     0.033 C 
HETATM   11  C           1      31.049  49.311  39.651  0.00  0.00     0.054 C 
HETATM   12  C           1      30.099  48.282  39.110  0.00  0.00     0.010 A 
HETATM   13  C           1      28.787  48.484  38.967  0.00  0.00     0.054 A 
HETATM   14  N           1      28.212  47.458  38.513  0.00  0.00    -0.244 NA
HETATM   15  C           1      29.062  46.539  38.316  0.00  0.00     0.110 A 
HETATM   16  C           1      27.439  45.054  37.477  0.00  0.00     0.130 A 
HETATM   17  N           1      27.009  43.959  37.009  0.00  0.00    -0.272 NA
HETATM   18  C           1      27.842  43.025  36.832  0.00  0.00     0.116 A 
HETATM   19  C           1      29.146  43.148  37.116  0.00  0.00     0.020 A 
HETATM   20  C           1      29.584  44.315  37.612  0.00  0.00     0.017 A 
HETATM   21  S           1      30.435  46.919  38.694  0.00  0.00    -0.072 SA
ENDROOT
BRANCH   1  22
HETATM   22  C           1      26.618  49.476  39.780  0.00  0.00     0.114 C 
BRANCH  22  23
HETATM   23  C           1      25.505  49.863  38.815  0.00  0.00     0.218 C 
HETATM   24  N           1      24.295  50.047  39.427  0.00  0.00    -0.354 N 
HETATM   25  H           1      24.238  49.855  40.427  0.00  0.00     0.162 HD
HETATM   26  O           1      25.678  50.008  37.630  0.00  0.00    -0.274 OA
BRANCH  24  27
HETATM   27  C           1      23.049  50.375  38.720  0.00  0.00     0.108 C 
BRANCH  27  28
HETATM   28  C           1      22.504  49.215  37.879  0.00  0.00     0.189 C 
BRANCH  28  29
HETATM   29  O           1      22.866  49.397  36.525  0.00  0.00    -0.399 OA
HETATM   30  H           1      22.271  50.032  36.119  0.00  0.00     0.209 HD
ENDBRANCH  28  29
ENDBRANCH  27  28
BRANCH  27  31
HETATM   31  C           1      21.984  50.958  39.666  0.00  0.00     0.031 C 
BRANCH  31  32
HETATM   32  C           1      20.561  50.365  39.574  0.00  0.00    -0.021 C 
HETATM   33  C           1      19.604  51.277  38.786  0.00  0.00     0.009 C 
HETATM   34  C           1      19.940  49.994  40.931  0.00  0.00     0.009 C 
ENDBRANCH  31  32
ENDBRANCH  27  31
ENDBRANCH  24  27
ENDBRANCH  22  23
ENDBRANCH   1  22
BRANCH   4  35
HETATM   35  C           1      32.000  51.537  41.586  0.00  0.00     0.176 C 
BRANCH  35  36
HETATM   36  O           1      33.291  52.110  41.687  0.00  0.00    -0.400 OA
HETATM   37  H           1      33.438  52.718  40.960  0.00  0.00     0.209 HD
ENDBRANCH  35  36
ENDBRANCH   4  35
BRANCH   6  38
HETATM   38  O           1      31.334  54.191  40.853  0.00  0.00    -0.395 OA
HETATM   39  H           1      30.954  54.448  41.694  0.00  0.00     0.210 HD
ENDBRANCH   6  38
TORSDOF 10
ENDMDL
