MODEL 1
REMARK VINA RESULT:      -8.6      0.000      0.000
REMARK  2 active torsions:
REMARK  status: ('A' for Active; 'I' for Inactive)
REMARK       I    between atoms: C_2  and  N_3 
REMARK    1  A    between atoms: N_3  and  C_4 
REMARK    2  A    between atoms: C_15  and  N_16 
REMARK       I    between atoms: N_16  and  C_17 
ROOT
HETATM    1  C   UNL     1      24.618  45.976  50.179  1.00  0.00     0.036 A 
HETATM    2  C   UNL     1      25.253  46.027  51.424  1.00  0.00     0.062 A 
HETATM    3  C   UNL     1      26.334  45.206  51.735  1.00  0.00     0.070 A 
HETATM    4  C   UNL     1      26.792  44.302  50.760  1.00  0.00    -0.006 A 
HETATM    5  C   UNL     1      26.165  44.239  49.507  1.00  0.00     0.016 A 
HETATM    6  C   UNL     1      25.085  45.073  49.220  1.00  0.00     0.030 A 
HETATM    7  N   UNL     1      26.911  45.296  52.948  1.00  0.00    -0.247 NA
HETATM    8  C   UNL     1      27.956  44.508  53.254  1.00  0.00     0.070 A 
HETATM    9  C   UNL     1      28.479  43.575  52.341  1.00  0.00    -0.006 A 
HETATM   10  C   UNL     1      27.878  43.483  51.082  1.00  0.00     0.027 A 
HETATM   11  C   UNL     1      28.549  44.609  54.510  1.00  0.00     0.062 A 
HETATM   12  C   UNL     1      29.639  43.815  54.883  1.00  0.00     0.036 A 
HETATM   13  C   UNL     1      30.145  42.893  53.964  1.00  0.00     0.030 A 
HETATM   14  C   UNL     1      29.571  42.772  52.699  1.00  0.00     0.016 A 
ENDROOT
BRANCH   1  15
HETATM   15  N   UNL     1      23.523  46.789  49.811  1.00  0.00    -0.327 N 
HETATM   16  C   UNL     1      23.541  48.135  49.492  1.00  0.00     0.218 C 
HETATM   17  C   UNL     1      22.172  48.663  49.141  1.00  0.00     0.117 C 
HETATM   18  O   UNL     1      24.512  48.882  49.503  1.00  0.00    -0.274 OA
HETATM   19  H   UNL     1      22.621  46.330  49.788  1.00  0.00     0.169 HD
ENDBRANCH   1  15
BRANCH  12  20
HETATM   20  N   UNL     1      30.277  43.877  56.141  1.00  0.00    -0.327 N 
HETATM   21  C   UNL     1      30.608  45.008  56.864  1.00  0.00     0.218 C 
HETATM   22  C   UNL     1      31.289  44.694  58.174  1.00  0.00     0.117 C 
HETATM   23  O   UNL     1      30.410  46.173  56.539  1.00  0.00    -0.274 OA
HETATM   24  H   UNL     1      30.521  42.987  56.554  1.00  0.00     0.169 HD
ENDBRANCH  12  20
TORSDOF 2
ENDMDL
MODEL 2
REMARK VINA RESULT:      -8.6      0.149      7.649
REMARK  2 active torsions:
REMARK  status: ('A' for Active; 'I' for Inactive)
REMARK       I    between atoms: C_2  and  N_3 
REMARK    1  A    between atoms: N_3  and  C_4 
REMARK    2  A    between atoms: C_15  and  N_16 
REMARK       I    between atoms: N_16  and  C_17 
ROOT
HETATM    1  C   UNL     1      29.587  43.712  54.798  1.00  0.00     0.036 A 
HETATM    2  C   UNL     1      28.530  44.557  54.440  1.00  0.00     0.062 A 
HETATM    3  C   UNL     1      27.908  44.475  53.197  1.00  0.00     0.070 A 
HETATM    4  C   UNL     1      28.365  43.511  52.281  1.00  0.00    -0.006 A 
HETATM    5  C   UNL     1      29.423  42.657  52.624  1.00  0.00     0.016 A 
HETATM    6  C   UNL     1      30.027  42.758  53.877  1.00  0.00     0.030 A 
HETATM    7  N   UNL     1      26.895  45.310  52.904  1.00  0.00    -0.247 NA
HETATM    8  C   UNL     1      26.288  45.236  51.706  1.00  0.00     0.070 A 
HETATM    9  C   UNL     1      26.680  44.303  50.730  1.00  0.00    -0.006 A 
HETATM   10  C   UNL     1      27.733  43.436  51.036  1.00  0.00     0.027 A 
HETATM   11  C   UNL     1      25.239  46.103  51.411  1.00  0.00     0.062 A 
HETATM   12  C   UNL     1      24.571  46.069  50.182  1.00  0.00     0.036 A 
HETATM   13  C   UNL     1      24.974  45.137  49.223  1.00  0.00     0.030 A 
HETATM   14  C   UNL     1      26.021  44.257  49.493  1.00  0.00     0.016 A 
ENDROOT
BRANCH   1  15
HETATM   15  N   UNL     1      30.247  43.749  56.045  1.00  0.00    -0.327 N 
HETATM   16  C   UNL     1      30.649  44.866  56.755  1.00  0.00     0.218 C 
HETATM   17  C   UNL     1      31.322  44.512  58.058  1.00  0.00     0.117 C 
HETATM   18  O   UNL     1      30.534  46.037  56.413  1.00  0.00    -0.274 OA
HETATM   19  H   UNL     1      30.458  42.850  56.460  1.00  0.00     0.169 HD
ENDBRANCH   1  15
BRANCH  12  20
HETATM   20  N   UNL     1      23.503  46.923  49.832  1.00  0.00    -0.327 N 
HETATM   21  C   UNL     1      23.571  48.262  49.492  1.00  0.00     0.218 C 
HETATM   22  C   UNL     1      22.221  48.861  49.178  1.00  0.00     0.117 C 
HETATM   23  O   UNL     1      24.579  48.957  49.437  1.00  0.00    -0.274 OA
HETATM   24  H   UNL     1      22.584  46.502  49.834  1.00  0.00     0.169 HD
ENDBRANCH  12  20
TORSDOF 2
ENDMDL
MODEL 3
REMARK VINA RESULT:      -8.4      3.528      4.704
REMARK  2 active torsions:
REMARK  status: ('A' for Active; 'I' for Inactive)
REMARK       I    between atoms: C_2  and  N_3 
REMARK    1  A    between atoms: N_3  and  C_4 
REMARK    2  A    between atoms: C_15  and  N_16 
REMARK       I    between atoms: N_16  and  C_17 
ROOT
HETATM    1  C   UNL     1      25.884  47.223  50.392  1.00  0.00     0.036 A 
HETATM    2  C   UNL     1      26.505  46.017  50.052  1.00  0.00     0.062 A 
HETATM    3  C   UNL     1      26.815  45.051  51.006  1.00  0.00     0.070 A 
HETATM    4  C   UNL     1      26.489  45.308  52.350  1.00  0.00    -0.006 A 
HETATM    5  C   UNL     1      25.866  46.512  52.707  1.00  0.00     0.016 A 
HETATM    6  C   UNL     1      25.565  47.462  51.731  1.00  0.00     0.030 A 
HETATM    7  N   UNL     1      27.412  43.906  50.625  1.00  0.00    -0.247 NA
HETATM    8  C   UNL     1      27.712  42.969  51.541  1.00  0.00     0.070 A 
HETATM    9  C   UNL     1      27.423  43.142  52.906  1.00  0.00    -0.006 A 
HETATM   10  C   UNL     1      26.803  44.332  53.300  1.00  0.00     0.027 A 
HETATM   11  C   UNL     1      28.328  41.786  51.139  1.00  0.00     0.062 A 
HETATM   12  C   UNL     1      28.661  40.777  52.048  1.00  0.00     0.036 A 
HETATM   13  C   UNL     1      28.368  40.965  53.401  1.00  0.00     0.030 A 
HETATM   14  C   UNL     1      27.752  42.140  53.830  1.00  0.00     0.016 A 
ENDROOT
BRANCH   1  15
HETATM   15  N   UNL     1      25.543  48.232  49.465  1.00  0.00    -0.327 N 
HETATM   16  C   UNL     1      26.392  49.135  48.851  1.00  0.00     0.218 C 
HETATM   17  C   UNL     1      25.664  50.063  47.909  1.00  0.00     0.117 C 
HETATM   18  O   UNL     1      27.599  49.249  49.025  1.00  0.00    -0.274 OA
HETATM   19  H   UNL     1      24.561  48.304  49.232  1.00  0.00     0.169 HD
ENDBRANCH   1  15
BRANCH  12  20
HETATM   20  N   UNL     1      29.285  39.560  51.694  1.00  0.00    -0.327 N 
HETATM   21  C   UNL     1      28.989  38.742  50.619  1.00  0.00     0.218 C 
HETATM   22  C   UNL     1      29.863  37.513  50.554  1.00  0.00     0.117 C 
HETATM   23  O   UNL     1      28.121  38.925  49.773  1.00  0.00    -0.274 OA
HETATM   24  H   UNL     1      30.032  39.256  52.304  1.00  0.00     0.169 HD
ENDBRANCH  12  20
TORSDOF 2
ENDMDL
MODEL 4
REMARK VINA RESULT:      -8.4      3.542      7.564
REMARK  2 active torsions:
REMARK  status: ('A' for Active; 'I' for Inactive)
REMARK       I    between atoms: C_2  and  N_3 
REMARK    1  A    between atoms: N_3  and  C_4 
REMARK    2  A    between atoms: C_15  and  N_16 
REMARK       I    between atoms: N_16  and  C_17 
ROOT
HETATM    1  C   UNL     1      28.651  40.700  52.079  1.00  0.00     0.036 A 
HETATM    2  C   UNL     1      28.301  41.696  51.161  1.00  0.00     0.062 A 
HETATM    3  C   UNL     1      27.733  42.902  51.562  1.00  0.00     0.070 A 
HETATM    4  C   UNL     1      27.507  43.114  52.934  1.00  0.00    -0.006 A 
HETATM    5  C   UNL     1      27.851  42.125  53.866  1.00  0.00     0.016 A 
HETATM    6  C   UNL     1      28.421  40.926  53.439  1.00  0.00     0.030 A 
HETATM    7  N   UNL     1      27.417  43.829  50.638  1.00  0.00    -0.247 NA
HETATM    8  C   UNL     1      26.869  44.996  51.018  1.00  0.00     0.070 A 
HETATM    9  C   UNL     1      26.608  45.292  52.367  1.00  0.00    -0.006 A 
HETATM   10  C   UNL     1      26.936  44.329  53.326  1.00  0.00     0.027 A 
HETATM   11  C   UNL     1      26.547  45.951  50.056  1.00  0.00     0.062 A 
HETATM   12  C   UNL     1      25.977  47.182  50.394  1.00  0.00     0.036 A 
HETATM   13  C   UNL     1      25.723  47.460  51.739  1.00  0.00     0.030 A 
HETATM   14  C   UNL     1      26.036  46.522  52.723  1.00  0.00     0.016 A 
ENDROOT
BRANCH   1  15
HETATM   15  N   UNL     1      29.234  39.463  51.727  1.00  0.00    -0.327 N 
HETATM   16  C   UNL     1      29.105  38.779  50.532  1.00  0.00     0.218 C 
HETATM   17  C   UNL     1      29.884  37.487  50.520  1.00  0.00     0.117 C 
HETATM   18  O   UNL     1      28.428  39.106  49.565  1.00  0.00    -0.274 OA
HETATM   19  H   UNL     1      29.806  39.027  52.439  1.00  0.00     0.169 HD
ENDBRANCH   1  15
BRANCH  12  20
HETATM   20  N   UNL     1      25.631  48.184  49.460  1.00  0.00    -0.327 N 
HETATM   21  C   UNL     1      26.471  49.108  48.866  1.00  0.00     0.218 C 
HETATM   22  C   UNL     1      25.752  50.034  47.915  1.00  0.00     0.117 C 
HETATM   23  O   UNL     1      27.678  49.229  49.047  1.00  0.00    -0.274 OA
HETATM   24  H   UNL     1      24.654  48.227  49.203  1.00  0.00     0.169 HD
ENDBRANCH  12  20
TORSDOF 2
ENDMDL
MODEL 5
REMARK VINA RESULT:      -8.2      2.290      8.117
REMARK  2 active torsions:
REMARK  status: ('A' for Active; 'I' for Inactive)
REMARK       I    between atoms: C_2  and  N_3 
REMARK    1  A    between atoms: N_3  and  C_4 
REMARK    2  A    between atoms: C_15  and  N_16 
REMARK       I    between atoms: N_16  and  C_17 
ROOT
HETATM    1  C   UNL     1      28.854  45.381  55.371  1.00  0.00     0.036 A 
HETATM    2  C   UNL     1      28.373  44.702  54.246  1.00  0.00     0.062 A 
HETATM    3  C   UNL     1      27.446  45.275  53.379  1.00  0.00     0.070 A 
HETATM    4  C   UNL     1      26.987  46.575  53.653  1.00  0.00    -0.006 A 
HETATM    5  C   UNL     1      27.460  47.269  54.776  1.00  0.00     0.016 A 
HETATM    6  C   UNL     1      28.390  46.673  55.628  1.00  0.00     0.030 A 
HETATM    7  N   UNL     1      27.017  44.580  52.310  1.00  0.00    -0.247 NA
HETATM    8  C   UNL     1      26.123  45.127  51.467  1.00  0.00     0.070 A 
HETATM    9  C   UNL     1      25.610  46.421  51.664  1.00  0.00    -0.006 A 
HETATM   10  C   UNL     1      26.057  47.142  52.776  1.00  0.00     0.027 A 
HETATM   11  C   UNL     1      25.685  44.402  50.362  1.00  0.00     0.062 A 
HETATM   12  C   UNL     1      24.758  44.922  49.453  1.00  0.00     0.036 A 
HETATM   13  C   UNL     1      24.257  46.209  49.664  1.00  0.00     0.030 A 
HETATM   14  C   UNL     1      24.679  46.957  50.762  1.00  0.00     0.016 A 
ENDROOT
BRANCH   1  15
HETATM   15  N   UNL     1      29.797  44.849  56.277  1.00  0.00    -0.327 N 
HETATM   16  C   UNL     1      30.751  43.878  56.030  1.00  0.00     0.218 C 
HETATM   17  C   UNL     1      31.589  43.569  57.246  1.00  0.00     0.117 C 
HETATM   18  O   UNL     1      30.932  43.273  54.980  1.00  0.00    -0.274 OA
HETATM   19  H   UNL     1      29.761  45.218  57.219  1.00  0.00     0.169 HD
ENDBRANCH   1  15
BRANCH  12  20
HETATM   20  N   UNL     1      24.281  44.231  48.318  1.00  0.00    -0.327 N 
HETATM   21  C   UNL     1      23.156  43.432  48.229  1.00  0.00     0.218 C 
HETATM   22  C   UNL     1      22.954  42.847  46.851  1.00  0.00     0.117 C 
HETATM   23  O   UNL     1      22.364  43.174  49.128  1.00  0.00    -0.274 OA
HETATM   24  H   UNL     1      24.832  44.333  47.476  1.00  0.00     0.169 HD
ENDBRANCH  12  20
TORSDOF 2
ENDMDL
MODEL 6
REMARK VINA RESULT:      -8.0      3.704      7.501
REMARK  2 active torsions:
REMARK  status: ('A' for Active; 'I' for Inactive)
REMARK       I    between atoms: C_2  and  N_3 
REMARK    1  A    between atoms: N_3  and  C_4 
REMARK    2  A    between atoms: C_15  and  N_16 
REMARK       I    between atoms: N_16  and  C_17 
ROOT
HETATM    1  C   UNL     1      29.129  45.212  55.305  1.00  0.00     0.036 A 
HETATM    2  C   UNL     1      29.057  43.945  54.717  1.00  0.00     0.062 A 
HETATM    3  C   UNL     1      28.145  43.650  53.708  1.00  0.00     0.070 A 
HETATM    4  C   UNL     1      27.273  44.664  53.275  1.00  0.00    -0.006 A 
HETATM    5  C   UNL     1      27.332  45.940  53.854  1.00  0.00     0.016 A 
HETATM    6  C   UNL     1      28.257  46.210  54.862  1.00  0.00     0.030 A 
HETATM    7  N   UNL     1      28.118  42.414  53.174  1.00  0.00    -0.247 NA
HETATM    8  C   UNL     1      27.241  42.122  52.199  1.00  0.00     0.070 A 
HETATM    9  C   UNL     1      26.332  43.075  51.705  1.00  0.00    -0.006 A 
HETATM   10  C   UNL     1      26.361  44.358  52.260  1.00  0.00     0.027 A 
HETATM   11  C   UNL     1      27.221  40.842  51.650  1.00  0.00     0.062 A 
HETATM   12  C   UNL     1      26.332  40.484  50.633  1.00  0.00     0.036 A 
HETATM   13  C   UNL     1      25.434  41.442  50.155  1.00  0.00     0.030 A 
HETATM   14  C   UNL     1      25.433  42.731  50.686  1.00  0.00     0.016 A 
ENDROOT
BRANCH   1  15
HETATM   15  N   UNL     1      30.038  45.565  56.326  1.00  0.00    -0.327 N 
HETATM   16  C   UNL     1      29.744  45.958  57.619  1.00  0.00     0.218 C 
HETATM   17  C   UNL     1      30.983  46.250  58.429  1.00  0.00     0.117 C 
HETATM   18  O   UNL     1      28.631  46.104  58.110  1.00  0.00    -0.274 OA
HETATM   19  H   UNL     1      31.018  45.536  56.074  1.00  0.00     0.169 HD
ENDBRANCH   1  15
BRANCH  12  20
HETATM   20  N   UNL     1      26.270  39.202  50.042  1.00  0.00    -0.327 N 
HETATM   21  C   UNL     1      27.222  38.596  49.244  1.00  0.00     0.218 C 
HETATM   22  C   UNL     1      26.815  37.216  48.784  1.00  0.00     0.117 C 
HETATM   23  O   UNL     1      28.300  39.065  48.898  1.00  0.00    -0.274 OA
HETATM   24  H   UNL     1      25.427  38.674  50.226  1.00  0.00     0.169 HD
ENDBRANCH  12  20
TORSDOF 2
ENDMDL
MODEL 7
REMARK VINA RESULT:      -8.0      2.098      7.633
REMARK  2 active torsions:
REMARK  status: ('A' for Active; 'I' for Inactive)
REMARK       I    between atoms: C_2  and  N_3 
REMARK    1  A    between atoms: N_3  and  C_4 
REMARK    2  A    between atoms: C_15  and  N_16 
REMARK       I    between atoms: N_16  and  C_17 
ROOT
HETATM    1  C   UNL     1      29.857  44.332  55.178  1.00  0.00     0.036 A 
HETATM    2  C   UNL     1      28.713  44.787  54.512  1.00  0.00     0.062 A 
HETATM    3  C   UNL     1      28.245  44.179  53.350  1.00  0.00     0.070 A 
HETATM    4  C   UNL     1      28.951  43.075  52.840  1.00  0.00    -0.006 A 
HETATM    5  C   UNL     1      30.099  42.607  53.496  1.00  0.00     0.016 A 
HETATM    6  C   UNL     1      30.546  43.233  54.659  1.00  0.00     0.030 A 
HETATM    7  N   UNL     1      27.139  44.654  52.749  1.00  0.00    -0.247 NA
HETATM    8  C   UNL     1      26.680  44.072  51.628  1.00  0.00     0.070 A 
HETATM    9  C   UNL     1      27.324  42.964  51.048  1.00  0.00    -0.006 A 
HETATM   10  C   UNL     1      28.473  42.471  51.674  1.00  0.00     0.027 A 
HETATM   11  C   UNL     1      25.534  44.568  51.013  1.00  0.00     0.062 A 
HETATM   12  C   UNL     1      25.012  44.001  49.846  1.00  0.00     0.036 A 
HETATM   13  C   UNL     1      25.664  42.901  49.282  1.00  0.00     0.030 A 
HETATM   14  C   UNL     1      26.813  42.383  49.878  1.00  0.00     0.016 A 
ENDROOT
BRANCH   1  15
HETATM   15  N   UNL     1      30.370  44.908  56.361  1.00  0.00    -0.327 N 
HETATM   16  C   UNL     1      29.733  45.790  57.215  1.00  0.00     0.218 C 
HETATM   17  C   UNL     1      30.599  46.185  58.386  1.00  0.00     0.117 C 
HETATM   18  O   UNL     1      28.611  46.263  57.084  1.00  0.00    -0.274 OA
HETATM   19  H   UNL     1      31.318  44.649  56.602  1.00  0.00     0.169 HD
ENDBRANCH   1  15
BRANCH  12  20
HETATM   20  N   UNL     1      23.854  44.464  49.183  1.00  0.00    -0.327 N 
HETATM   21  C   UNL     1      22.538  44.151  49.467  1.00  0.00     0.218 C 
HETATM   22  C   UNL     1      21.556  44.831  48.543  1.00  0.00     0.117 C 
HETATM   23  O   UNL     1      22.133  43.404  50.350  1.00  0.00    -0.274 OA
HETATM   24  H   UNL     1      24.014  45.096  48.410  1.00  0.00     0.169 HD
ENDBRANCH  12  20
TORSDOF 2
ENDMDL
MODEL 8
REMARK VINA RESULT:      -7.8      3.763      9.876
REMARK  2 active torsions:
REMARK  status: ('A' for Active; 'I' for Inactive)
REMARK       I    between atoms: C_2  and  N_3 
REMARK    1  A    between atoms: N_3  and  C_4 
REMARK    2  A    between atoms: C_15  and  N_16 
REMARK       I    between atoms: N_16  and  C_17 
ROOT
HETATM    1  C   UNL     1      25.848  46.015  49.770  1.00  0.00     0.036 A 
HETATM    2  C   UNL     1      24.471  46.176  49.578  1.00  0.00     0.062 A 
HETATM    3  C   UNL     1      23.903  47.419  49.309  1.00  0.00     0.070 A 
HETATM    4  C   UNL     1      24.749  48.539  49.231  1.00  0.00    -0.006 A 
HETATM    5  C   UNL     1      26.131  48.395  49.420  1.00  0.00     0.016 A 
HETATM    6  C   UNL     1      26.675  47.138  49.686  1.00  0.00     0.030 A 
HETATM    7  N   UNL     1      22.573  47.518  49.132  1.00  0.00    -0.247 NA
HETATM    8  C   UNL     1      22.018  48.714  48.870  1.00  0.00     0.070 A 
HETATM    9  C   UNL     1      22.788  49.887  48.774  1.00  0.00    -0.006 A 
HETATM   10  C   UNL     1      24.170  49.782  48.959  1.00  0.00     0.027 A 
HETATM   11  C   UNL     1      20.641  48.809  48.685  1.00  0.00     0.062 A 
HETATM   12  C   UNL     1      20.011  50.027  48.409  1.00  0.00     0.036 A 
HETATM   13  C   UNL     1      20.790  51.183  48.318  1.00  0.00     0.030 A 
HETATM   14  C   UNL     1      22.171  51.116  48.499  1.00  0.00     0.016 A 
ENDROOT
BRANCH   1  15
HETATM   15  N   UNL     1      26.474  44.779  50.039  1.00  0.00    -0.327 N 
HETATM   16  C   UNL     1      26.866  44.281  51.268  1.00  0.00     0.218 C 
HETATM   17  C   UNL     1      27.500  42.916  51.163  1.00  0.00     0.117 C 
HETATM   18  O   UNL     1      26.771  44.841  52.354  1.00  0.00    -0.274 OA
HETATM   19  H   UNL     1      26.665  44.197  49.234  1.00  0.00     0.169 HD
ENDBRANCH   1  15
BRANCH  12  20
HETATM   20  N   UNL     1      18.620  50.179  48.213  1.00  0.00    -0.327 N 
HETATM   21  C   UNL     1      17.677  50.577  49.143  1.00  0.00     0.218 C 
HETATM   22  C   UNL     1      16.277  50.625  48.580  1.00  0.00     0.117 C 
HETATM   23  O   UNL     1      17.878  50.869  50.316  1.00  0.00    -0.274 OA
HETATM   24  H   UNL     1      18.281  49.967  47.285  1.00  0.00     0.169 HD
ENDBRANCH  12  20
TORSDOF 2
ENDMDL
MODEL 9
REMARK VINA RESULT:      -7.7      3.696      5.355
REMARK  2 active torsions:
REMARK  status: ('A' for Active; 'I' for Inactive)
REMARK       I    between atoms: C_2  and  N_3 
REMARK    1  A    between atoms: N_3  and  C_4 
REMARK    2  A    between atoms: C_15  and  N_16 
REMARK       I    between atoms: N_16  and  C_17 
ROOT
HETATM    1  C   UNL     1      27.562  40.680  50.053  1.00  0.00     0.036 A 
HETATM    2  C   UNL     1      27.198  41.922  50.585  1.00  0.00     0.062 A 
HETATM    3  C   UNL     1      27.786  42.431  51.740  1.00  0.00     0.070 A 
HETATM    4  C   UNL     1      28.775  41.666  52.382  1.00  0.00    -0.006 A 
HETATM    5  C   UNL     1      29.152  40.419  51.861  1.00  0.00     0.016 A 
HETATM    6  C   UNL     1      28.548  39.933  50.702  1.00  0.00     0.030 A 
HETATM    7  N   UNL     1      27.400  43.632  52.209  1.00  0.00    -0.247 NA
HETATM    8  C   UNL     1      27.965  44.132  53.322  1.00  0.00     0.070 A 
HETATM    9  C   UNL     1      28.961  43.434  54.029  1.00  0.00    -0.006 A 
HETATM   10  C   UNL     1      29.360  42.187  53.540  1.00  0.00     0.027 A 
HETATM   11  C   UNL     1      27.561  45.376  53.801  1.00  0.00     0.062 A 
HETATM   12  C   UNL     1      28.116  45.944  54.952  1.00  0.00     0.036 A 
HETATM   13  C   UNL     1      29.103  45.237  55.643  1.00  0.00     0.030 A 
HETATM   14  C   UNL     1      29.526  43.990  55.186  1.00  0.00     0.016 A 
ENDROOT
BRANCH   1  15
HETATM   15  N   UNL     1      27.002  40.121  48.884  1.00  0.00    -0.327 N 
HETATM   16  C   UNL     1      27.276  40.459  47.572  1.00  0.00     0.218 C 
HETATM   17  C   UNL     1      26.485  39.636  46.585  1.00  0.00     0.117 C 
HETATM   18  O   UNL     1      28.037  41.336  47.180  1.00  0.00    -0.274 OA
HETATM   19  H   UNL     1      26.313  39.394  49.029  1.00  0.00     0.169 HD
ENDBRANCH   1  15
BRANCH  12  20
HETATM   20  N   UNL     1      27.744  47.200  55.480  1.00  0.00    -0.327 N 
HETATM   21  C   UNL     1      26.568  47.893  55.257  1.00  0.00     0.218 C 
HETATM   22  C   UNL     1      26.514  49.214  55.986  1.00  0.00     0.117 C 
HETATM   23  O   UNL     1      25.629  47.541  54.552  1.00  0.00    -0.274 OA
HETATM   24  H   UNL     1      28.422  47.640  56.087  1.00  0.00     0.169 HD
ENDBRANCH  12  20
TORSDOF 2
ENDMDL
MODEL 10
REMARK VINA RESULT:      -7.7      2.827      7.740
REMARK  2 active torsions:
REMARK  status: ('A' for Active; 'I' for Inactive)
REMARK       I    between atoms: C_2  and  N_3 
REMARK    1  A    between atoms: N_3  and  C_4 
REMARK    2  A    between atoms: C_15  and  N_16 
REMARK       I    between atoms: N_16  and  C_17 
ROOT
HETATM    1  C   UNL     1      28.566  45.983  55.213  1.00  0.00     0.036 A 
HETATM    2  C   UNL     1      28.180  44.906  54.408  1.00  0.00     0.062 A 
HETATM    3  C   UNL     1      27.175  45.023  53.451  1.00  0.00     0.070 A 
HETATM    4  C   UNL     1      26.535  46.266  53.300  1.00  0.00    -0.006 A 
HETATM    5  C   UNL     1      26.911  47.355  54.099  1.00  0.00     0.016 A 
HETATM    6  C   UNL     1      27.922  47.212  55.048  1.00  0.00     0.030 A 
HETATM    7  N   UNL     1      26.842  43.956  52.701  1.00  0.00    -0.247 NA
HETATM    8  C   UNL     1      25.874  44.062  51.775  1.00  0.00     0.070 A 
HETATM    9  C   UNL     1      25.181  45.266  51.556  1.00  0.00    -0.006 A 
HETATM   10  C   UNL     1      25.528  46.374  52.336  1.00  0.00     0.027 A 
HETATM   11  C   UNL     1      25.537  42.954  51.001  1.00  0.00     0.062 A 
HETATM   12  C   UNL     1      24.540  43.007  50.022  1.00  0.00     0.036 A 
HETATM   13  C   UNL     1      23.860  44.211  49.818  1.00  0.00     0.030 A 
HETATM   14  C   UNL     1      24.178  45.336  50.579  1.00  0.00     0.016 A 
ENDROOT
BRANCH   1  15
HETATM   15  N   UNL     1      29.582  45.920  56.192  1.00  0.00    -0.327 N 
HETATM   16  C   UNL     1      29.436  45.994  57.565  1.00  0.00     0.218 C 
HETATM   17  C   UNL     1      30.753  45.882  58.293  1.00  0.00     0.117 C 
HETATM   18  O   UNL     1      28.394  46.162  58.188  1.00  0.00    -0.274 OA
HETATM   19  H   UNL     1      30.526  45.819  55.842  1.00  0.00     0.169 HD
ENDBRANCH   1  15
BRANCH  12  20
HETATM   20  N   UNL     1      24.159  41.916  49.211  1.00  0.00    -0.327 N 
HETATM   21  C   UNL     1      24.908  41.294  48.229  1.00  0.00     0.218 C 
HETATM   22  C   UNL     1      24.176  40.156  47.559  1.00  0.00     0.117 C 
HETATM   23  O   UNL     1      26.047  41.583  47.879  1.00  0.00    -0.274 OA
HETATM   24  H   UNL     1      23.228  41.553  49.370  1.00  0.00     0.169 HD
ENDBRANCH  12  20
TORSDOF 2
ENDMDL
