MODEL 1
REMARK VINA RESULT:     -10.0      0.000      0.000
REMARK  9 active torsions:
REMARK  status: ('A' for Active; 'I' for Inactive)
REMARK    1  A    between atoms: C_6  and  N_7 
REMARK       I    between atoms: N_7  and  C_8 
REMARK    2  A    between atoms: C_8  and  C_9 
REMARK    3  A    between atoms: C_9  and  N_10 
REMARK       I    between atoms: N_10  and  C_11 
REMARK    4  A    between atoms: C_11  and  C_12 
REMARK    5  A    between atoms: C_12  and  S_13 
REMARK    6  A    between atoms: S_13  and  C_14 
REMARK    7  A    between atoms: N_15  and  C_16 
REMARK    8  A    between atoms: C_22  and  C_23 
REMARK    9  A    between atoms: C_23  and  N_24 
ROOT
HETATM    1  C   UNL     1      25.364  45.218  51.639  1.00  0.00     0.185 C 
ENDROOT
BRANCH   1   2
HETATM    2  C   UNL     1      24.200  44.861  50.730  1.00  0.00     0.227 C 
HETATM    3  N   UNL     1      23.818  45.858  49.861  1.00  0.00    -0.352 N 
HETATM    4  H   UNL     1      24.217  46.786  49.951  1.00  0.00     0.162 HD
HETATM    5  O   UNL     1      23.583  43.797  50.798  1.00  0.00    -0.273 OA
BRANCH   3   6
HETATM    6  C   UNL     1      22.751  45.681  48.885  1.00  0.00     0.225 C 
BRANCH   6   7
HETATM    7  C   UNL     1      22.180  46.998  48.338  1.00  0.00     0.239 C 
HETATM    8  N   UNL     1      21.709  47.843  49.332  1.00  0.00    -0.325 N 
HETATM    9  H   UNL     1      21.512  47.356  50.205  1.00  0.00     0.169 HD
HETATM   10  O   UNL     1      22.031  47.158  47.130  1.00  0.00    -0.271 OA
BRANCH   8  11
HETATM   11  C   UNL     1      21.045  49.074  49.117  1.00  0.00     0.046 A 
HETATM   12  C   UNL     1      19.636  49.091  49.254  1.00  0.00    -0.034 A 
HETATM   13  C   UNL     1      18.928  50.280  49.007  1.00  0.00     0.015 A 
HETATM   14  C   UNL     1      18.850  47.852  49.591  1.00  0.00     0.050 C 
HETATM   15  C   UNL     1      19.591  51.449  48.629  1.00  0.00    -0.061 A 
HETATM   16  C   UNL     1      18.829  52.711  48.354  1.00  0.00     0.048 C 
HETATM   17  C   UNL     1      20.985  51.438  48.558  1.00  0.00     0.015 A 
HETATM   18  C   UNL     1      21.728  50.272  48.821  1.00  0.00    -0.034 A 
HETATM   19  C   UNL     1      23.228  50.406  48.787  1.00  0.00     0.050 C 
ENDBRANCH   8  11
ENDBRANCH   6   7
ENDBRANCH   3   6
ENDBRANCH   1   2
BRANCH   1  20
HETATM   20  S   UNL     1      24.856  45.043  53.375  1.00  0.00    -0.081 SA
BRANCH  20  21
HETATM   21  C   UNL     1      26.183  45.806  54.188  1.00  0.00     0.196 A 
HETATM   22  N   UNL     1      27.412  45.219  54.429  1.00  0.00    -0.274 N 
HETATM   23  C   UNL     1      28.075  46.151  55.215  1.00  0.00     0.161 A 
HETATM   24  N   UNL     1      27.289  47.183  55.453  1.00  0.00    -0.132 NA
HETATM   25  N   UNL     1      26.106  46.959  54.815  1.00  0.00    -0.122 NA
BRANCH  22  26
HETATM   26  C   UNL     1      27.948  44.001  53.948  1.00  0.00     0.043 A 
HETATM   27  C   UNL     1      27.489  42.780  54.454  1.00  0.00     0.030 A 
HETATM   28  C   UNL     1      27.989  41.585  53.933  1.00  0.00     0.002 A 
HETATM   29  C   UNL     1      28.949  41.607  52.921  1.00  0.00     0.000 A 
HETATM   30  C   UNL     1      29.414  42.823  52.424  1.00  0.00     0.002 A 
HETATM   31  C   UNL     1      28.915  44.023  52.932  1.00  0.00     0.030 A 
ENDBRANCH  22  26
BRANCH  23  32
HETATM   32  C   UNL     1      29.513  46.130  55.582  1.00  0.00     0.315 C 
BRANCH  32  33
HETATM   33  N   UNL     1      29.786  45.011  56.564  1.00  0.00    -0.064 N 
HETATM   34  H   UNL     1      28.881  44.520  56.658  1.00  0.00     0.280 HD
HETATM   35  C   UNL     1      30.155  45.483  57.959  1.00  0.00     0.235 C 
HETATM   36  C   UNL     1      31.535  44.899  58.198  1.00  0.00     0.029 C 
HETATM   37  C   UNL     1      31.514  43.609  57.403  1.00  0.00     0.029 C 
HETATM   38  C   UNL     1      30.826  44.020  56.116  1.00  0.00     0.235 C 
ENDBRANCH  32  33
ENDBRANCH  23  32
ENDBRANCH  20  21
ENDBRANCH   1  20
TORSDOF 9
ENDMDL
MODEL 2
REMARK VINA RESULT:      -9.9      2.347     11.658
REMARK  9 active torsions:
REMARK  status: ('A' for Active; 'I' for Inactive)
REMARK    1  A    between atoms: C_6  and  N_7 
REMARK       I    between atoms: N_7  and  C_8 
REMARK    2  A    between atoms: C_8  and  C_9 
REMARK    3  A    between atoms: C_9  and  N_10 
REMARK       I    between atoms: N_10  and  C_11 
REMARK    4  A    between atoms: C_11  and  C_12 
REMARK    5  A    between atoms: C_12  and  S_13 
REMARK    6  A    between atoms: S_13  and  C_14 
REMARK    7  A    between atoms: N_15  and  C_16 
REMARK    8  A    between atoms: C_22  and  C_23 
REMARK    9  A    between atoms: C_23  and  N_24 
ROOT
HETATM    1  C   UNL     1      24.564  47.970  49.339  1.00  0.00     0.185 C 
ENDROOT
BRANCH   1   2
HETATM    2  C   UNL     1      24.732  47.071  50.552  1.00  0.00     0.227 C 
HETATM    3  N   UNL     1      24.583  45.726  50.299  1.00  0.00    -0.352 N 
HETATM    4  H   UNL     1      24.250  45.416  49.392  1.00  0.00     0.162 HD
HETATM    5  O   UNL     1      24.915  47.493  51.694  1.00  0.00    -0.273 OA
BRANCH   3   6
HETATM    6  C   UNL     1      24.752  44.710  51.330  1.00  0.00     0.225 C 
BRANCH   6   7
HETATM    7  C   UNL     1      26.204  44.531  51.797  1.00  0.00     0.239 C 
HETATM    8  N   UNL     1      26.309  44.215  53.144  1.00  0.00    -0.325 N 
HETATM    9  H   UNL     1      25.476  44.464  53.675  1.00  0.00     0.169 HD
HETATM   10  O   UNL     1      27.137  44.815  51.051  1.00  0.00    -0.271 OA
BRANCH   8  11
HETATM   11  C   UNL     1      27.520  44.089  53.865  1.00  0.00     0.046 A 
HETATM   12  C   UNL     1      27.941  45.199  54.638  1.00  0.00    -0.034 A 
HETATM   13  C   UNL     1      29.159  45.137  55.337  1.00  0.00     0.015 A 
HETATM   14  C   UNL     1      27.158  46.484  54.685  1.00  0.00     0.050 C 
HETATM   15  C   UNL     1      29.963  43.997  55.285  1.00  0.00    -0.061 A 
HETATM   16  C   UNL     1      31.268  43.942  56.022  1.00  0.00     0.048 C 
HETATM   17  C   UNL     1      29.510  42.887  54.572  1.00  0.00     0.015 A 
HETATM   18  C   UNL     1      28.285  42.904  53.878  1.00  0.00    -0.034 A 
HETATM   19  C   UNL     1      27.869  41.620  53.211  1.00  0.00     0.050 C 
ENDBRANCH   8  11
ENDBRANCH   6   7
ENDBRANCH   3   6
ENDBRANCH   1   2
BRANCH   1  20
HETATM   20  S   UNL     1      23.089  49.008  49.551  1.00  0.00    -0.081 SA
BRANCH  20  21
HETATM   21  C   UNL     1      22.088  48.431  48.259  1.00  0.00     0.196 A 
HETATM   22  N   UNL     1      20.802  48.867  47.993  1.00  0.00    -0.274 N 
HETATM   23  C   UNL     1      20.373  48.027  46.975  1.00  0.00     0.161 A 
HETATM   24  N   UNL     1      21.310  47.144  46.691  1.00  0.00    -0.132 NA
HETATM   25  N   UNL     1      22.376  47.396  47.501  1.00  0.00    -0.122 NA
BRANCH  22  26
HETATM   26  C   UNL     1      20.079  49.952  48.540  1.00  0.00     0.043 A 
HETATM   27  C   UNL     1      20.172  51.225  47.966  1.00  0.00     0.030 A 
HETATM   28  C   UNL     1      19.413  52.274  48.484  1.00  0.00     0.002 A 
HETATM   29  C   UNL     1      18.571  52.061  49.576  1.00  0.00     0.000 A 
HETATM   30  C   UNL     1      18.485  50.796  50.156  1.00  0.00     0.002 A 
HETATM   31  C   UNL     1      19.234  49.738  49.640  1.00  0.00     0.030 A 
ENDBRANCH  22  26
BRANCH  23  32
HETATM   32  C   UNL     1      19.144  48.190  46.160  1.00  0.00     0.315 C 
BRANCH  32  33
HETATM   33  N   UNL     1      18.043  47.294  46.686  1.00  0.00    -0.064 N 
HETATM   34  H   UNL     1      17.970  46.533  45.989  1.00  0.00     0.280 HD
HETATM   35  C   UNL     1      16.676  47.950  46.738  1.00  0.00     0.235 C 
HETATM   36  C   UNL     1      16.283  47.880  48.201  1.00  0.00     0.029 C 
HETATM   37  C   UNL     1      16.952  46.611  48.686  1.00  0.00     0.029 C 
HETATM   38  C   UNL     1      18.319  46.683  48.034  1.00  0.00     0.235 C 
ENDBRANCH  32  33
ENDBRANCH  23  32
ENDBRANCH  20  21
ENDBRANCH   1  20
TORSDOF 9
ENDMDL
MODEL 3
REMARK VINA RESULT:      -9.9      2.609     10.071
REMARK  9 active torsions:
REMARK  status: ('A' for Active; 'I' for Inactive)
REMARK    1  A    between atoms: C_6  and  N_7 
REMARK       I    between atoms: N_7  and  C_8 
REMARK    2  A    between atoms: C_8  and  C_9 
REMARK    3  A    between atoms: C_9  and  N_10 
REMARK       I    between atoms: N_10  and  C_11 
REMARK    4  A    between atoms: C_11  and  C_12 
REMARK    5  A    between atoms: C_12  and  S_13 
REMARK    6  A    between atoms: S_13  and  C_14 
REMARK    7  A    between atoms: N_15  and  C_16 
REMARK    8  A    between atoms: C_22  and  C_23 
REMARK    9  A    between atoms: C_23  and  N_24 
ROOT
HETATM    1  C   UNL     1      22.661  44.130  49.632  1.00  0.00     0.185 C 
ENDROOT
BRANCH   1   2
HETATM    2  C   UNL     1      23.955  43.493  50.110  1.00  0.00     0.227 C 
HETATM    3  N   UNL     1      24.983  43.517  49.195  1.00  0.00    -0.352 N 
HETATM    4  H   UNL     1      24.805  43.819  48.244  1.00  0.00     0.162 HD
HETATM    5  O   UNL     1      24.075  42.928  51.197  1.00  0.00    -0.273 OA
BRANCH   3   6
HETATM    6  C   UNL     1      26.310  42.993  49.493  1.00  0.00     0.225 C 
BRANCH   6   7
HETATM    7  C   UNL     1      27.121  43.862  50.465  1.00  0.00     0.239 C 
HETATM    8  N   UNL     1      27.031  43.437  51.782  1.00  0.00    -0.325 N 
HETATM    9  H   UNL     1      26.219  42.846  51.953  1.00  0.00     0.169 HD
HETATM   10  O   UNL     1      27.637  44.909  50.082  1.00  0.00    -0.271 OA
BRANCH   8  11
HETATM   11  C   UNL     1      27.592  44.101  52.899  1.00  0.00     0.046 A 
HETATM   12  C   UNL     1      28.829  43.621  53.394  1.00  0.00    -0.034 A 
HETATM   13  C   UNL     1      29.403  44.220  54.528  1.00  0.00     0.015 A 
HETATM   14  C   UNL     1      29.527  42.434  52.785  1.00  0.00     0.050 C 
HETATM   15  C   UNL     1      28.775  45.284  55.178  1.00  0.00    -0.061 A 
HETATM   16  C   UNL     1      29.385  45.911  56.396  1.00  0.00     0.048 C 
HETATM   17  C   UNL     1      27.588  45.790  54.645  1.00  0.00     0.015 A 
HETATM   18  C   UNL     1      26.996  45.230  53.498  1.00  0.00    -0.034 A 
HETATM   19  C   UNL     1      25.759  45.913  52.976  1.00  0.00     0.050 C 
ENDBRANCH   8  11
ENDBRANCH   6   7
ENDBRANCH   3   6
ENDBRANCH   1   2
BRANCH   1  20
HETATM   20  S   UNL     1      22.980  45.105  48.133  1.00  0.00    -0.081 SA
BRANCH  20  21
HETATM   21  C   UNL     1      21.982  46.492  48.420  1.00  0.00     0.196 A 
HETATM   22  N   UNL     1      22.440  47.729  48.837  1.00  0.00    -0.274 N 
HETATM   23  C   UNL     1      21.277  48.454  49.059  1.00  0.00     0.161 A 
HETATM   24  N   UNL     1      20.222  47.697  48.832  1.00  0.00    -0.132 NA
HETATM   25  N   UNL     1      20.667  46.470  48.441  1.00  0.00    -0.122 NA
BRANCH  22  26
HETATM   26  C   UNL     1      23.762  48.218  48.951  1.00  0.00     0.043 A 
HETATM   27  C   UNL     1      24.686  47.573  49.780  1.00  0.00     0.030 A 
HETATM   28  C   UNL     1      26.001  48.035  49.842  1.00  0.00     0.002 A 
HETATM   29  C   UNL     1      26.392  49.142  49.089  1.00  0.00     0.000 A 
HETATM   30  C   UNL     1      25.471  49.794  48.270  1.00  0.00     0.002 A 
HETATM   31  C   UNL     1      24.156  49.334  48.195  1.00  0.00     0.030 A 
ENDBRANCH  22  26
BRANCH  23  32
HETATM   32  C   UNL     1      21.184  49.913  49.312  1.00  0.00     0.315 C 
BRANCH  32  33
HETATM   33  N   UNL     1      19.762  50.391  49.109  1.00  0.00    -0.064 N 
HETATM   34  H   UNL     1      19.208  49.524  49.011  1.00  0.00     0.280 HD
HETATM   35  C   UNL     1      19.545  51.177  47.830  1.00  0.00     0.235 C 
HETATM   36  C   UNL     1      19.041  52.528  48.302  1.00  0.00     0.029 C 
HETATM   37  C   UNL     1      18.288  52.198  49.574  1.00  0.00     0.029 C 
HETATM   38  C   UNL     1      19.198  51.193  50.252  1.00  0.00     0.235 C 
ENDBRANCH  32  33
ENDBRANCH  23  32
ENDBRANCH  20  21
ENDBRANCH   1  20
TORSDOF 9
ENDMDL
MODEL 4
REMARK VINA RESULT:      -9.7      2.682     10.082
REMARK  9 active torsions:
REMARK  status: ('A' for Active; 'I' for Inactive)
REMARK    1  A    between atoms: C_6  and  N_7 
REMARK       I    between atoms: N_7  and  C_8 
REMARK    2  A    between atoms: C_8  and  C_9 
REMARK    3  A    between atoms: C_9  and  N_10 
REMARK       I    between atoms: N_10  and  C_11 
REMARK    4  A    between atoms: C_11  and  C_12 
REMARK    5  A    between atoms: C_12  and  S_13 
REMARK    6  A    between atoms: S_13  and  C_14 
REMARK    7  A    between atoms: N_15  and  C_16 
REMARK    8  A    between atoms: C_22  and  C_23 
REMARK    9  A    between atoms: C_23  and  N_24 
ROOT
HETATM    1  C   UNL     1      22.475  44.116  49.559  1.00  0.00     0.185 C 
ENDROOT
BRANCH   1   2
HETATM    2  C   UNL     1      23.770  43.431  49.960  1.00  0.00     0.227 C 
HETATM    3  N   UNL     1      24.801  43.570  49.058  1.00  0.00    -0.352 N 
HETATM    4  H   UNL     1      24.624  43.985  48.149  1.00  0.00     0.162 HD
HETATM    5  O   UNL     1      23.891  42.739  50.971  1.00  0.00    -0.273 OA
BRANCH   3   6
HETATM    6  C   UNL     1      26.129  43.020  49.293  1.00  0.00     0.225 C 
BRANCH   6   7
HETATM    7  C   UNL     1      26.973  43.830  50.288  1.00  0.00     0.239 C 
HETATM    8  N   UNL     1      26.864  43.374  51.594  1.00  0.00    -0.325 N 
HETATM    9  H   UNL     1      26.027  42.813  51.749  1.00  0.00     0.169 HD
HETATM   10  O   UNL     1      27.533  44.863  49.933  1.00  0.00    -0.271 OA
BRANCH   8  11
HETATM   11  C   UNL     1      27.448  43.985  52.729  1.00  0.00     0.046 A 
HETATM   12  C   UNL     1      26.727  45.030  53.356  1.00  0.00    -0.034 A 
HETATM   13  C   UNL     1      27.286  45.696  54.459  1.00  0.00     0.015 A 
HETATM   14  C   UNL     1      25.396  45.506  52.837  1.00  0.00     0.050 C 
HETATM   15  C   UNL     1      28.545  45.345  54.951  1.00  0.00    -0.061 A 
HETATM   16  C   UNL     1      29.144  46.069  56.121  1.00  0.00     0.048 C 
HETATM   17  C   UNL     1      29.220  44.273  54.366  1.00  0.00     0.015 A 
HETATM   18  C   UNL     1      28.680  43.568  53.274  1.00  0.00    -0.034 A 
HETATM   19  C   UNL     1      29.468  42.383  52.780  1.00  0.00     0.050 C 
ENDBRANCH   8  11
ENDBRANCH   6   7
ENDBRANCH   3   6
ENDBRANCH   1   2
BRANCH   1  20
HETATM   20  S   UNL     1      22.761  45.150  48.094  1.00  0.00    -0.081 SA
BRANCH  20  21
HETATM   21  C   UNL     1      21.766  46.522  48.455  1.00  0.00     0.196 A 
HETATM   22  N   UNL     1      22.235  47.769  48.826  1.00  0.00    -0.274 N 
HETATM   23  C   UNL     1      21.082  48.476  49.140  1.00  0.00     0.161 A 
HETATM   24  N   UNL     1      20.025  47.699  49.005  1.00  0.00    -0.132 NA
HETATM   25  N   UNL     1      20.458  46.478  48.585  1.00  0.00    -0.122 NA
BRANCH  22  26
HETATM   26  C   UNL     1      23.554  48.282  48.826  1.00  0.00     0.043 A 
HETATM   27  C   UNL     1      23.880  49.394  48.043  1.00  0.00     0.030 A 
HETATM   28  C   UNL     1      25.171  49.921  48.093  1.00  0.00     0.002 A 
HETATM   29  C   UNL     1      26.137  49.336  48.913  1.00  0.00     0.000 A 
HETATM   30  C   UNL     1      25.817  48.221  49.686  1.00  0.00     0.002 A 
HETATM   31  C   UNL     1      24.526  47.692  49.649  1.00  0.00     0.030 A 
ENDBRANCH  22  26
BRANCH  23  32
HETATM   32  C   UNL     1      20.985  49.935  49.391  1.00  0.00     0.315 C 
BRANCH  32  33
HETATM   33  N   UNL     1      19.597  50.434  49.051  1.00  0.00    -0.064 N 
HETATM   34  H   UNL     1      19.047  49.576  48.875  1.00  0.00     0.280 HD
HETATM   35  C   UNL     1      19.523  51.250  47.774  1.00  0.00     0.235 C 
HETATM   36  C   UNL     1      18.986  52.596  48.221  1.00  0.00     0.029 C 
HETATM   37  C   UNL     1      18.100  52.248  49.399  1.00  0.00     0.029 C 
HETATM   38  C   UNL     1      18.924  51.218  50.146  1.00  0.00     0.235 C 
ENDBRANCH  32  33
ENDBRANCH  23  32
ENDBRANCH  20  21
ENDBRANCH   1  20
TORSDOF 9
ENDMDL
MODEL 5
REMARK VINA RESULT:      -9.6      2.436     11.368
REMARK  9 active torsions:
REMARK  status: ('A' for Active; 'I' for Inactive)
REMARK    1  A    between atoms: C_6  and  N_7 
REMARK       I    between atoms: N_7  and  C_8 
REMARK    2  A    between atoms: C_8  and  C_9 
REMARK    3  A    between atoms: C_9  and  N_10 
REMARK       I    between atoms: N_10  and  C_11 
REMARK    4  A    between atoms: C_11  and  C_12 
REMARK    5  A    between atoms: C_12  and  S_13 
REMARK    6  A    between atoms: S_13  and  C_14 
REMARK    7  A    between atoms: N_15  and  C_16 
REMARK    8  A    between atoms: C_22  and  C_23 
REMARK    9  A    between atoms: C_23  and  N_24 
ROOT
HETATM    1  C   UNL     1      24.540  48.251  49.593  1.00  0.00     0.185 C 
ENDROOT
BRANCH   1   2
HETATM    2  C   UNL     1      24.246  46.807  49.961  1.00  0.00     0.227 C 
HETATM    3  N   UNL     1      24.832  46.377  51.130  1.00  0.00    -0.352 N 
HETATM    4  H   UNL     1      25.508  46.967  51.602  1.00  0.00     0.162 HD
HETATM    5  O   UNL     1      23.598  46.040  49.247  1.00  0.00    -0.273 OA
BRANCH   3   6
HETATM    6  C   UNL     1      24.626  45.037  51.663  1.00  0.00     0.225 C 
BRANCH   6   7
HETATM    7  C   UNL     1      25.524  44.697  52.862  1.00  0.00     0.239 C 
HETATM    8  N   UNL     1      26.874  44.896  52.607  1.00  0.00    -0.325 N 
HETATM    9  H   UNL     1      27.089  44.915  51.611  1.00  0.00     0.169 HD
HETATM   10  O   UNL     1      25.055  44.153  53.858  1.00  0.00    -0.271 OA
BRANCH   8  11
HETATM   11  C   UNL     1      27.932  44.575  53.489  1.00  0.00     0.046 A 
HETATM   12  C   UNL     1      28.662  43.388  53.234  1.00  0.00    -0.034 A 
HETATM   13  C   UNL     1      29.694  43.005  54.107  1.00  0.00     0.015 A 
HETATM   14  C   UNL     1      28.324  42.473  52.086  1.00  0.00     0.050 C 
HETATM   15  C   UNL     1      30.015  43.776  55.226  1.00  0.00    -0.061 A 
HETATM   16  C   UNL     1      31.108  43.355  56.163  1.00  0.00     0.048 C 
HETATM   17  C   UNL     1      29.333  44.976  55.434  1.00  0.00     0.015 A 
HETATM   18  C   UNL     1      28.309  45.403  54.567  1.00  0.00    -0.034 A 
HETATM   19  C   UNL     1      27.701  46.750  54.853  1.00  0.00     0.050 C 
ENDBRANCH   8  11
ENDBRANCH   6   7
ENDBRANCH   3   6
ENDBRANCH   1   2
BRANCH   1  20
HETATM   20  S   UNL     1      23.401  48.790  48.285  1.00  0.00    -0.081 SA
BRANCH  20  21
HETATM   21  C   UNL     1      22.166  49.570  49.218  1.00  0.00     0.196 A 
HETATM   22  N   UNL     1      20.808  49.345  49.085  1.00  0.00    -0.274 N 
HETATM   23  C   UNL     1      20.234  50.285  49.930  1.00  0.00     0.161 A 
HETATM   24  N   UNL     1      21.172  51.029  50.483  1.00  0.00    -0.132 NA
HETATM   25  N   UNL     1      22.377  50.583  50.029  1.00  0.00    -0.122 NA
BRANCH  22  26
HETATM   26  C   UNL     1      20.118  48.357  48.345  1.00  0.00     0.043 A 
HETATM   27  C   UNL     1      19.809  47.124  48.928  1.00  0.00     0.030 A 
HETATM   28  C   UNL     1      19.081  46.179  48.203  1.00  0.00     0.002 A 
HETATM   29  C   UNL     1      18.673  46.457  46.899  1.00  0.00     0.000 A 
HETATM   30  C   UNL     1      18.989  47.681  46.312  1.00  0.00     0.002 A 
HETATM   31  C   UNL     1      19.708  48.636  47.032  1.00  0.00     0.030 A 
ENDBRANCH  22  26
BRANCH  23  32
HETATM   32  C   UNL     1      18.809  50.347  50.339  1.00  0.00     0.315 C 
BRANCH  32  33
HETATM   33  N   UNL     1      18.008  51.140  49.329  1.00  0.00    -0.064 N 
HETATM   34  H   UNL     1      18.690  51.388  48.592  1.00  0.00     0.280 HD
HETATM   35  C   UNL     1      17.464  52.454  49.858  1.00  0.00     0.235 C 
HETATM   36  C   UNL     1      15.961  52.329  49.699  1.00  0.00     0.029 C 
HETATM   37  C   UNL     1      15.809  51.446  48.476  1.00  0.00     0.029 C 
HETATM   38  C   UNL     1      16.870  50.386  48.695  1.00  0.00     0.235 C 
ENDBRANCH  32  33
ENDBRANCH  23  32
ENDBRANCH  20  21
ENDBRANCH   1  20
TORSDOF 9
ENDMDL
MODEL 6
REMARK VINA RESULT:      -9.6      2.510      4.604
REMARK  9 active torsions:
REMARK  status: ('A' for Active; 'I' for Inactive)
REMARK    1  A    between atoms: C_6  and  N_7 
REMARK       I    between atoms: N_7  and  C_8 
REMARK    2  A    between atoms: C_8  and  C_9 
REMARK    3  A    between atoms: C_9  and  N_10 
REMARK       I    between atoms: N_10  and  C_11 
REMARK    4  A    between atoms: C_11  and  C_12 
REMARK    5  A    between atoms: C_12  and  S_13 
REMARK    6  A    between atoms: S_13  and  C_14 
REMARK    7  A    between atoms: N_15  and  C_16 
REMARK    8  A    between atoms: C_22  and  C_23 
REMARK    9  A    between atoms: C_23  and  N_24 
ROOT
HETATM    1  C   UNL     1      26.093  46.680  51.471  1.00  0.00     0.185 C 
ENDROOT
BRANCH   1   2
HETATM    2  C   UNL     1      25.407  46.315  50.166  1.00  0.00     0.227 C 
HETATM    3  N   UNL     1      24.049  46.533  50.146  1.00  0.00    -0.352 N 
HETATM    4  H   UNL     1      23.566  46.787  51.001  1.00  0.00     0.162 HD
HETATM    5  O   UNL     1      25.988  45.793  49.213  1.00  0.00    -0.273 OA
BRANCH   3   6
HETATM    6  C   UNL     1      23.231  46.284  48.966  1.00  0.00     0.225 C 
BRANCH   6   7
HETATM    7  C   UNL     1      22.501  47.527  48.437  1.00  0.00     0.239 C 
HETATM    8  N   UNL     1      21.871  48.256  49.436  1.00  0.00    -0.325 N 
HETATM    9  H   UNL     1      21.708  47.710  50.281  1.00  0.00     0.169 HD
HETATM   10  O   UNL     1      22.382  47.713  47.229  1.00  0.00    -0.271 OA
BRANCH   8  11
HETATM   11  C   UNL     1      21.046  49.387  49.231  1.00  0.00     0.046 A 
HETATM   12  C   UNL     1      19.652  49.226  49.423  1.00  0.00    -0.034 A 
HETATM   13  C   UNL     1      18.789  50.310  49.189  1.00  0.00     0.015 A 
HETATM   14  C   UNL     1      19.046  47.902  49.807  1.00  0.00     0.050 C 
HETATM   15  C   UNL     1      19.281  51.547  48.770  1.00  0.00    -0.061 A 
HETATM   16  C   UNL     1      18.353  52.696  48.508  1.00  0.00     0.048 C 
HETATM   17  C   UNL     1      20.661  51.713  48.644  1.00  0.00     0.015 A 
HETATM   18  C   UNL     1      21.558  50.657  48.892  1.00  0.00    -0.034 A 
HETATM   19  C   UNL     1      23.025  50.982  48.797  1.00  0.00     0.050 C 
ENDBRANCH   8  11
ENDBRANCH   6   7
ENDBRANCH   3   6
ENDBRANCH   1   2
BRANCH   1  20
HETATM   20  S   UNL     1      25.410  45.673  52.820  1.00  0.00    -0.081 SA
BRANCH  20  21
HETATM   21  C   UNL     1      25.294  44.124  52.053  1.00  0.00     0.196 A 
HETATM   22  N   UNL     1      26.305  43.181  52.008  1.00  0.00    -0.274 N 
HETATM   23  C   UNL     1      25.795  42.189  51.181  1.00  0.00     0.161 A 
HETATM   24  N   UNL     1      24.601  42.536  50.742  1.00  0.00    -0.132 NA
HETATM   25  N   UNL     1      24.296  43.749  51.283  1.00  0.00    -0.122 NA
BRANCH  22  26
HETATM   26  C   UNL     1      27.546  43.145  52.686  1.00  0.00     0.043 A 
HETATM   27  C   UNL     1      28.741  43.336  51.984  1.00  0.00     0.030 A 
HETATM   28  C   UNL     1      29.954  43.351  52.673  1.00  0.00     0.002 A 
HETATM   29  C   UNL     1      29.978  43.166  54.055  1.00  0.00     0.000 A 
HETATM   30  C   UNL     1      28.789  42.965  54.756  1.00  0.00     0.002 A 
HETATM   31  C   UNL     1      27.571  42.957  54.077  1.00  0.00     0.030 A 
ENDBRANCH  22  26
BRANCH  23  32
HETATM   32  C   UNL     1      26.375  40.841  50.963  1.00  0.00     0.315 C 
BRANCH  32  33
HETATM   33  N   UNL     1      27.561  40.927  50.026  1.00  0.00    -0.064 N 
HETATM   34  H   UNL     1      28.232  41.547  50.511  1.00  0.00     0.280 HD
HETATM   35  C   UNL     1      27.258  41.592  48.696  1.00  0.00     0.235 C 
HETATM   36  C   UNL     1      27.586  40.531  47.663  1.00  0.00     0.029 C 
HETATM   37  C   UNL     1      28.708  39.744  48.311  1.00  0.00     0.029 C 
HETATM   38  C   UNL     1      28.239  39.612  49.746  1.00  0.00     0.235 C 
ENDBRANCH  32  33
ENDBRANCH  23  32
ENDBRANCH  20  21
ENDBRANCH   1  20
TORSDOF 9
ENDMDL
MODEL 7
REMARK VINA RESULT:      -9.5      2.210     10.636
REMARK  9 active torsions:
REMARK  status: ('A' for Active; 'I' for Inactive)
REMARK    1  A    between atoms: C_6  and  N_7 
REMARK       I    between atoms: N_7  and  C_8 
REMARK    2  A    between atoms: C_8  and  C_9 
REMARK    3  A    between atoms: C_9  and  N_10 
REMARK       I    between atoms: N_10  and  C_11 
REMARK    4  A    between atoms: C_11  and  C_12 
REMARK    5  A    between atoms: C_12  and  S_13 
REMARK    6  A    between atoms: S_13  and  C_14 
REMARK    7  A    between atoms: N_15  and  C_16 
REMARK    8  A    between atoms: C_22  and  C_23 
REMARK    9  A    between atoms: C_23  and  N_24 
ROOT
HETATM    1  C   UNL     1      23.390  44.711  49.872  1.00  0.00     0.185 C 
ENDROOT
BRANCH   1   2
HETATM    2  C   UNL     1      24.863  44.386  50.052  1.00  0.00     0.227 C 
HETATM    3  N   UNL     1      25.203  43.915  51.300  1.00  0.00    -0.352 N 
HETATM    4  H   UNL     1      24.519  43.932  52.049  1.00  0.00     0.162 HD
HETATM    5  O   UNL     1      25.717  44.590  49.189  1.00  0.00    -0.273 OA
BRANCH   3   6
HETATM    6  C   UNL     1      26.560  43.510  51.643  1.00  0.00     0.225 C 
BRANCH   6   7
HETATM    7  C   UNL     1      26.935  43.764  53.111  1.00  0.00     0.239 C 
HETATM    8  N   UNL     1      28.075  44.541  53.256  1.00  0.00    -0.325 N 
HETATM    9  H   UNL     1      28.658  44.549  52.420  1.00  0.00     0.169 HD
HETATM   10  O   UNL     1      26.347  43.176  54.014  1.00  0.00    -0.271 OA
BRANCH   8  11
HETATM   11  C   UNL     1      28.706  44.851  54.484  1.00  0.00     0.046 A 
HETATM   12  C   UNL     1      28.167  45.915  55.248  1.00  0.00    -0.034 A 
HETATM   13  C   UNL     1      28.785  46.288  56.453  1.00  0.00     0.015 A 
HETATM   14  C   UNL     1      26.981  46.716  54.778  1.00  0.00     0.050 C 
HETATM   15  C   UNL     1      29.925  45.627  56.914  1.00  0.00    -0.061 A 
HETATM   16  C   UNL     1      30.590  46.040  58.194  1.00  0.00     0.048 C 
HETATM   17  C   UNL     1      30.412  44.540  56.186  1.00  0.00     0.015 A 
HETATM   18  C   UNL     1      29.805  44.124  54.986  1.00  0.00    -0.034 A 
HETATM   19  C   UNL     1      30.376  42.892  54.335  1.00  0.00     0.050 C 
ENDBRANCH   8  11
ENDBRANCH   6   7
ENDBRANCH   3   6
ENDBRANCH   1   2
BRANCH   1  20
HETATM   20  S   UNL     1      23.105  45.332  48.189  1.00  0.00    -0.081 SA
BRANCH  20  21
HETATM   21  C   UNL     1      22.074  46.688  48.505  1.00  0.00     0.196 A 
HETATM   22  N   UNL     1      22.509  47.960  48.829  1.00  0.00    -0.274 N 
HETATM   23  C   UNL     1      21.338  48.645  49.122  1.00  0.00     0.161 A 
HETATM   24  N   UNL     1      20.303  47.836  49.020  1.00  0.00    -0.132 NA
HETATM   25  N   UNL     1      20.768  46.613  48.642  1.00  0.00    -0.122 NA
BRANCH  22  26
HETATM   26  C   UNL     1      23.813  48.508  48.806  1.00  0.00     0.043 A 
HETATM   27  C   UNL     1      24.826  47.957  49.598  1.00  0.00     0.030 A 
HETATM   28  C   UNL     1      26.120  48.475  49.526  1.00  0.00     0.002 A 
HETATM   29  C   UNL     1      26.402  49.544  48.675  1.00  0.00     0.000 A 
HETATM   30  C   UNL     1      25.392  50.101  47.892  1.00  0.00     0.002 A 
HETATM   31  C   UNL     1      24.097  49.585  47.951  1.00  0.00     0.030 A 
ENDBRANCH  22  26
BRANCH  23  32
HETATM   32  C   UNL     1      21.202  50.110  49.322  1.00  0.00     0.315 C 
BRANCH  32  33
HETATM   33  N   UNL     1      19.755  50.527  49.167  1.00  0.00    -0.064 N 
HETATM   34  H   UNL     1      19.220  49.645  49.237  1.00  0.00     0.280 HD
HETATM   35  C   UNL     1      19.418  51.117  47.810  1.00  0.00     0.235 C 
HETATM   36  C   UNL     1      18.912  52.512  48.124  1.00  0.00     0.029 C 
HETATM   37  C   UNL     1      18.268  52.355  49.486  1.00  0.00     0.029 C 
HETATM   38  C   UNL     1      19.256  51.474  50.225  1.00  0.00     0.235 C 
ENDBRANCH  32  33
ENDBRANCH  23  32
ENDBRANCH  20  21
ENDBRANCH   1  20
TORSDOF 9
ENDMDL
MODEL 8
REMARK VINA RESULT:      -9.4      1.460      2.401
REMARK  9 active torsions:
REMARK  status: ('A' for Active; 'I' for Inactive)
REMARK    1  A    between atoms: C_6  and  N_7 
REMARK       I    between atoms: N_7  and  C_8 
REMARK    2  A    between atoms: C_8  and  C_9 
REMARK    3  A    between atoms: C_9  and  N_10 
REMARK       I    between atoms: N_10  and  C_11 
REMARK    4  A    between atoms: C_11  and  C_12 
REMARK    5  A    between atoms: C_12  and  S_13 
REMARK    6  A    between atoms: S_13  and  C_14 
REMARK    7  A    between atoms: N_15  and  C_16 
REMARK    8  A    between atoms: C_22  and  C_23 
REMARK    9  A    between atoms: C_23  and  N_24 
ROOT
HETATM    1  C   UNL     1      25.376  45.377  50.895  1.00  0.00     0.185 C 
ENDROOT
BRANCH   1   2
HETATM    2  C   UNL     1      25.162  46.838  50.537  1.00  0.00     0.227 C 
HETATM    3  N   UNL     1      23.958  47.112  49.927  1.00  0.00    -0.352 N 
HETATM    4  H   UNL     1      23.356  46.351  49.634  1.00  0.00     0.162 HD
HETATM    5  O   UNL     1      26.012  47.712  50.703  1.00  0.00    -0.273 OA
BRANCH   3   6
HETATM    6  C   UNL     1      23.560  48.463  49.552  1.00  0.00     0.225 C 
BRANCH   6   7
HETATM    7  C   UNL     1      22.239  48.529  48.771  1.00  0.00     0.239 C 
HETATM    8  N   UNL     1      21.126  48.647  49.591  1.00  0.00    -0.325 N 
HETATM    9  H   UNL     1      21.306  48.351  50.549  1.00  0.00     0.169 HD
HETATM   10  O   UNL     1      22.220  48.326  47.561  1.00  0.00    -0.271 OA
BRANCH   8  11
HETATM   11  C   UNL     1      19.780  48.632  49.155  1.00  0.00     0.046 A 
HETATM   12  C   UNL     1      19.108  49.875  49.056  1.00  0.00    -0.034 A 
HETATM   13  C   UNL     1      17.758  49.907  48.670  1.00  0.00     0.015 A 
HETATM   14  C   UNL     1      19.775  51.175  49.421  1.00  0.00     0.050 C 
HETATM   15  C   UNL     1      17.063  48.731  48.379  1.00  0.00    -0.061 A 
HETATM   16  C   UNL     1      15.618  48.770  47.980  1.00  0.00     0.048 C 
HETATM   17  C   UNL     1      17.750  47.517  48.417  1.00  0.00     0.015 A 
HETATM   18  C   UNL     1      19.109  47.450  48.778  1.00  0.00    -0.034 A 
HETATM   19  C   UNL     1      19.758  46.093  48.709  1.00  0.00     0.050 C 
ENDBRANCH   8  11
ENDBRANCH   6   7
ENDBRANCH   3   6
ENDBRANCH   1   2
BRANCH   1  20
HETATM   20  S   UNL     1      24.793  45.073  52.589  1.00  0.00    -0.081 SA
BRANCH  20  21
HETATM   21  C   UNL     1      25.977  45.941  53.509  1.00  0.00     0.196 A 
HETATM   22  N   UNL     1      27.187  45.424  53.936  1.00  0.00    -0.274 N 
HETATM   23  C   UNL     1      27.711  46.429  54.738  1.00  0.00     0.161 A 
HETATM   24  N   UNL     1      26.864  47.436  54.812  1.00  0.00    -0.132 NA
HETATM   25  N   UNL     1      25.779  47.124  54.048  1.00  0.00    -0.122 NA
BRANCH  22  26
HETATM   26  C   UNL     1      27.824  44.205  53.604  1.00  0.00     0.043 A 
HETATM   27  C   UNL     1      28.720  44.146  52.531  1.00  0.00     0.030 A 
HETATM   28  C   UNL     1      29.380  42.950  52.247  1.00  0.00     0.002 A 
HETATM   29  C   UNL     1      29.142  41.815  53.021  1.00  0.00     0.000 A 
HETATM   30  C   UNL     1      28.242  41.869  54.084  1.00  0.00     0.002 A 
HETATM   31  C   UNL     1      27.583  43.063  54.382  1.00  0.00     0.030 A 
ENDBRANCH  22  26
BRANCH  23  32
HETATM   32  C   UNL     1      29.091  46.493  55.280  1.00  0.00     0.315 C 
BRANCH  32  33
HETATM   33  N   UNL     1      29.273  45.462  56.373  1.00  0.00    -0.064 N 
HETATM   34  H   UNL     1      28.441  44.852  56.298  1.00  0.00     0.280 HD
HETATM   35  C   UNL     1      29.249  46.034  57.779  1.00  0.00     0.235 C 
HETATM   36  C   UNL     1      30.600  45.659  58.358  1.00  0.00     0.029 C 
HETATM   37  C   UNL     1      30.928  44.350  57.669  1.00  0.00     0.029 C 
HETATM   38  C   UNL     1      30.506  44.610  56.236  1.00  0.00     0.235 C 
ENDBRANCH  32  33
ENDBRANCH  23  32
ENDBRANCH  20  21
ENDBRANCH   1  20
TORSDOF 9
ENDMDL
MODEL 9
REMARK VINA RESULT:      -9.4      2.193     11.617
REMARK  9 active torsions:
REMARK  status: ('A' for Active; 'I' for Inactive)
REMARK    1  A    between atoms: C_6  and  N_7 
REMARK       I    between atoms: N_7  and  C_8 
REMARK    2  A    between atoms: C_8  and  C_9 
REMARK    3  A    between atoms: C_9  and  N_10 
REMARK       I    between atoms: N_10  and  C_11 
REMARK    4  A    between atoms: C_11  and  C_12 
REMARK    5  A    between atoms: C_12  and  S_13 
REMARK    6  A    between atoms: S_13  and  C_14 
REMARK    7  A    between atoms: N_15  and  C_16 
REMARK    8  A    between atoms: C_22  and  C_23 
REMARK    9  A    between atoms: C_23  and  N_24 
ROOT
HETATM    1  C   UNL     1      24.582  46.716  49.188  1.00  0.00     0.185 C 
ENDROOT
BRANCH   1   2
HETATM    2  C   UNL     1      24.219  45.528  50.062  1.00  0.00     0.227 C 
HETATM    3  N   UNL     1      25.101  45.274  51.088  1.00  0.00    -0.352 N 
HETATM    4  H   UNL     1      25.980  45.778  51.135  1.00  0.00     0.162 HD
HETATM    5  O   UNL     1      23.257  44.791  49.845  1.00  0.00    -0.273 OA
BRANCH   3   6
HETATM    6  C   UNL     1      24.893  44.203  52.054  1.00  0.00     0.225 C 
BRANCH   6   7
HETATM    7  C   UNL     1      25.818  44.277  53.278  1.00  0.00     0.239 C 
HETATM    8  N   UNL     1      27.165  44.304  52.943  1.00  0.00    -0.325 N 
HETATM    9  H   UNL     1      27.346  43.951  52.005  1.00  0.00     0.169 HD
HETATM   10  O   UNL     1      25.363  44.153  54.411  1.00  0.00    -0.271 OA
BRANCH   8  11
HETATM   11  C   UNL     1      28.240  44.273  53.862  1.00  0.00     0.046 A 
HETATM   12  C   UNL     1      29.075  43.129  53.856  1.00  0.00    -0.034 A 
HETATM   13  C   UNL     1      30.129  43.033  54.781  1.00  0.00     0.015 A 
HETATM   14  C   UNL     1      28.830  41.965  52.932  1.00  0.00     0.050 C 
HETATM   15  C   UNL     1      30.370  44.050  55.707  1.00  0.00    -0.061 A 
HETATM   16  C   UNL     1      31.488  43.936  56.701  1.00  0.00     0.048 C 
HETATM   17  C   UNL     1      29.582  45.200  55.663  1.00  0.00     0.015 A 
HETATM   18  C   UNL     1      28.531  45.341  54.736  1.00  0.00    -0.034 A 
HETATM   19  C   UNL     1      27.803  46.659  54.737  1.00  0.00     0.050 C 
ENDBRANCH   8  11
ENDBRANCH   6   7
ENDBRANCH   3   6
ENDBRANCH   1   2
BRANCH   1  20
HETATM   20  S   UNL     1      23.338  48.024  49.391  1.00  0.00    -0.081 SA
BRANCH  20  21
HETATM   21  C   UNL     1      22.259  47.663  48.084  1.00  0.00     0.196 A 
HETATM   22  N   UNL     1      21.028  48.259  47.881  1.00  0.00    -0.274 N 
HETATM   23  C   UNL     1      20.491  47.553  46.813  1.00  0.00     0.161 A 
HETATM   24  N   UNL     1      21.317  46.594  46.444  1.00  0.00    -0.132 NA
HETATM   25  N   UNL     1      22.417  46.662  47.246  1.00  0.00    -0.122 NA
BRANCH  22  26
HETATM   26  C   UNL     1      20.441  49.374  48.523  1.00  0.00     0.043 A 
HETATM   27  C   UNL     1      19.634  49.196  49.652  1.00  0.00     0.030 A 
HETATM   28  C   UNL     1      19.104  50.309  50.306  1.00  0.00     0.002 A 
HETATM   29  C   UNL     1      19.368  51.594  49.832  1.00  0.00     0.000 A 
HETATM   30  C   UNL     1      20.163  51.773  48.700  1.00  0.00     0.002 A 
HETATM   31  C   UNL     1      20.704  50.667  48.044  1.00  0.00     0.030 A 
ENDBRANCH  22  26
BRANCH  23  32
HETATM   32  C   UNL     1      19.277  47.914  46.041  1.00  0.00     0.315 C 
BRANCH  32  33
HETATM   33  N   UNL     1      18.080  47.141  46.554  1.00  0.00    -0.064 N 
HETATM   34  H   UNL     1      17.948  46.380  45.866  1.00  0.00     0.280 HD
HETATM   35  C   UNL     1      16.785  47.931  46.562  1.00  0.00     0.235 C 
HETATM   36  C   UNL     1      16.353  47.926  48.016  1.00  0.00     0.029 C 
HETATM   37  C   UNL     1      16.881  46.605  48.536  1.00  0.00     0.029 C 
HETATM   38  C   UNL     1      18.263  46.529  47.917  1.00  0.00     0.235 C 
ENDBRANCH  32  33
ENDBRANCH  23  32
ENDBRANCH  20  21
ENDBRANCH   1  20
TORSDOF 9
ENDMDL
MODEL 10
REMARK VINA RESULT:      -9.3      2.314      3.878
REMARK  9 active torsions:
REMARK  status: ('A' for Active; 'I' for Inactive)
REMARK    1  A    between atoms: C_6  and  N_7 
REMARK       I    between atoms: N_7  and  C_8 
REMARK    2  A    between atoms: C_8  and  C_9 
REMARK    3  A    between atoms: C_9  and  N_10 
REMARK       I    between atoms: N_10  and  C_11 
REMARK    4  A    between atoms: C_11  and  C_12 
REMARK    5  A    between atoms: C_12  and  S_13 
REMARK    6  A    between atoms: S_13  and  C_14 
REMARK    7  A    between atoms: N_15  and  C_16 
REMARK    8  A    between atoms: C_22  and  C_23 
REMARK    9  A    between atoms: C_23  and  N_24 
ROOT
HETATM    1  C   UNL     1      23.996  48.253  49.569  1.00  0.00     0.185 C 
ENDROOT
BRANCH   1   2
HETATM    2  C   UNL     1      22.740  48.274  48.715  1.00  0.00     0.227 C 
HETATM    3  N   UNL     1      21.715  47.478  49.175  1.00  0.00    -0.352 N 
HETATM    4  H   UNL     1      21.879  46.840  49.947  1.00  0.00     0.162 HD
HETATM    5  O   UNL     1      22.648  48.889  47.652  1.00  0.00    -0.273 OA
BRANCH   3   6
HETATM    6  C   UNL     1      20.420  47.406  48.512  1.00  0.00     0.225 C 
BRANCH   6   7
HETATM    7  C   UNL     1      19.351  48.319  49.129  1.00  0.00     0.239 C 
HETATM    8  N   UNL     1      18.907  49.306  48.259  1.00  0.00    -0.325 N 
HETATM    9  H   UNL     1      19.559  49.482  47.496  1.00  0.00     0.169 HD
HETATM   10  O   UNL     1      19.079  48.241  50.324  1.00  0.00    -0.271 OA
BRANCH   8  11
HETATM   11  C   UNL     1      18.003  50.343  48.587  1.00  0.00     0.046 A 
HETATM   12  C   UNL     1      18.549  51.590  48.977  1.00  0.00    -0.034 A 
HETATM   13  C   UNL     1      17.690  52.637  49.354  1.00  0.00     0.015 A 
HETATM   14  C   UNL     1      20.034  51.818  49.072  1.00  0.00     0.050 C 
HETATM   15  C   UNL     1      16.304  52.470  49.349  1.00  0.00    -0.061 A 
HETATM   16  C   UNL     1      15.393  53.587  49.765  1.00  0.00     0.048 C 
HETATM   17  C   UNL     1      15.774  51.259  48.903  1.00  0.00     0.015 A 
HETATM   18  C   UNL     1      16.603  50.196  48.496  1.00  0.00    -0.034 A 
HETATM   19  C   UNL     1      15.912  48.968  47.963  1.00  0.00     0.050 C 
ENDBRANCH   8  11
ENDBRANCH   6   7
ENDBRANCH   3   6
ENDBRANCH   1   2
BRANCH   1  20
HETATM   20  S   UNL     1      24.676  46.569  49.610  1.00  0.00    -0.081 SA
BRANCH  20  21
HETATM   21  C   UNL     1      25.259  46.485  51.240  1.00  0.00     0.196 A 
HETATM   22  N   UNL     1      25.702  45.335  51.868  1.00  0.00    -0.274 N 
HETATM   23  C   UNL     1      25.926  45.740  53.177  1.00  0.00     0.161 A 
HETATM   24  N   UNL     1      25.603  47.010  53.319  1.00  0.00    -0.132 NA
HETATM   25  N   UNL     1      25.180  47.469  52.108  1.00  0.00    -0.122 NA
BRANCH  22  26
HETATM   26  C   UNL     1      25.961  44.051  51.336  1.00  0.00     0.043 A 
HETATM   27  C   UNL     1      27.269  43.665  51.024  1.00  0.00     0.030 A 
HETATM   28  C   UNL     1      27.516  42.376  50.550  1.00  0.00     0.002 A 
HETATM   29  C   UNL     1      26.462  41.478  50.376  1.00  0.00     0.000 A 
HETATM   30  C   UNL     1      25.157  41.864  50.675  1.00  0.00     0.002 A 
HETATM   31  C   UNL     1      24.901  43.148  51.158  1.00  0.00     0.030 A 
ENDBRANCH  22  26
BRANCH  23  32
HETATM   32  C   UNL     1      26.615  44.958  54.234  1.00  0.00     0.315 C 
BRANCH  32  33
HETATM   33  N   UNL     1      28.059  45.397  54.353  1.00  0.00    -0.064 N 
HETATM   34  H   UNL     1      28.194  46.063  53.574  1.00  0.00     0.280 HD
HETATM   35  C   UNL     1      29.068  44.284  54.135  1.00  0.00     0.235 C 
HETATM   36  C   UNL     1      29.853  44.233  55.431  1.00  0.00     0.029 C 
HETATM   37  C   UNL     1      29.832  45.669  55.913  1.00  0.00     0.029 C 
HETATM   38  C   UNL     1      28.402  46.092  55.643  1.00  0.00     0.235 C 
ENDBRANCH  32  33
ENDBRANCH  23  32
ENDBRANCH  20  21
ENDBRANCH   1  20
TORSDOF 9
ENDMDL
