MODEL 1
REMARK VINA RESULT:      -8.9      0.000      0.000
REMARK  2 active torsions:
REMARK  status: ('A' for Active; 'I' for Inactive)
REMARK       I    between atoms: N_4  and  C_5 
REMARK       I    between atoms: C_5  and  N_6 
REMARK    1  A    between atoms: N_6  and  C_7 
REMARK    2  A    between atoms: C_20  and  C_21 
ROOT
HETATM    1  C   UNL     1      28.516  40.739  49.633  1.00  0.00     0.011 C 
HETATM    2  C   UNL     1      27.036  40.612  49.980  1.00  0.00     0.002 C 
HETATM    3  C   UNL     1      26.251  41.877  49.650  1.00  0.00     0.132 C 
HETATM    4  N   UNL     1      26.211  42.651  50.881  1.00  0.00    -0.325 N 
HETATM    5  C   UNL     1      25.703  43.926  51.041  1.00  0.00     0.323 C 
HETATM    6  N   UNL     1      25.248  44.506  49.878  1.00  0.00    -0.309 N 
HETATM    7  O   UNL     1      25.689  44.484  52.135  1.00  0.00    -0.247 OA
HETATM    8  C   UNL     1      26.611  41.851  52.043  1.00  0.00     0.125 C 
HETATM    9  C   UNL     1      26.777  40.428  51.479  1.00  0.00     0.036 C 
HETATM   10  H   UNL     1      24.863  43.873  49.195  1.00  0.00     0.170 HD
ENDROOT
BRANCH   6  11
HETATM   11  C   UNL     1      25.008  45.880  49.676  1.00  0.00     0.038 A 
HETATM   12  C   UNL     1      23.718  46.420  49.620  1.00  0.00     0.062 A 
HETATM   13  C   UNL     1      23.542  47.799  49.482  1.00  0.00     0.070 A 
HETATM   14  C   UNL     1      24.645  48.646  49.387  1.00  0.00     0.096 A 
HETATM   15  N   UNL     1      22.252  48.325  49.494  1.00  0.00    -0.323 N 
HETATM   16  O   UNL     1      24.554  50.006  49.281  1.00  0.00    -0.335 OA
HETATM   17  C   UNL     1      25.931  48.114  49.450  1.00  0.00     0.041 A 
HETATM   18  C   UNL     1      23.251  50.510  48.997  1.00  0.00     0.217 C 
HETATM   19  C   UNL     1      22.021  49.664  49.358  1.00  0.00     0.251 C 
HETATM   20  C   UNL     1      23.189  50.854  47.511  1.00  0.00     0.050 C 
HETATM   21  O   UNL     1      20.886  50.129  49.448  1.00  0.00    -0.270 OA
HETATM   22  C   UNL     1      26.112  46.736  49.602  1.00  0.00     0.032 A 
HETATM   23  H   UNL     1      21.449  47.730  49.654  1.00  0.00     0.169 HD
ENDBRANCH   6  11
BRANCH   8  24
HETATM   24  C   UNL     1      27.845  42.327  52.785  1.00  0.00     0.003 A 
HETATM   25  C   UNL     1      27.686  42.825  54.086  1.00  0.00     0.124 A 
HETATM   26  F   UNL     1      26.467  42.839  54.646  1.00  0.00    -0.205 F 
HETATM   27  C   UNL     1      28.762  43.310  54.825  1.00  0.00     0.043 A 
HETATM   28  C   UNL     1      30.037  43.305  54.268  1.00  0.00     0.003 A 
HETATM   29  C   UNL     1      30.224  42.814  52.977  1.00  0.00     0.001 A 
HETATM   30  C   UNL     1      29.138  42.328  52.241  1.00  0.00     0.012 A 
ENDBRANCH   8  24
TORSDOF 2
ENDMDL
MODEL 2
REMARK VINA RESULT:      -8.9      3.637      8.339
REMARK  2 active torsions:
REMARK  status: ('A' for Active; 'I' for Inactive)
REMARK       I    between atoms: N_4  and  C_5 
REMARK       I    between atoms: C_5  and  N_6 
REMARK    1  A    between atoms: N_6  and  C_7 
REMARK    2  A    between atoms: C_20  and  C_21 
ROOT
HETATM    1  C   UNL     1      19.390  45.855  48.267  1.00  0.00     0.011 C 
HETATM    2  C   UNL     1      20.669  45.634  47.465  1.00  0.00     0.002 C 
HETATM    3  C   UNL     1      21.857  45.281  48.353  1.00  0.00     0.132 C 
HETATM    4  N   UNL     1      22.543  46.537  48.617  1.00  0.00    -0.325 N 
HETATM    5  C   UNL     1      23.613  46.733  49.468  1.00  0.00     0.323 C 
HETATM    6  N   UNL     1      24.004  45.607  50.157  1.00  0.00    -0.309 N 
HETATM    7  O   UNL     1      24.143  47.833  49.599  1.00  0.00    -0.247 OA
HETATM    8  C   UNL     1      22.094  47.604  47.717  1.00  0.00     0.125 C 
HETATM    9  C   UNL     1      21.150  46.891  46.732  1.00  0.00     0.036 C 
HETATM   10  H   UNL     1      23.875  44.731  49.675  1.00  0.00     0.170 HD
ENDROOT
BRANCH   6  11
HETATM   11  C   UNL     1      24.810  45.580  51.313  1.00  0.00     0.038 A 
HETATM   12  C   UNL     1      25.018  46.709  52.114  1.00  0.00     0.062 A 
HETATM   13  C   UNL     1      25.774  46.607  53.284  1.00  0.00     0.070 A 
HETATM   14  C   UNL     1      26.338  45.389  53.658  1.00  0.00     0.096 A 
HETATM   15  N   UNL     1      25.916  47.727  54.102  1.00  0.00    -0.323 N 
HETATM   16  O   UNL     1      27.064  45.204  54.801  1.00  0.00    -0.335 OA
HETATM   17  C   UNL     1      26.127  44.261  52.868  1.00  0.00     0.041 A 
HETATM   18  C   UNL     1      27.454  46.398  55.476  1.00  0.00     0.217 C 
HETATM   19  C   UNL     1      26.648  47.686  55.254  1.00  0.00     0.251 C 
HETATM   20  C   UNL     1      28.918  46.673  55.143  1.00  0.00     0.050 C 
HETATM   21  O   UNL     1      26.703  48.653  56.011  1.00  0.00    -0.270 OA
HETATM   22  C   UNL     1      25.359  44.354  51.703  1.00  0.00     0.032 A 
HETATM   23  H   UNL     1      25.436  48.592  53.889  1.00  0.00     0.169 HD
ENDBRANCH   6  11
BRANCH   8  24
HETATM   24  C   UNL     1      21.442  48.802  48.379  1.00  0.00     0.003 A 
HETATM   25  C   UNL     1      21.912  50.080  48.047  1.00  0.00     0.124 A 
HETATM   26  F   UNL     1      22.893  50.212  47.142  1.00  0.00    -0.205 F 
HETATM   27  C   UNL     1      21.388  51.232  48.632  1.00  0.00     0.043 A 
HETATM   28  C   UNL     1      20.369  51.122  49.573  1.00  0.00     0.003 A 
HETATM   29  C   UNL     1      19.881  49.864  49.919  1.00  0.00     0.001 A 
HETATM   30  C   UNL     1      20.412  48.713  49.328  1.00  0.00     0.012 A 
ENDBRANCH   8  24
TORSDOF 2
ENDMDL
MODEL 3
REMARK VINA RESULT:      -8.8      3.441      8.635
REMARK  2 active torsions:
REMARK  status: ('A' for Active; 'I' for Inactive)
REMARK       I    between atoms: N_4  and  C_5 
REMARK       I    between atoms: C_5  and  N_6 
REMARK    1  A    between atoms: N_6  and  C_7 
REMARK    2  A    between atoms: C_20  and  C_21 
ROOT
HETATM    1  C   UNL     1      18.614  45.844  48.143  1.00  0.00     0.011 C 
HETATM    2  C   UNL     1      19.702  45.834  47.074  1.00  0.00     0.002 C 
HETATM    3  C   UNL     1      21.046  45.361  47.617  1.00  0.00     0.132 C 
HETATM    4  N   UNL     1      21.773  46.568  47.981  1.00  0.00    -0.325 N 
HETATM    5  C   UNL     1      22.995  46.637  48.622  1.00  0.00     0.323 C 
HETATM    6  N   UNL     1      23.517  45.415  48.982  1.00  0.00    -0.309 N 
HETATM    7  O   UNL     1      23.541  47.711  48.859  1.00  0.00    -0.247 OA
HETATM    8  C   UNL     1      21.151  47.771  47.419  1.00  0.00     0.125 C 
HETATM    9  C   UNL     1      20.025  47.226  46.523  1.00  0.00     0.036 C 
HETATM   10  H   UNL     1      23.291  44.645  48.372  1.00  0.00     0.170 HD
ENDROOT
BRANCH   6  11
HETATM   11  C   UNL     1      24.543  45.196  49.924  1.00  0.00     0.038 A 
HETATM   12  C   UNL     1      24.285  44.814  51.245  1.00  0.00     0.062 A 
HETATM   13  C   UNL     1      25.343  44.548  52.116  1.00  0.00     0.070 A 
HETATM   14  C   UNL     1      26.663  44.673  51.684  1.00  0.00     0.096 A 
HETATM   15  N   UNL     1      25.067  44.105  53.408  1.00  0.00    -0.323 N 
HETATM   16  O   UNL     1      27.750  44.402  52.467  1.00  0.00    -0.335 OA
HETATM   17  C   UNL     1      26.925  45.046  50.367  1.00  0.00     0.041 A 
HETATM   18  C   UNL     1      27.475  44.240  53.857  1.00  0.00     0.217 C 
HETATM   19  C   UNL     1      26.062  43.835  54.303  1.00  0.00     0.251 C 
HETATM   20  C   UNL     1      27.863  45.532  54.570  1.00  0.00     0.050 C 
HETATM   21  O   UNL     1      25.814  43.370  55.413  1.00  0.00    -0.270 OA
HETATM   22  C   UNL     1      25.868  45.300  49.487  1.00  0.00     0.032 A 
HETATM   23  H   UNL     1      24.117  43.922  53.704  1.00  0.00     0.169 HD
ENDBRANCH   6  11
BRANCH   8  24
HETATM   24  C   UNL     1      20.649  48.791  48.423  1.00  0.00     0.003 A 
HETATM   25  C   UNL     1      21.055  50.125  48.273  1.00  0.00     0.124 A 
HETATM   26  F   UNL     1      21.842  50.466  47.241  1.00  0.00    -0.205 F 
HETATM   27  C   UNL     1      20.665  51.119  49.167  1.00  0.00     0.043 A 
HETATM   28  C   UNL     1      19.847  50.791  50.245  1.00  0.00     0.003 A 
HETATM   29  C   UNL     1      19.426  49.473  50.417  1.00  0.00     0.001 A 
HETATM   30  C   UNL     1      19.823  48.481  49.514  1.00  0.00     0.012 A 
ENDBRANCH   8  24
TORSDOF 2
ENDMDL
MODEL 4
REMARK VINA RESULT:      -8.5      4.240      9.771
REMARK  2 active torsions:
REMARK  status: ('A' for Active; 'I' for Inactive)
REMARK       I    between atoms: N_4  and  C_5 
REMARK       I    between atoms: C_5  and  N_6 
REMARK    1  A    between atoms: N_6  and  C_7 
REMARK    2  A    between atoms: C_20  and  C_21 
ROOT
HETATM    1  C   UNL     1      16.743  47.205  48.826  1.00  0.00     0.011 C 
HETATM    2  C   UNL     1      17.390  46.887  47.482  1.00  0.00     0.002 C 
HETATM    3  C   UNL     1      18.802  46.332  47.634  1.00  0.00     0.132 C 
HETATM    4  N   UNL     1      19.694  47.475  47.504  1.00  0.00    -0.325 N 
HETATM    5  C   UNL     1      21.064  47.481  47.684  1.00  0.00     0.323 C 
HETATM    6  N   UNL     1      21.590  46.271  48.077  1.00  0.00    -0.309 N 
HETATM    7  O   UNL     1      21.733  48.497  47.520  1.00  0.00    -0.247 OA
HETATM    8  C   UNL     1      19.003  48.648  46.960  1.00  0.00     0.125 C 
HETATM    9  C   UNL     1      17.600  48.124  46.602  1.00  0.00     0.036 C 
HETATM   10  H   UNL     1      21.112  45.453  47.733  1.00  0.00     0.170 HD
ENDROOT
BRANCH   6  11
HETATM   11  C   UNL     1      22.860  46.067  48.654  1.00  0.00     0.038 A 
HETATM   12  C   UNL     1      23.544  44.850  48.562  1.00  0.00     0.062 A 
HETATM   13  C   UNL     1      24.828  44.727  49.098  1.00  0.00     0.070 A 
HETATM   14  C   UNL     1      25.433  45.806  49.739  1.00  0.00     0.096 A 
HETATM   15  N   UNL     1      25.519  43.527  48.940  1.00  0.00    -0.323 N 
HETATM   16  O   UNL     1      26.696  45.772  50.261  1.00  0.00    -0.335 OA
HETATM   17  C   UNL     1      24.759  47.022  49.826  1.00  0.00     0.041 A 
HETATM   18  C   UNL     1      27.280  44.475  50.362  1.00  0.00     0.217 C 
HETATM   19  C   UNL     1      26.774  43.349  49.447  1.00  0.00     0.251 C 
HETATM   20  C   UNL     1      27.167  44.016  51.813  1.00  0.00     0.050 C 
HETATM   21  O   UNL     1      27.409  42.318  49.236  1.00  0.00    -0.270 OA
HETATM   22  C   UNL     1      23.479  47.155  49.279  1.00  0.00     0.032 A 
HETATM   23  H   UNL     1      25.127  42.768  48.398  1.00  0.00     0.169 HD
ENDBRANCH   6  11
BRANCH   8  24
HETATM   24  C   UNL     1      18.953  49.867  47.860  1.00  0.00     0.003 A 
HETATM   25  C   UNL     1      18.775  51.124  47.264  1.00  0.00     0.124 A 
HETATM   26  F   UNL     1      18.626  51.213  45.934  1.00  0.00    -0.205 F 
HETATM   27  C   UNL     1      18.748  52.297  48.015  1.00  0.00     0.043 A 
HETATM   28  C   UNL     1      18.900  52.233  49.396  1.00  0.00     0.003 A 
HETATM   29  C   UNL     1      19.076  50.996  50.015  1.00  0.00     0.001 A 
HETATM   30  C   UNL     1      19.102  49.823  49.254  1.00  0.00     0.012 A 
ENDBRANCH   8  24
TORSDOF 2
ENDMDL
MODEL 5
REMARK VINA RESULT:      -8.5     12.102     14.911
REMARK  2 active torsions:
REMARK  status: ('A' for Active; 'I' for Inactive)
REMARK       I    between atoms: N_4  and  C_5 
REMARK       I    between atoms: C_5  and  N_6 
REMARK    1  A    between atoms: N_6  and  C_7 
REMARK    2  A    between atoms: C_20  and  C_21 
ROOT
HETATM    1  C   UNL     1      29.143  52.641  39.120  1.00  0.00     0.011 C 
HETATM    2  C   UNL     1      29.146  52.832  40.634  1.00  0.00     0.002 C 
HETATM    3  C   UNL     1      30.557  52.857  41.213  1.00  0.00     0.132 C 
HETATM    4  N   UNL     1      30.834  51.494  41.641  1.00  0.00    -0.325 N 
HETATM    5  C   UNL     1      32.033  51.006  42.125  1.00  0.00     0.323 C 
HETATM    6  N   UNL     1      33.057  51.926  42.137  1.00  0.00    -0.309 N 
HETATM    7  O   UNL     1      32.156  49.840  42.489  1.00  0.00    -0.247 OA
HETATM    8  C   UNL     1      29.617  50.678  41.688  1.00  0.00     0.125 C 
HETATM    9  C   UNL     1      28.484  51.677  41.392  1.00  0.00     0.036 C 
HETATM   10  H   UNL     1      32.784  52.884  42.290  1.00  0.00     0.170 HD
ENDROOT
BRANCH   6  11
HETATM   11  C   UNL     1      34.432  51.635  42.243  1.00  0.00     0.038 A 
HETATM   12  C   UNL     1      35.201  52.015  43.349  1.00  0.00     0.062 A 
HETATM   13  C   UNL     1      36.544  51.642  43.430  1.00  0.00     0.070 A 
HETATM   14  C   UNL     1      37.134  50.901  42.408  1.00  0.00     0.096 A 
HETATM   15  N   UNL     1      37.275  51.974  44.568  1.00  0.00    -0.323 N 
HETATM   16  O   UNL     1      38.432  50.473  42.429  1.00  0.00    -0.335 OA
HETATM   17  C   UNL     1      36.371  50.513  41.308  1.00  0.00     0.041 A 
HETATM   18  C   UNL     1      39.251  51.058  43.439  1.00  0.00     0.217 C 
HETATM   19  C   UNL     1      38.593  51.640  44.699  1.00  0.00     0.251 C 
HETATM   20  C   UNL     1      40.105  52.143  42.787  1.00  0.00     0.050 C 
HETATM   21  O   UNL     1      39.210  51.865  45.738  1.00  0.00    -0.270 OA
HETATM   22  C   UNL     1      35.022  50.871  41.230  1.00  0.00     0.032 A 
HETATM   23  H   UNL     1      36.834  52.432  45.356  1.00  0.00     0.169 HD
ENDBRANCH   6  11
BRANCH   8  24
HETATM   24  C   UNL     1      29.586  49.477  40.762  1.00  0.00     0.003 A 
HETATM   25  C   UNL     1      28.969  48.304  41.219  1.00  0.00     0.124 A 
HETATM   26  F   UNL     1      28.403  48.282  42.435  1.00  0.00    -0.205 F 
HETATM   27  C   UNL     1      28.922  47.147  40.445  1.00  0.00     0.043 A 
HETATM   28  C   UNL     1      29.501  47.143  39.179  1.00  0.00     0.003 A 
HETATM   29  C   UNL     1      30.119  48.297  38.699  1.00  0.00     0.001 A 
HETATM   30  C   UNL     1      30.161  49.454  39.483  1.00  0.00     0.012 A 
ENDBRANCH   8  24
TORSDOF 2
ENDMDL
MODEL 6
REMARK VINA RESULT:      -8.5     13.292     15.829
REMARK  2 active torsions:
REMARK  status: ('A' for Active; 'I' for Inactive)
REMARK       I    between atoms: N_4  and  C_5 
REMARK       I    between atoms: C_5  and  N_6 
REMARK    1  A    between atoms: N_6  and  C_7 
REMARK    2  A    between atoms: C_20  and  C_21 
ROOT
HETATM    1  C   UNL     1      31.358  48.528  42.527  1.00  0.00     0.011 C 
HETATM    2  C   UNL     1      32.331  48.364  41.364  1.00  0.00     0.002 C 
HETATM    3  C   UNL     1      33.620  49.152  41.569  1.00  0.00     0.132 C 
HETATM    4  N   UNL     1      33.421  50.423  40.889  1.00  0.00    -0.325 N 
HETATM    5  C   UNL     1      34.275  51.509  40.896  1.00  0.00     0.323 C 
HETATM    6  N   UNL     1      35.392  51.348  41.685  1.00  0.00    -0.309 N 
HETATM    7  O   UNL     1      34.027  52.531  40.261  1.00  0.00    -0.247 OA
HETATM    8  C   UNL     1      32.258  50.388  39.997  1.00  0.00     0.125 C 
HETATM    9  C   UNL     1      31.795  48.921  40.041  1.00  0.00     0.036 C 
HETATM   10  H   UNL     1      35.745  50.406  41.757  1.00  0.00     0.170 HD
ENDROOT
BRANCH   6  11
HETATM   11  C   UNL     1      36.235  52.377  42.149  1.00  0.00     0.038 A 
HETATM   12  C   UNL     1      36.293  52.756  43.495  1.00  0.00     0.062 A 
HETATM   13  C   UNL     1      37.194  53.739  43.908  1.00  0.00     0.070 A 
HETATM   14  C   UNL     1      38.034  54.360  42.985  1.00  0.00     0.096 A 
HETATM   15  N   UNL     1      37.283  54.056  45.262  1.00  0.00    -0.323 N 
HETATM   16  O   UNL     1      38.962  55.308  43.316  1.00  0.00    -0.335 OA
HETATM   17  C   UNL     1      37.986  53.982  41.645  1.00  0.00     0.041 A 
HETATM   18  C   UNL     1      38.848  55.839  44.634  1.00  0.00     0.217 C 
HETATM   19  C   UNL     1      38.143  55.013  45.720  1.00  0.00     0.251 C 
HETATM   20  C   UNL     1      38.169  57.203  44.539  1.00  0.00     0.050 C 
HETATM   21  O   UNL     1      38.273  55.231  46.923  1.00  0.00    -0.270 OA
HETATM   22  C   UNL     1      37.094  52.987  41.229  1.00  0.00     0.032 A 
HETATM   23  H   UNL     1      36.745  53.548  45.952  1.00  0.00     0.169 HD
ENDBRANCH   6  11
BRANCH   8  24
HETATM   24  C   UNL     1      31.139  51.358  40.324  1.00  0.00     0.003 A 
HETATM   25  C   UNL     1      30.373  51.868  39.267  1.00  0.00     0.124 A 
HETATM   26  F   UNL     1      30.625  51.469  38.012  1.00  0.00    -0.205 F 
HETATM   27  C   UNL     1      29.347  52.787  39.478  1.00  0.00     0.043 A 
HETATM   28  C   UNL     1      29.064  53.216  40.771  1.00  0.00     0.003 A 
HETATM   29  C   UNL     1      29.808  52.723  41.841  1.00  0.00     0.001 A 
HETATM   30  C   UNL     1      30.837  51.801  41.620  1.00  0.00     0.012 A 
ENDBRANCH   8  24
TORSDOF 2
ENDMDL
MODEL 7
REMARK VINA RESULT:      -8.4     10.155     14.189
REMARK  2 active torsions:
REMARK  status: ('A' for Active; 'I' for Inactive)
REMARK       I    between atoms: N_4  and  C_5 
REMARK       I    between atoms: C_5  and  N_6 
REMARK    1  A    between atoms: N_6  and  C_7 
REMARK    2  A    between atoms: C_20  and  C_21 
ROOT
HETATM    1  C   UNL     1      16.445  52.470  45.405  1.00  0.00     0.011 C 
HETATM    2  C   UNL     1      15.256  51.954  46.208  1.00  0.00     0.002 C 
HETATM    3  C   UNL     1      14.748  52.978  47.218  1.00  0.00     0.132 C 
HETATM    4  N   UNL     1      15.408  52.658  48.474  1.00  0.00    -0.325 N 
HETATM    5  C   UNL     1      15.346  53.381  49.650  1.00  0.00     0.323 C 
HETATM    6  N   UNL     1      14.617  54.546  49.562  1.00  0.00    -0.309 N 
HETATM    7  O   UNL     1      15.920  53.008  50.670  1.00  0.00    -0.247 OA
HETATM    8  C   UNL     1      16.034  51.333  48.440  1.00  0.00     0.125 C 
HETATM    9  C   UNL     1      15.595  50.745  47.087  1.00  0.00     0.036 C 
HETATM   10  H   UNL     1      13.842  54.529  48.919  1.00  0.00     0.170 HD
ENDROOT
BRANCH   6  11
HETATM   11  C   UNL     1      14.666  55.625  50.468  1.00  0.00     0.038 A 
HETATM   12  C   UNL     1      14.204  55.527  51.785  1.00  0.00     0.062 A 
HETATM   13  C   UNL     1      14.339  56.610  52.656  1.00  0.00     0.070 A 
HETATM   14  C   UNL     1      14.920  57.799  52.221  1.00  0.00     0.096 A 
HETATM   15  N   UNL     1      13.932  56.471  53.982  1.00  0.00    -0.323 N 
HETATM   16  O   UNL     1      15.114  58.890  53.021  1.00  0.00    -0.335 OA
HETATM   17  C   UNL     1      15.389  57.899  50.912  1.00  0.00     0.041 A 
HETATM   18  C   UNL     1      14.437  58.854  54.276  1.00  0.00     0.217 C 
HETATM   19  C   UNL     1      14.035  57.499  54.875  1.00  0.00     0.251 C 
HETATM   20  C   UNL     1      13.192  59.731  54.169  1.00  0.00     0.050 C 
HETATM   21  O   UNL     1      13.748  57.346  56.061  1.00  0.00    -0.270 OA
HETATM   22  C   UNL     1      15.270  56.813  50.040  1.00  0.00     0.032 A 
HETATM   23  H   UNL     1      13.593  55.585  54.333  1.00  0.00     0.169 HD
ENDBRANCH   6  11
BRANCH   8  24
HETATM   24  C   UNL     1      17.540  51.304  48.622  1.00  0.00     0.003 A 
HETATM   25  C   UNL     1      18.113  50.173  49.221  1.00  0.00     0.124 A 
HETATM   26  F   UNL     1      17.331  49.147  49.586  1.00  0.00    -0.205 F 
HETATM   27  C   UNL     1      19.484  50.079  49.453  1.00  0.00     0.043 A 
HETATM   28  C   UNL     1      20.318  51.130  49.082  1.00  0.00     0.003 A 
HETATM   29  C   UNL     1      19.774  52.264  48.482  1.00  0.00     0.001 A 
HETATM   30  C   UNL     1      18.397  52.351  48.253  1.00  0.00     0.012 A 
ENDBRANCH   8  24
TORSDOF 2
ENDMDL
MODEL 8
REMARK VINA RESULT:      -8.3      9.255     13.155
REMARK  2 active torsions:
REMARK  status: ('A' for Active; 'I' for Inactive)
REMARK       I    between atoms: N_4  and  C_5 
REMARK       I    between atoms: C_5  and  N_6 
REMARK    1  A    between atoms: N_6  and  C_7 
REMARK    2  A    between atoms: C_20  and  C_21 
ROOT
HETATM    1  C   UNL     1      17.342  51.107  45.181  1.00  0.00     0.011 C 
HETATM    2  C   UNL     1      16.170  50.532  45.970  1.00  0.00     0.002 C 
HETATM    3  C   UNL     1      15.464  51.587  46.815  1.00  0.00     0.132 C 
HETATM    4  N   UNL     1      16.065  51.502  48.138  1.00  0.00    -0.325 N 
HETATM    5  C   UNL     1      15.826  52.340  49.211  1.00  0.00     0.323 C 
HETATM    6  N   UNL     1      14.965  53.379  48.939  1.00  0.00    -0.309 N 
HETATM    7  O   UNL     1      16.364  52.164  50.301  1.00  0.00    -0.247 OA
HETATM    8  C   UNL     1      16.852  50.277  48.303  1.00  0.00     0.125 C 
HETATM    9  C   UNL     1      16.591  49.486  47.008  1.00  0.00     0.036 C 
HETATM   10  H   UNL     1      14.248  53.187  48.258  1.00  0.00     0.170 HD
ENDROOT
BRANCH   6  11
HETATM   11  C   UNL     1      14.812  54.551  49.707  1.00  0.00     0.038 A 
HETATM   12  C   UNL     1      15.198  54.629  51.050  1.00  0.00     0.062 A 
HETATM   13  C   UNL     1      15.083  55.836  51.742  1.00  0.00     0.070 A 
HETATM   14  C   UNL     1      14.571  56.968  51.109  1.00  0.00     0.096 A 
HETATM   15  N   UNL     1      15.533  55.911  53.059  1.00  0.00    -0.323 N 
HETATM   16  O   UNL     1      14.456  58.190  51.710  1.00  0.00    -0.335 OA
HETATM   17  C   UNL     1      14.192  56.897  49.770  1.00  0.00     0.041 A 
HETATM   18  C   UNL     1      14.635  58.194  53.125  1.00  0.00     0.217 C 
HETATM   19  C   UNL     1      15.440  57.064  53.785  1.00  0.00     0.251 C 
HETATM   20  C   UNL     1      13.256  58.259  53.777  1.00  0.00     0.050 C 
HETATM   21  O   UNL     1      15.911  57.146  54.917  1.00  0.00    -0.270 OA
HETATM   22  C   UNL     1      14.320  55.694  49.069  1.00  0.00     0.032 A 
HETATM   23  H   UNL     1      15.990  55.123  53.499  1.00  0.00     0.169 HD
ENDBRANCH   6  11
BRANCH   8  24
HETATM   24  C   UNL     1      18.332  50.469  48.575  1.00  0.00     0.003 A 
HETATM   25  C   UNL     1      19.007  49.476  49.298  1.00  0.00     0.124 A 
HETATM   26  F   UNL     1      18.345  48.380  49.700  1.00  0.00    -0.205 F 
HETATM   27  C   UNL     1      20.359  49.588  49.617  1.00  0.00     0.043 A 
HETATM   28  C   UNL     1      21.069  50.714  49.212  1.00  0.00     0.003 A 
HETATM   29  C   UNL     1      20.423  51.715  48.489  1.00  0.00     0.001 A 
HETATM   30  C   UNL     1      19.066  51.594  48.173  1.00  0.00     0.012 A 
ENDBRANCH   8  24
TORSDOF 2
ENDMDL
MODEL 9
REMARK VINA RESULT:      -8.2     18.287     21.243
REMARK  2 active torsions:
REMARK  status: ('A' for Active; 'I' for Inactive)
REMARK       I    between atoms: N_4  and  C_5 
REMARK       I    between atoms: C_5  and  N_6 
REMARK    1  A    between atoms: N_6  and  C_7 
REMARK    2  A    between atoms: C_20  and  C_21 
ROOT
HETATM    1  C   UNL     1      35.864  46.592  66.881  1.00  0.00     0.011 C 
HETATM    2  C   UNL     1      35.864  46.563  65.356  1.00  0.00     0.002 C 
HETATM    3  C   UNL     1      36.316  45.218  64.800  1.00  0.00     0.132 C 
HETATM    4  N   UNL     1      37.742  45.354  64.543  1.00  0.00    -0.325 N 
HETATM    5  C   UNL     1      38.610  44.357  64.139  1.00  0.00     0.323 C 
HETATM    6  N   UNL     1      38.033  43.111  64.034  1.00  0.00    -0.309 N 
HETATM    7  O   UNL     1      39.797  44.583  63.918  1.00  0.00    -0.247 OA
HETATM    8  C   UNL     1      38.171  46.755  64.574  1.00  0.00     0.125 C 
HETATM    9  C   UNL     1      36.860  47.546  64.730  1.00  0.00     0.036 C 
HETATM   10  H   UNL     1      37.063  43.099  63.763  1.00  0.00     0.170 HD
ENDROOT
BRANCH   6  11
HETATM   11  C   UNL     1      38.720  41.881  63.984  1.00  0.00     0.038 A 
HETATM   12  C   UNL     1      39.170  41.222  65.134  1.00  0.00     0.062 A 
HETATM   13  C   UNL     1      39.788  39.974  65.028  1.00  0.00     0.070 A 
HETATM   14  C   UNL     1      39.973  39.380  63.780  1.00  0.00     0.096 A 
HETATM   15  N   UNL     1      40.171  39.303  66.188  1.00  0.00    -0.323 N 
HETATM   16  O   UNL     1      40.540  38.150  63.598  1.00  0.00    -0.335 OA
HETATM   17  C   UNL     1      39.520  40.029  62.634  1.00  0.00     0.041 A 
HETATM   18  C   UNL     1      41.193  37.604  64.743  1.00  0.00     0.217 C 
HETATM   19  C   UNL     1      40.783  38.083  66.143  1.00  0.00     0.251 C 
HETATM   20  C   UNL     1      42.696  37.810  64.575  1.00  0.00     0.050 C 
HETATM   21  O   UNL     1      41.046  37.462  67.171  1.00  0.00    -0.270 OA
HETATM   22  C   UNL     1      38.888  41.273  62.736  1.00  0.00     0.032 A 
HETATM   23  H   UNL     1      39.959  39.682  67.102  1.00  0.00     0.169 HD
ENDBRANCH   6  11
BRANCH   8  24
HETATM   24  C   UNL     1      39.193  47.114  65.636  1.00  0.00     0.003 A 
HETATM   25  C   UNL     1      40.081  48.167  65.373  1.00  0.00     0.124 A 
HETATM   26  F   UNL     1      39.986  48.841  64.216  1.00  0.00    -0.205 F 
HETATM   27  C   UNL     1      41.069  48.541  66.281  1.00  0.00     0.043 A 
HETATM   28  C   UNL     1      41.187  47.859  67.488  1.00  0.00     0.003 A 
HETATM   29  C   UNL     1      40.316  46.810  67.776  1.00  0.00     0.001 A 
HETATM   30  C   UNL     1      39.327  46.440  66.859  1.00  0.00     0.012 A 
ENDBRANCH   8  24
TORSDOF 2
ENDMDL
MODEL 10
REMARK VINA RESULT:      -8.2     11.247     13.686
REMARK  2 active torsions:
REMARK  status: ('A' for Active; 'I' for Inactive)
REMARK       I    between atoms: N_4  and  C_5 
REMARK       I    between atoms: C_5  and  N_6 
REMARK    1  A    between atoms: N_6  and  C_7 
REMARK    2  A    between atoms: C_20  and  C_21 
ROOT
HETATM    1  C   UNL     1      26.837  49.689  37.990  1.00  0.00     0.011 C 
HETATM    2  C   UNL     1      26.494  49.894  39.462  1.00  0.00     0.002 C 
HETATM    3  C   UNL     1      27.654  50.490  40.251  1.00  0.00     0.132 C 
HETATM    4  N   UNL     1      28.358  49.359  40.836  1.00  0.00    -0.325 N 
HETATM    5  C   UNL     1      29.544  49.398  41.545  1.00  0.00     0.323 C 
HETATM    6  N   UNL     1      30.110  50.651  41.636  1.00  0.00    -0.309 N 
HETATM    7  O   UNL     1      30.044  48.385  42.026  1.00  0.00    -0.247 OA
HETATM    8  C   UNL     1      27.568  48.126  40.763  1.00  0.00     0.125 C 
HETATM    9  C   UNL     1      26.209  48.585  40.206  1.00  0.00     0.036 C 
HETATM   10  H   UNL     1      29.462  51.423  41.659  1.00  0.00     0.170 HD
ENDROOT
BRANCH   6  11
HETATM   11  C   UNL     1      31.446  50.933  41.983  1.00  0.00     0.038 A 
HETATM   12  C   UNL     1      32.465  51.046  41.031  1.00  0.00     0.062 A 
HETATM   13  C   UNL     1      33.759  51.392  41.428  1.00  0.00     0.070 A 
HETATM   14  C   UNL     1      34.049  51.616  42.772  1.00  0.00     0.096 A 
HETATM   15  N   UNL     1      34.745  51.562  40.459  1.00  0.00    -0.323 N 
HETATM   16  O   UNL     1      35.281  51.987  43.234  1.00  0.00    -0.335 OA
HETATM   17  C   UNL     1      33.036  51.513  43.723  1.00  0.00     0.041 A 
HETATM   18  C   UNL     1      36.346  51.872  42.292  1.00  0.00     0.217 C 
HETATM   19  C   UNL     1      36.027  51.895  40.790  1.00  0.00     0.251 C 
HETATM   20  C   UNL     1      37.123  50.597  42.609  1.00  0.00     0.050 C 
HETATM   21  O   UNL     1      36.873  52.122  39.926  1.00  0.00    -0.270 OA
HETATM   22  C   UNL     1      31.736  51.181  43.329  1.00  0.00     0.032 A 
HETATM   23  H   UNL     1      34.525  51.493  39.473  1.00  0.00     0.169 HD
ENDBRANCH   6  11
BRANCH   8  24
HETATM   24  C   UNL     1      28.173  46.995  39.955  1.00  0.00     0.003 A 
HETATM   25  C   UNL     1      27.883  45.678  40.337  1.00  0.00     0.124 A 
HETATM   26  F   UNL     1      27.064  45.453  41.375  1.00  0.00    -0.205 F 
HETATM   27  C   UNL     1      28.422  44.581  39.667  1.00  0.00     0.043 A 
HETATM   28  C   UNL     1      29.273  44.787  38.585  1.00  0.00     0.003 A 
HETATM   29  C   UNL     1      29.576  46.087  38.182  1.00  0.00     0.001 A 
HETATM   30  C   UNL     1      29.031  47.182  38.861  1.00  0.00     0.012 A 
ENDBRANCH   8  24
TORSDOF 2
ENDMDL
