MODEL 1
REMARK VINA RESULT:      -9.6      0.000      0.000
REMARK  7 active torsions:
REMARK  status: ('A' for Active; 'I' for Inactive)
REMARK    1  A    between atoms: S_2  and  C_3 
REMARK    2  A    between atoms: C_3  and  C_4 
REMARK    3  A    between atoms: C_4  and  C_5 
REMARK    4  A    between atoms: C_5  and  N_6 
REMARK    5  A    between atoms: C_5  and  C_26 
REMARK       I    between atoms: N_6  and  C_7 
REMARK    6  A    between atoms: C_7  and  C_8 
REMARK    7  A    between atoms: C_8  and  N_9 
ROOT
HETATM    1  N   UNL     1      23.432  45.139  50.134  1.00  0.00    -0.348 N 
HETATM    2  C   UNL     1      24.153  44.521  51.128  1.00  0.00     0.236 C 
HETATM    3  O   UNL     1      24.193  43.294  51.236  1.00  0.00    -0.272 OA
HETATM    4  H   UNL     1      23.185  46.111  50.247  1.00  0.00     0.163 HD
ENDROOT
BRANCH   2   5
HETATM    5  C   UNL     1      24.985  45.424  52.040  1.00  0.00     0.239 C 
BRANCH   5   6
HETATM    6  N   UNL     1      25.773  44.735  53.041  1.00  0.00    -0.259 N 
HETATM    7  C   UNL     1      25.290  44.280  54.225  1.00  0.00     0.326 A 
HETATM    8  O   UNL     1      24.173  44.449  54.681  1.00  0.00    -0.247 OA
HETATM    9  N   UNL     1      26.281  43.579  54.864  1.00  0.00    -0.320 N 
HETATM   10  C   UNL     1      27.519  43.532  54.111  1.00  0.00     0.144 A 
HETATM   11  H   UNL     1      26.146  43.190  55.787  1.00  0.00     0.165 HD
HETATM   12  C   UNL     1      28.661  44.197  54.864  1.00  0.00    -0.014 A 
HETATM   13  C   UNL     1      27.815  42.085  53.688  1.00  0.00     0.047 C 
HETATM   14  C   UNL     1      27.075  44.349  52.871  1.00  0.00     0.261 A 
HETATM   15  C   UNL     1      29.964  43.656  54.819  1.00  0.00    -0.049 A 
HETATM   16  C   UNL     1      28.447  45.373  55.611  1.00  0.00     0.011 A 
HETATM   17  C   UNL     1      31.002  44.283  55.527  1.00  0.00     0.007 A 
HETATM   18  C   UNL     1      30.276  42.369  54.092  1.00  0.00     0.039 C 
HETATM   19  C   UNL     1      30.767  45.441  56.263  1.00  0.00     0.001 A 
HETATM   20  C   UNL     1      29.490  45.988  56.305  1.00  0.00     0.001 A 
HETATM   21  C   UNL     1      29.209  41.957  53.085  1.00  0.00     0.008 C 
HETATM   22  O   UNL     1      27.764  44.615  51.896  1.00  0.00    -0.270 OA
ENDBRANCH   5   6
ENDBRANCH   2   5
BRANCH   1  23
HETATM   23  C   UNL     1      22.711  44.379  49.123  1.00  0.00     0.155 C 
BRANCH  23  24
HETATM   24  C   UNL     1      23.552  44.201  47.850  1.00  0.00     0.043 C 
BRANCH  24  25
HETATM   25  C   UNL     1      23.273  42.909  47.077  1.00  0.00     0.076 C 
BRANCH  25  26
HETATM   26  S   UNL     1      23.027  41.428  48.115  1.00  0.00    -0.173 SA
HETATM   27  C   UNL     1      24.747  41.049  48.526  1.00  0.00     0.089 C 
ENDBRANCH  25  26
ENDBRANCH  24  25
ENDBRANCH  23  24
BRANCH  23  28
HETATM   28  C   UNL     1      21.425  45.100  48.836  1.00  0.00     0.128 A 
HETATM   29  N   UNL     1      20.255  44.587  48.505  1.00  0.00    -0.231 NA
HETATM   30  C   UNL     1      19.409  45.664  48.368  1.00  0.00     0.085 A 
HETATM   31  C   UNL     1      20.080  46.859  48.602  1.00  0.00     0.062 A 
HETATM   32  C   UNL     1      18.046  45.698  48.040  1.00  0.00     0.034 A 
HETATM   33  N   UNL     1      21.362  46.475  48.887  1.00  0.00    -0.341 N 
HETATM   34  C   UNL     1      19.469  48.112  48.524  1.00  0.00     0.032 A 
HETATM   35  H   UNL     1      22.155  47.080  49.065  1.00  0.00     0.167 HD
HETATM   36  C   UNL     1      18.108  48.126  48.197  1.00  0.00     0.002 A 
HETATM   37  C   UNL     1      17.406  46.943  47.959  1.00  0.00     0.002 A 
ENDBRANCH  23  28
ENDBRANCH   1  23
TORSDOF 7
ENDMDL
MODEL 2
REMARK VINA RESULT:      -9.5      2.222      3.606
REMARK  7 active torsions:
REMARK  status: ('A' for Active; 'I' for Inactive)
REMARK    1  A    between atoms: S_2  and  C_3 
REMARK    2  A    between atoms: C_3  and  C_4 
REMARK    3  A    between atoms: C_4  and  C_5 
REMARK    4  A    between atoms: C_5  and  N_6 
REMARK    5  A    between atoms: C_5  and  C_26 
REMARK       I    between atoms: N_6  and  C_7 
REMARK    6  A    between atoms: C_7  and  C_8 
REMARK    7  A    between atoms: C_8  and  N_9 
ROOT
HETATM    1  N   UNL     1      23.271  44.331  49.351  1.00  0.00    -0.348 N 
HETATM    2  C   UNL     1      23.205  43.303  50.262  1.00  0.00     0.236 C 
HETATM    3  O   UNL     1      22.129  42.875  50.682  1.00  0.00    -0.272 OA
HETATM    4  H   UNL     1      24.138  44.839  49.256  1.00  0.00     0.163 HD
ENDROOT
BRANCH   2   5
HETATM    5  C   UNL     1      24.528  42.646  50.659  1.00  0.00     0.239 C 
BRANCH   5   6
HETATM    6  N   UNL     1      25.570  43.558  51.082  1.00  0.00    -0.259 N 
HETATM    7  C   UNL     1      26.597  43.973  50.299  1.00  0.00     0.326 A 
HETATM    8  O   UNL     1      26.870  43.591  49.174  1.00  0.00    -0.247 OA
HETATM    9  N   UNL     1      27.318  44.919  50.983  1.00  0.00    -0.320 N 
HETATM   10  C   UNL     1      26.789  45.188  52.305  1.00  0.00     0.144 A 
HETATM   11  H   UNL     1      28.158  45.329  50.597  1.00  0.00     0.165 HD
HETATM   12  C   UNL     1      27.794  44.847  53.394  1.00  0.00    -0.014 A 
HETATM   13  C   UNL     1      26.271  46.633  52.373  1.00  0.00     0.047 C 
HETATM   14  C   UNL     1      25.585  44.212  52.285  1.00  0.00     0.261 A 
HETATM   15  C   UNL     1      27.916  45.659  54.542  1.00  0.00    -0.049 A 
HETATM   16  C   UNL     1      28.614  43.705  53.289  1.00  0.00     0.011 A 
HETATM   17  C   UNL     1      28.855  45.327  55.532  1.00  0.00     0.007 A 
HETATM   18  C   UNL     1      27.120  46.931  54.716  1.00  0.00     0.039 C 
HETATM   19  C   UNL     1      29.660  44.198  55.405  1.00  0.00     0.001 A 
HETATM   20  C   UNL     1      29.540  43.386  54.284  1.00  0.00     0.001 A 
HETATM   21  C   UNL     1      25.906  47.027  53.799  1.00  0.00     0.008 C 
HETATM   22  O   UNL     1      24.778  44.041  53.187  1.00  0.00    -0.270 OA
ENDBRANCH   5   6
ENDBRANCH   2   5
BRANCH   1  23
HETATM   23  C   UNL     1      22.073  44.943  48.796  1.00  0.00     0.155 C 
BRANCH  23  24
HETATM   24  C   UNL     1      21.772  44.409  47.387  1.00  0.00     0.043 C 
BRANCH  24  25
HETATM   25  C   UNL     1      23.011  44.048  46.564  1.00  0.00     0.076 C 
BRANCH  25  26
HETATM   26  S   UNL     1      22.944  42.419  45.744  1.00  0.00    -0.173 SA
HETATM   27  C   UNL     1      22.725  41.354  47.190  1.00  0.00     0.089 C 
ENDBRANCH  25  26
ENDBRANCH  24  25
ENDBRANCH  23  24
BRANCH  23  28
HETATM   28  C   UNL     1      22.278  46.430  48.788  1.00  0.00     0.128 A 
HETATM   29  N   UNL     1      23.414  47.100  48.769  1.00  0.00    -0.231 NA
HETATM   30  C   UNL     1      23.056  48.429  48.756  1.00  0.00     0.085 A 
HETATM   31  C   UNL     1      21.674  48.574  48.786  1.00  0.00     0.062 A 
HETATM   32  C   UNL     1      23.863  49.576  48.721  1.00  0.00     0.034 A 
HETATM   33  N   UNL     1      21.202  47.290  48.817  1.00  0.00    -0.341 N 
HETATM   34  C   UNL     1      21.030  49.812  48.788  1.00  0.00     0.032 A 
HETATM   35  H   UNL     1      20.234  46.997  48.892  1.00  0.00     0.167 HD
HETATM   36  C   UNL     1      21.851  50.945  48.752  1.00  0.00     0.002 A 
HETATM   37  C   UNL     1      23.243  50.833  48.719  1.00  0.00     0.002 A 
ENDBRANCH  23  28
ENDBRANCH   1  23
TORSDOF 7
ENDMDL
MODEL 3
REMARK VINA RESULT:      -9.4      2.907      9.440
REMARK  7 active torsions:
REMARK  status: ('A' for Active; 'I' for Inactive)
REMARK    1  A    between atoms: S_2  and  C_3 
REMARK    2  A    between atoms: C_3  and  C_4 
REMARK    3  A    between atoms: C_4  and  C_5 
REMARK    4  A    between atoms: C_5  and  N_6 
REMARK    5  A    between atoms: C_5  and  C_26 
REMARK       I    between atoms: N_6  and  C_7 
REMARK    6  A    between atoms: C_7  and  C_8 
REMARK    7  A    between atoms: C_8  and  N_9 
ROOT
HETATM    1  N   UNL     1      26.260  46.333  51.231  1.00  0.00    -0.348 N 
HETATM    2  C   UNL     1      26.630  46.852  50.013  1.00  0.00     0.236 C 
HETATM    3  O   UNL     1      27.102  46.145  49.121  1.00  0.00    -0.272 OA
HETATM    4  H   UNL     1      26.160  46.961  52.016  1.00  0.00     0.163 HD
ENDROOT
BRANCH   2   5
HETATM    5  C   UNL     1      26.339  48.335  49.777  1.00  0.00     0.239 C 
BRANCH   5   6
HETATM    6  N   UNL     1      25.073  48.623  49.136  1.00  0.00    -0.259 N 
HETATM    7  C   UNL     1      24.912  49.482  48.097  1.00  0.00     0.326 A 
HETATM    8  O   UNL     1      25.756  50.208  47.601  1.00  0.00    -0.247 OA
HETATM    9  N   UNL     1      23.609  49.417  47.670  1.00  0.00    -0.320 N 
HETATM   10  C   UNL     1      22.809  48.479  48.433  1.00  0.00     0.144 A 
HETATM   11  H   UNL     1      23.262  50.012  46.931  1.00  0.00     0.165 HD
HETATM   12  C   UNL     1      21.660  49.173  49.148  1.00  0.00    -0.014 A 
HETATM   13  C   UNL     1      22.365  47.320  47.529  1.00  0.00     0.047 C 
HETATM   14  C   UNL     1      23.898  47.978  49.415  1.00  0.00     0.261 A 
HETATM   15  C   UNL     1      20.396  48.552  49.251  1.00  0.00    -0.049 A 
HETATM   16  C   UNL     1      21.834  50.443  49.735  1.00  0.00     0.011 A 
HETATM   17  C   UNL     1      19.348  49.214  49.910  1.00  0.00     0.007 A 
HETATM   18  C   UNL     1      20.100  47.219  48.605  1.00  0.00     0.039 C 
HETATM   19  C   UNL     1      19.541  50.471  50.478  1.00  0.00     0.001 A 
HETATM   20  C   UNL     1      20.783  51.085  50.392  1.00  0.00     0.001 A 
HETATM   21  C   UNL     1      21.347  46.427  48.228  1.00  0.00     0.008 C 
HETATM   22  O   UNL     1      23.747  47.147  50.299  1.00  0.00    -0.270 OA
ENDBRANCH   5   6
ENDBRANCH   2   5
BRANCH   1  23
HETATM   23  C   UNL     1      26.361  44.910  51.522  1.00  0.00     0.155 C 
BRANCH  23  24
HETATM   24  C   UNL     1      25.001  44.321  51.924  1.00  0.00     0.043 C 
BRANCH  24  25
HETATM   25  C   UNL     1      24.401  43.349  50.905  1.00  0.00     0.076 C 
BRANCH  25  26
HETATM   26  S   UNL     1      25.483  41.955  50.441  1.00  0.00    -0.173 SA
HETATM   27  C   UNL     1      25.383  42.073  48.638  1.00  0.00     0.089 C 
ENDBRANCH  25  26
ENDBRANCH  24  25
ENDBRANCH  23  24
BRANCH  23  28
HETATM   28  C   UNL     1      27.380  44.736  52.612  1.00  0.00     0.128 A 
HETATM   29  N   UNL     1      27.554  45.469  53.695  1.00  0.00    -0.231 NA
HETATM   30  C   UNL     1      28.601  44.884  54.369  1.00  0.00     0.085 A 
HETATM   31  C   UNL     1      29.088  43.782  53.676  1.00  0.00     0.062 A 
HETATM   32  C   UNL     1      29.198  45.243  55.587  1.00  0.00     0.034 A 
HETATM   33  N   UNL     1      28.302  43.714  52.557  1.00  0.00    -0.341 N 
HETATM   34  C   UNL     1      30.155  43.001  54.123  1.00  0.00     0.032 A 
HETATM   35  H   UNL     1      28.392  43.062  51.787  1.00  0.00     0.167 HD
HETATM   36  C   UNL     1      30.737  43.374  55.340  1.00  0.00     0.002 A 
HETATM   37  C   UNL     1      30.269  44.474  56.063  1.00  0.00     0.002 A 
ENDBRANCH  23  28
ENDBRANCH   1  23
TORSDOF 7
ENDMDL
MODEL 4
REMARK VINA RESULT:      -9.0      3.862     10.346
REMARK  7 active torsions:
REMARK  status: ('A' for Active; 'I' for Inactive)
REMARK    1  A    between atoms: S_2  and  C_3 
REMARK    2  A    between atoms: C_3  and  C_4 
REMARK    3  A    between atoms: C_4  and  C_5 
REMARK    4  A    between atoms: C_5  and  N_6 
REMARK    5  A    between atoms: C_5  and  C_26 
REMARK       I    between atoms: N_6  and  C_7 
REMARK    6  A    between atoms: C_7  and  C_8 
REMARK    7  A    between atoms: C_8  and  N_9 
ROOT
HETATM    1  N   UNL     1      22.985  48.661  49.047  1.00  0.00    -0.348 N 
HETATM    2  C   UNL     1      23.450  49.716  48.297  1.00  0.00     0.236 C 
HETATM    3  O   UNL     1      24.346  49.576  47.463  1.00  0.00    -0.272 OA
HETATM    4  H   UNL     1      22.479  48.858  49.898  1.00  0.00     0.163 HD
ENDROOT
BRANCH   2   5
HETATM    5  C   UNL     1      22.736  51.057  48.474  1.00  0.00     0.239 C 
BRANCH   5   6
HETATM    6  N   UNL     1      21.373  50.974  48.956  1.00  0.00    -0.259 N 
HETATM    7  C   UNL     1      21.008  51.081  50.259  1.00  0.00     0.326 A 
HETATM    8  O   UNL     1      21.742  51.165  51.227  1.00  0.00    -0.247 OA
HETATM    9  N   UNL     1      19.637  51.075  50.333  1.00  0.00    -0.320 N 
HETATM   10  C   UNL     1      19.000  50.958  49.037  1.00  0.00     0.144 A 
HETATM   11  H   UNL     1      19.153  51.099  51.220  1.00  0.00     0.165 HD
HETATM   12  C   UNL     1      18.162  49.692  48.934  1.00  0.00    -0.014 A 
HETATM   13  C   UNL     1      18.219  52.243  48.724  1.00  0.00     0.047 C 
HETATM   14  C   UNL     1      20.269  50.899  48.150  1.00  0.00     0.261 A 
HETATM   15  C   UNL     1      16.927  49.700  48.252  1.00  0.00    -0.049 A 
HETATM   16  C   UNL     1      18.607  48.482  49.505  1.00  0.00     0.011 A 
HETATM   17  C   UNL     1      16.167  48.521  48.175  1.00  0.00     0.007 A 
HETATM   18  C   UNL     1      16.343  50.960  47.658  1.00  0.00     0.039 C 
HETATM   19  C   UNL     1      16.623  47.338  48.751  1.00  0.00     0.001 A 
HETATM   20  C   UNL     1      17.843  47.318  49.416  1.00  0.00     0.001 A 
HETATM   21  C   UNL     1      17.359  52.082  47.476  1.00  0.00     0.008 C 
HETATM   22  O   UNL     1      20.296  50.799  46.931  1.00  0.00    -0.270 OA
ENDBRANCH   5   6
ENDBRANCH   2   5
BRANCH   1  23
HETATM   23  C   UNL     1      23.493  47.309  48.867  1.00  0.00     0.155 C 
BRANCH  23  24
HETATM   24  C   UNL     1      22.359  46.321  48.553  1.00  0.00     0.043 C 
BRANCH  24  25
HETATM   25  C   UNL     1      21.990  46.224  47.071  1.00  0.00     0.076 C 
BRANCH  25  26
HETATM   26  S   UNL     1      20.254  45.771  46.737  1.00  0.00    -0.173 SA
HETATM   27  C   UNL     1      19.621  47.368  46.169  1.00  0.00     0.089 C 
ENDBRANCH  25  26
ENDBRANCH  24  25
ENDBRANCH  23  24
BRANCH  23  28
HETATM   28  C   UNL     1      24.227  46.924  50.119  1.00  0.00     0.128 A 
HETATM   29  N   UNL     1      25.020  47.670  50.865  1.00  0.00    -0.231 NA
HETATM   30  C   UNL     1      25.425  46.854  51.897  1.00  0.00     0.085 A 
HETATM   31  C   UNL     1      24.883  45.581  51.770  1.00  0.00     0.062 A 
HETATM   32  C   UNL     1      26.263  47.134  52.986  1.00  0.00     0.034 A 
HETATM   33  N   UNL     1      24.134  45.647  50.626  1.00  0.00    -0.341 N 
HETATM   34  C   UNL     1      25.130  44.545  52.672  1.00  0.00     0.032 A 
HETATM   35  H   UNL     1      23.625  44.890  50.185  1.00  0.00     0.167 HD
HETATM   36  C   UNL     1      25.968  44.843  53.753  1.00  0.00     0.002 A 
HETATM   37  C   UNL     1      26.526  46.114  53.911  1.00  0.00     0.002 A 
ENDBRANCH  23  28
ENDBRANCH   1  23
TORSDOF 7
ENDMDL
MODEL 5
REMARK VINA RESULT:      -9.0      3.155      8.977
REMARK  7 active torsions:
REMARK  status: ('A' for Active; 'I' for Inactive)
REMARK    1  A    between atoms: S_2  and  C_3 
REMARK    2  A    between atoms: C_3  and  C_4 
REMARK    3  A    between atoms: C_4  and  C_5 
REMARK    4  A    between atoms: C_5  and  N_6 
REMARK    5  A    between atoms: C_5  and  C_26 
REMARK       I    between atoms: N_6  and  C_7 
REMARK    6  A    between atoms: C_7  and  C_8 
REMARK    7  A    between atoms: C_8  and  N_9 
ROOT
HETATM    1  N   UNL     1      27.271  42.909  52.042  1.00  0.00    -0.348 N 
HETATM    2  C   UNL     1      26.770  42.947  50.762  1.00  0.00     0.236 C 
HETATM    3  O   UNL     1      27.380  42.457  49.810  1.00  0.00    -0.272 OA
HETATM    4  H   UNL     1      26.905  43.556  52.725  1.00  0.00     0.163 HD
ENDROOT
BRANCH   2   5
HETATM    5  C   UNL     1      25.372  43.543  50.585  1.00  0.00     0.239 C 
BRANCH   5   6
HETATM    6  N   UNL     1      25.291  44.983  50.715  1.00  0.00    -0.259 N 
HETATM    7  C   UNL     1      24.879  45.634  51.833  1.00  0.00     0.326 A 
HETATM    8  O   UNL     1      24.430  45.141  52.852  1.00  0.00    -0.247 OA
HETATM    9  N   UNL     1      25.044  46.983  51.640  1.00  0.00    -0.320 N 
HETATM   10  C   UNL     1      25.590  47.308  50.338  1.00  0.00     0.144 A 
HETATM   11  H   UNL     1      24.755  47.658  52.336  1.00  0.00     0.165 HD
HETATM   12  C   UNL     1      24.630  48.159  49.521  1.00  0.00    -0.014 A 
HETATM   13  C   UNL     1      26.984  47.932  50.501  1.00  0.00     0.047 C 
HETATM   14  C   UNL     1      25.733  45.872  49.773  1.00  0.00     0.261 A 
HETATM   15  C   UNL     1      25.111  49.201  48.700  1.00  0.00    -0.049 A 
HETATM   16  C   UNL     1      23.241  47.917  49.555  1.00  0.00     0.011 A 
HETATM   17  C   UNL     1      24.206  49.978  47.959  1.00  0.00     0.007 A 
HETATM   18  C   UNL     1      26.575  49.570  48.643  1.00  0.00     0.039 C 
HETATM   19  C   UNL     1      22.837  49.725  48.012  1.00  0.00     0.001 A 
HETATM   20  C   UNL     1      22.354  48.695  48.809  1.00  0.00     0.001 A 
HETATM   21  C   UNL     1      27.504  48.486  49.179  1.00  0.00     0.008 C 
HETATM   22  O   UNL     1      26.164  45.569  48.669  1.00  0.00    -0.270 OA
ENDBRANCH   5   6
ENDBRANCH   2   5
BRANCH   1  23
HETATM   23  C   UNL     1      28.528  42.246  52.355  1.00  0.00     0.155 C 
BRANCH  23  24
HETATM   24  C   UNL     1      28.327  40.741  52.587  1.00  0.00     0.043 C 
BRANCH  24  25
HETATM   25  C   UNL     1      29.205  39.838  51.717  1.00  0.00     0.076 C 
BRANCH  25  26
HETATM   26  S   UNL     1      28.456  39.331  50.132  1.00  0.00    -0.173 SA
HETATM   27  C   UNL     1      29.726  38.184  49.543  1.00  0.00     0.089 C 
ENDBRANCH  25  26
ENDBRANCH  24  25
ENDBRANCH  23  24
BRANCH  23  28
HETATM   28  C   UNL     1      29.112  42.916  53.565  1.00  0.00     0.128 A 
HETATM   29  N   UNL     1      30.119  42.515  54.317  1.00  0.00    -0.231 NA
HETATM   30  C   UNL     1      30.265  43.485  55.282  1.00  0.00     0.085 A 
HETATM   31  C   UNL     1      29.317  44.489  55.128  1.00  0.00     0.062 A 
HETATM   32  C   UNL     1      31.189  43.574  56.333  1.00  0.00     0.034 A 
HETATM   33  N   UNL     1      28.589  44.100  54.035  1.00  0.00    -0.341 N 
HETATM   34  C   UNL     1      29.226  45.598  55.971  1.00  0.00     0.032 A 
HETATM   35  H   UNL     1      27.776  44.563  53.648  1.00  0.00     0.167 HD
HETATM   36  C   UNL     1      30.157  45.670  57.013  1.00  0.00     0.002 A 
HETATM   37  C   UNL     1      31.124  44.678  57.194  1.00  0.00     0.002 A 
ENDBRANCH  23  28
ENDBRANCH   1  23
TORSDOF 7
ENDMDL
MODEL 6
REMARK VINA RESULT:      -8.9      2.044      2.960
REMARK  7 active torsions:
REMARK  status: ('A' for Active; 'I' for Inactive)
REMARK    1  A    between atoms: S_2  and  C_3 
REMARK    2  A    between atoms: C_3  and  C_4 
REMARK    3  A    between atoms: C_4  and  C_5 
REMARK    4  A    between atoms: C_5  and  N_6 
REMARK    5  A    between atoms: C_5  and  C_26 
REMARK       I    between atoms: N_6  and  C_7 
REMARK    6  A    between atoms: C_7  and  C_8 
REMARK    7  A    between atoms: C_8  and  N_9 
ROOT
HETATM    1  N   UNL     1      23.719  45.829  48.945  1.00  0.00    -0.348 N 
HETATM    2  C   UNL     1      24.412  44.652  49.097  1.00  0.00     0.236 C 
HETATM    3  O   UNL     1      23.924  43.564  48.784  1.00  0.00    -0.272 OA
HETATM    4  H   UNL     1      24.019  46.639  49.467  1.00  0.00     0.163 HD
ENDROOT
BRANCH   2   5
HETATM    5  C   UNL     1      25.858  44.759  49.585  1.00  0.00     0.239 C 
BRANCH   5   6
HETATM    6  N   UNL     1      26.072  44.398  50.971  1.00  0.00    -0.259 N 
HETATM    7  C   UNL     1      25.083  44.203  51.880  1.00  0.00     0.326 A 
HETATM    8  O   UNL     1      23.889  44.383  51.721  1.00  0.00    -0.247 OA
HETATM    9  N   UNL     1      25.644  43.759  53.051  1.00  0.00    -0.320 N 
HETATM   10  C   UNL     1      27.086  43.635  52.978  1.00  0.00     0.144 A 
HETATM   11  H   UNL     1      25.086  43.594  53.878  1.00  0.00     0.165 HD
HETATM   12  C   UNL     1      27.780  44.553  53.973  1.00  0.00    -0.014 A 
HETATM   13  C   UNL     1      27.488  42.159  53.114  1.00  0.00     0.047 C 
HETATM   14  C   UNL     1      27.292  44.091  51.511  1.00  0.00     0.261 A 
HETATM   15  C   UNL     1      28.937  44.126  54.659  1.00  0.00    -0.049 A 
HETATM   16  C   UNL     1      27.293  45.852  54.220  1.00  0.00     0.011 A 
HETATM   17  C   UNL     1      29.558  44.988  55.578  1.00  0.00     0.007 A 
HETATM   18  C   UNL     1      29.499  42.733  54.502  1.00  0.00     0.039 C 
HETATM   19  C   UNL     1      29.057  46.266  55.811  1.00  0.00     0.001 A 
HETATM   20  C   UNL     1      27.925  46.699  55.132  1.00  0.00     0.001 A 
HETATM   21  C   UNL     1      28.997  42.004  53.261  1.00  0.00     0.008 C 
HETATM   22  O   UNL     1      28.361  44.170  50.922  1.00  0.00    -0.270 OA
ENDBRANCH   5   6
ENDBRANCH   2   5
BRANCH   1  23
HETATM   23  C   UNL     1      22.386  45.866  48.361  1.00  0.00     0.155 C 
BRANCH  23  24
HETATM   24  C   UNL     1      22.400  45.391  46.900  1.00  0.00     0.043 C 
BRANCH  24  25
HETATM   25  C   UNL     1      21.045  45.468  46.192  1.00  0.00     0.076 C 
BRANCH  25  26
HETATM   26  S   UNL     1      19.679  44.613  47.048  1.00  0.00    -0.173 SA
HETATM   27  C   UNL     1      18.619  44.230  45.633  1.00  0.00     0.089 C 
ENDBRANCH  25  26
ENDBRANCH  24  25
ENDBRANCH  23  24
BRANCH  23  28
HETATM   28  C   UNL     1      21.872  47.272  48.478  1.00  0.00     0.128 A 
HETATM   29  N   UNL     1      22.320  48.360  47.880  1.00  0.00    -0.231 NA
HETATM   30  C   UNL     1      21.500  49.378  48.309  1.00  0.00     0.085 A 
HETATM   31  C   UNL     1      20.544  48.907  49.201  1.00  0.00     0.062 A 
HETATM   32  C   UNL     1      21.515  50.741  47.981  1.00  0.00     0.034 A 
HETATM   33  N   UNL     1      20.808  47.567  49.300  1.00  0.00    -0.341 N 
HETATM   34  C   UNL     1      19.584  49.722  49.802  1.00  0.00     0.032 A 
HETATM   35  H   UNL     1      20.342  46.896  49.900  1.00  0.00     0.167 HD
HETATM   36  C   UNL     1      19.613  51.079  49.461  1.00  0.00     0.002 A 
HETATM   37  C   UNL     1      20.559  51.584  48.566  1.00  0.00     0.002 A 
ENDBRANCH  23  28
ENDBRANCH   1  23
TORSDOF 7
ENDMDL
MODEL 7
REMARK VINA RESULT:      -8.7      2.514      3.864
REMARK  7 active torsions:
REMARK  status: ('A' for Active; 'I' for Inactive)
REMARK    1  A    between atoms: S_2  and  C_3 
REMARK    2  A    between atoms: C_3  and  C_4 
REMARK    3  A    between atoms: C_4  and  C_5 
REMARK    4  A    between atoms: C_5  and  N_6 
REMARK    5  A    between atoms: C_5  and  C_26 
REMARK       I    between atoms: N_6  and  C_7 
REMARK    6  A    between atoms: C_7  and  C_8 
REMARK    7  A    between atoms: C_8  and  N_9 
ROOT
HETATM    1  N   UNL     1      22.745  46.193  49.355  1.00  0.00    -0.348 N 
HETATM    2  C   UNL     1      23.012  44.851  49.220  1.00  0.00     0.236 C 
HETATM    3  O   UNL     1      22.890  44.269  48.141  1.00  0.00    -0.272 OA
HETATM    4  H   UNL     1      22.573  46.563  50.279  1.00  0.00     0.163 HD
ENDROOT
BRANCH   2   5
HETATM    5  C   UNL     1      23.563  44.129  50.451  1.00  0.00     0.239 C 
BRANCH   5   6
HETATM    6  N   UNL     1      24.841  44.612  50.932  1.00  0.00    -0.259 N 
HETATM    7  C   UNL     1      25.799  45.171  50.150  1.00  0.00     0.326 A 
HETATM    8  O   UNL     1      25.794  45.275  48.936  1.00  0.00    -0.247 OA
HETATM    9  N   UNL     1      26.817  45.618  50.954  1.00  0.00    -0.320 N 
HETATM   10  C   UNL     1      26.580  45.366  52.362  1.00  0.00     0.144 A 
HETATM   11  H   UNL     1      27.657  46.029  50.569  1.00  0.00     0.165 HD
HETATM   12  C   UNL     1      27.639  44.450  52.955  1.00  0.00    -0.014 A 
HETATM   13  C   UNL     1      26.427  46.700  53.109  1.00  0.00     0.047 C 
HETATM   14  C   UNL     1      25.197  44.677  52.253  1.00  0.00     0.261 A 
HETATM   15  C   UNL     1      28.126  44.664  54.263  1.00  0.00    -0.049 A 
HETATM   16  C   UNL     1      28.147  43.360  52.220  1.00  0.00     0.011 A 
HETATM   17  C   UNL     1      29.108  43.809  54.789  1.00  0.00     0.007 A 
HETATM   18  C   UNL     1      27.682  45.838  55.104  1.00  0.00     0.039 C 
HETATM   19  C   UNL     1      29.600  42.742  54.042  1.00  0.00     0.001 A 
HETATM   20  C   UNL     1      29.120  42.516  52.758  1.00  0.00     0.001 A 
HETATM   21  C   UNL     1      26.394  46.491  54.618  1.00  0.00     0.008 C 
HETATM   22  O   UNL     1      24.525  44.252  53.182  1.00  0.00    -0.270 OA
ENDBRANCH   5   6
ENDBRANCH   2   5
BRANCH   1  23
HETATM   23  C   UNL     1      22.347  47.015  48.222  1.00  0.00     0.155 C 
BRANCH  23  24
HETATM   24  C   UNL     1      23.081  48.365  48.222  1.00  0.00     0.043 C 
BRANCH  24  25
HETATM   25  C   UNL     1      23.947  48.619  49.458  1.00  0.00     0.076 C 
BRANCH  25  26
HETATM   26  S   UNL     1      25.738  48.743  49.131  1.00  0.00    -0.173 SA
HETATM   27  C   UNL     1      25.736  50.058  47.888  1.00  0.00     0.089 C 
ENDBRANCH  25  26
ENDBRANCH  24  25
ENDBRANCH  23  24
BRANCH  23  28
HETATM   28  C   UNL     1      20.858  47.198  48.287  1.00  0.00     0.128 A 
HETATM   29  N   UNL     1      19.923  46.272  48.386  1.00  0.00    -0.231 NA
HETATM   30  C   UNL     1      18.731  46.958  48.423  1.00  0.00     0.085 A 
HETATM   31  C   UNL     1      18.941  48.329  48.326  1.00  0.00     0.062 A 
HETATM   32  C   UNL     1      17.420  46.474  48.535  1.00  0.00     0.034 A 
HETATM   33  N   UNL     1      20.300  48.455  48.230  1.00  0.00    -0.341 N 
HETATM   34  C   UNL     1      17.907  49.267  48.331  1.00  0.00     0.032 A 
HETATM   35  H   UNL     1      20.825  49.312  48.096  1.00  0.00     0.167 HD
HETATM   36  C   UNL     1      16.606  48.765  48.445  1.00  0.00     0.002 A 
HETATM   37  C   UNL     1      16.362  47.394  48.546  1.00  0.00     0.002 A 
ENDBRANCH  23  28
ENDBRANCH   1  23
TORSDOF 7
ENDMDL
MODEL 8
REMARK VINA RESULT:      -8.6      2.320      3.672
REMARK  7 active torsions:
REMARK  status: ('A' for Active; 'I' for Inactive)
REMARK    1  A    between atoms: S_2  and  C_3 
REMARK    2  A    between atoms: C_3  and  C_4 
REMARK    3  A    between atoms: C_4  and  C_5 
REMARK    4  A    between atoms: C_5  and  N_6 
REMARK    5  A    between atoms: C_5  and  C_26 
REMARK       I    between atoms: N_6  and  C_7 
REMARK    6  A    between atoms: C_7  and  C_8 
REMARK    7  A    between atoms: C_8  and  N_9 
ROOT
HETATM    1  N   UNL     1      22.724  45.195  47.827  1.00  0.00    -0.348 N 
HETATM    2  C   UNL     1      23.133  44.419  48.886  1.00  0.00     0.236 C 
HETATM    3  O   UNL     1      22.341  44.011  49.738  1.00  0.00    -0.272 OA
HETATM    4  H   UNL     1      23.414  45.741  47.331  1.00  0.00     0.163 HD
ENDROOT
BRANCH   2   5
HETATM    5  C   UNL     1      24.604  44.002  48.909  1.00  0.00     0.239 C 
BRANCH   5   6
HETATM    6  N   UNL     1      25.363  44.470  50.050  1.00  0.00    -0.259 N 
HETATM    7  C   UNL     1      26.056  45.637  50.090  1.00  0.00     0.326 A 
HETATM    8  O   UNL     1      26.234  46.422  49.176  1.00  0.00    -0.247 OA
HETATM    9  N   UNL     1      26.549  45.811  51.359  1.00  0.00    -0.320 N 
HETATM   10  C   UNL     1      26.200  44.729  52.257  1.00  0.00     0.144 A 
HETATM   11  H   UNL     1      27.137  46.599  51.597  1.00  0.00     0.165 HD
HETATM   12  C   UNL     1      27.435  44.011  52.780  1.00  0.00    -0.014 A 
HETATM   13  C   UNL     1      25.274  45.253  53.365  1.00  0.00     0.047 C 
HETATM   14  C   UNL     1      25.381  43.856  51.273  1.00  0.00     0.261 A 
HETATM   15  C   UNL     1      27.492  43.556  54.114  1.00  0.00    -0.049 A 
HETATM   16  C   UNL     1      28.541  43.771  51.940  1.00  0.00     0.011 A 
HETATM   17  C   UNL     1      28.645  42.900  54.577  1.00  0.00     0.007 A 
HETATM   18  C   UNL     1      26.379  43.817  55.102  1.00  0.00     0.039 C 
HETATM   19  C   UNL     1      29.729  42.679  53.731  1.00  0.00     0.001 A 
HETATM   20  C   UNL     1      29.678  43.113  52.413  1.00  0.00     0.001 A 
HETATM   21  C   UNL     1      25.057  44.204  54.451  1.00  0.00     0.008 C 
HETATM   22  O   UNL     1      24.837  42.791  51.532  1.00  0.00    -0.270 OA
ENDBRANCH   5   6
ENDBRANCH   2   5
BRANCH   1  23
HETATM   23  C   UNL     1      21.325  45.541  47.624  1.00  0.00     0.155 C 
BRANCH  23  24
HETATM   24  C   UNL     1      20.873  45.232  46.189  1.00  0.00     0.043 C 
BRANCH  24  25
HETATM   25  C   UNL     1      20.032  43.961  46.045  1.00  0.00     0.076 C 
BRANCH  25  26
HETATM   26  S   UNL     1      20.834  42.607  45.120  1.00  0.00    -0.173 SA
HETATM   27  C   UNL     1      21.871  41.911  46.428  1.00  0.00     0.089 C 
ENDBRANCH  25  26
ENDBRANCH  24  25
ENDBRANCH  23  24
BRANCH  23  28
HETATM   28  C   UNL     1      21.160  46.997  47.951  1.00  0.00     0.128 A 
HETATM   29  N   UNL     1      21.665  48.041  47.321  1.00  0.00    -0.231 NA
HETATM   30  C   UNL     1      21.206  49.141  48.007  1.00  0.00     0.085 A 
HETATM   31  C   UNL     1      20.418  48.763  49.088  1.00  0.00     0.062 A 
HETATM   32  C   UNL     1      21.423  50.505  47.765  1.00  0.00     0.034 A 
HETATM   33  N   UNL     1      20.413  47.395  49.038  1.00  0.00    -0.341 N 
HETATM   34  C   UNL     1      19.825  49.673  49.965  1.00  0.00     0.032 A 
HETATM   35  H   UNL     1      19.978  46.762  49.699  1.00  0.00     0.167 HD
HETATM   36  C   UNL     1      20.053  51.030  49.707  1.00  0.00     0.002 A 
HETATM   37  C   UNL     1      20.836  51.443  48.627  1.00  0.00     0.002 A 
ENDBRANCH  23  28
ENDBRANCH   1  23
TORSDOF 7
ENDMDL
MODEL 9
REMARK VINA RESULT:      -8.6      4.199     11.395
REMARK  7 active torsions:
REMARK  status: ('A' for Active; 'I' for Inactive)
REMARK    1  A    between atoms: S_2  and  C_3 
REMARK    2  A    between atoms: C_3  and  C_4 
REMARK    3  A    between atoms: C_4  and  C_5 
REMARK    4  A    between atoms: C_5  and  N_6 
REMARK    5  A    between atoms: C_5  and  C_26 
REMARK       I    between atoms: N_6  and  C_7 
REMARK    6  A    between atoms: C_7  and  C_8 
REMARK    7  A    between atoms: C_8  and  N_9 
ROOT
HETATM    1  N   UNL     1      21.989  48.836  49.602  1.00  0.00    -0.348 N 
HETATM    2  C   UNL     1      21.844  50.202  49.531  1.00  0.00     0.236 C 
HETATM    3  O   UNL     1      22.631  50.907  48.897  1.00  0.00    -0.272 OA
HETATM    4  H   UNL     1      21.522  48.337  50.344  1.00  0.00     0.163 HD
ENDROOT
BRANCH   2   5
HETATM    5  C   UNL     1      20.605  50.800  50.198  1.00  0.00     0.239 C 
BRANCH   5   6
HETATM    6  N   UNL     1      19.348  50.522  49.533  1.00  0.00    -0.259 N 
HETATM    7  C   UNL     1      18.684  49.340  49.602  1.00  0.00     0.326 A 
HETATM    8  O   UNL     1      19.060  48.311  50.136  1.00  0.00    -0.247 OA
HETATM    9  N   UNL     1      17.482  49.473  48.954  1.00  0.00    -0.320 N 
HETATM   10  C   UNL     1      17.280  50.797  48.400  1.00  0.00     0.144 A 
HETATM   11  H   UNL     1      16.847  48.694  48.848  1.00  0.00     0.165 HD
HETATM   12  C   UNL     1      17.137  50.756  46.886  1.00  0.00    -0.014 A 
HETATM   13  C   UNL     1      16.107  51.485  49.113  1.00  0.00     0.047 C 
HETATM   14  C   UNL     1      18.611  51.451  48.850  1.00  0.00     0.261 A 
HETATM   15  C   UNL     1      16.220  51.603  46.227  1.00  0.00    -0.049 A 
HETATM   16  C   UNL     1      17.926  49.885  46.108  1.00  0.00     0.011 A 
HETATM   17  C   UNL     1      16.101  51.544  44.828  1.00  0.00     0.007 A 
HETATM   18  C   UNL     1      15.294  52.528  46.980  1.00  0.00     0.039 C 
HETATM   19  C   UNL     1      16.886  50.671  44.080  1.00  0.00     0.001 A 
HETATM   20  C   UNL     1      17.800  49.842  44.719  1.00  0.00     0.001 A 
HETATM   21  C   UNL     1      15.721  52.787  48.420  1.00  0.00     0.008 C 
HETATM   22  O   UNL     1      18.959  52.603  48.635  1.00  0.00    -0.270 OA
ENDBRANCH   5   6
ENDBRANCH   2   5
BRANCH   1  23
HETATM   23  C   UNL     1      23.052  48.139  48.893  1.00  0.00     0.155 C 
BRANCH  23  24
HETATM   24  C   UNL     1      22.485  47.169  47.845  1.00  0.00     0.043 C 
BRANCH  24  25
HETATM   25  C   UNL     1      21.125  47.573  47.271  1.00  0.00     0.076 C 
BRANCH  25  26
HETATM   26  S   UNL     1      19.880  46.239  47.228  1.00  0.00    -0.173 SA
HETATM   27  C   UNL     1      20.372  45.309  48.699  1.00  0.00     0.089 C 
ENDBRANCH  25  26
ENDBRANCH  24  25
ENDBRANCH  23  24
BRANCH  23  28
HETATM   28  C   UNL     1      23.890  47.422  49.912  1.00  0.00     0.128 A 
HETATM   29  N   UNL     1      24.767  47.930  50.755  1.00  0.00    -0.231 NA
HETATM   30  C   UNL     1      25.246  46.860  51.476  1.00  0.00     0.085 A 
HETATM   31  C   UNL     1      24.662  45.672  51.052  1.00  0.00     0.062 A 
HETATM   32  C   UNL     1      26.189  46.826  52.513  1.00  0.00     0.034 A 
HETATM   33  N   UNL     1      23.811  46.054  50.050  1.00  0.00    -0.341 N 
HETATM   34  C   UNL     1      24.966  44.426  51.604  1.00  0.00     0.032 A 
HETATM   35  H   UNL     1      23.245  45.448  49.467  1.00  0.00     0.167 HD
HETATM   36  C   UNL     1      25.908  44.412  52.638  1.00  0.00     0.002 A 
HETATM   37  C   UNL     1      26.511  45.589  53.088  1.00  0.00     0.002 A 
ENDBRANCH  23  28
ENDBRANCH   1  23
TORSDOF 7
ENDMDL
MODEL 10
REMARK VINA RESULT:      -8.5      4.537     10.082
REMARK  7 active torsions:
REMARK  status: ('A' for Active; 'I' for Inactive)
REMARK    1  A    between atoms: S_2  and  C_3 
REMARK    2  A    between atoms: C_3  and  C_4 
REMARK    3  A    between atoms: C_4  and  C_5 
REMARK    4  A    between atoms: C_5  and  N_6 
REMARK    5  A    between atoms: C_5  and  C_26 
REMARK       I    between atoms: N_6  and  C_7 
REMARK    6  A    between atoms: C_7  and  C_8 
REMARK    7  A    between atoms: C_8  and  N_9 
ROOT
HETATM    1  N   UNL     1      28.513  41.631  51.521  1.00  0.00    -0.348 N 
HETATM    2  C   UNL     1      27.781  40.577  51.029  1.00  0.00     0.236 C 
HETATM    3  O   UNL     1      26.549  40.581  51.035  1.00  0.00    -0.272 OA
HETATM    4  H   UNL     1      29.480  41.478  51.766  1.00  0.00     0.163 HD
ENDROOT
BRANCH   2   5
HETATM    5  C   UNL     1      28.566  39.435  50.380  1.00  0.00     0.239 C 
BRANCH   5   6
HETATM    6  N   UNL     1      28.032  38.953  49.123  1.00  0.00    -0.259 N 
HETATM    7  C   UNL     1      27.209  37.881  48.995  1.00  0.00     0.326 A 
HETATM    8  O   UNL     1      26.862  37.107  49.869  1.00  0.00    -0.247 OA
HETATM    9  N   UNL     1      26.809  37.789  47.685  1.00  0.00    -0.320 N 
HETATM   10  C   UNL     1      27.370  38.830  46.846  1.00  0.00     0.144 A 
HETATM   11  H   UNL     1      26.225  37.030  47.360  1.00  0.00     0.165 HD
HETATM   12  C   UNL     1      28.245  38.253  45.744  1.00  0.00    -0.014 A 
HETATM   13  C   UNL     1      26.246  39.742  46.331  1.00  0.00     0.047 C 
HETATM   14  C   UNL     1      28.193  39.585  47.920  1.00  0.00     0.261 A 
HETATM   15  C   UNL     1      28.241  38.820  44.452  1.00  0.00    -0.049 A 
HETATM   16  C   UNL     1      29.090  37.152  45.993  1.00  0.00     0.011 A 
HETATM   17  C   UNL     1      29.053  38.268  43.448  1.00  0.00     0.007 A 
HETATM   18  C   UNL     1      27.329  39.964  44.077  1.00  0.00     0.039 C 
HETATM   19  C   UNL     1      29.876  37.176  43.714  1.00  0.00     0.001 A 
HETATM   20  C   UNL     1      29.895  36.618  44.986  1.00  0.00     0.001 A 
HETATM   21  C   UNL     1      26.760  40.714  45.276  1.00  0.00     0.008 C 
HETATM   22  O   UNL     1      28.879  40.581  47.737  1.00  0.00    -0.270 OA
ENDBRANCH   5   6
ENDBRANCH   2   5
BRANCH   1  23
HETATM   23  C   UNL     1      27.875  42.834  52.037  1.00  0.00     0.155 C 
BRANCH  23  24
HETATM   24  C   UNL     1      27.832  43.945  50.977  1.00  0.00     0.043 C 
BRANCH  24  25
HETATM   25  C   UNL     1      26.428  44.464  50.654  1.00  0.00     0.076 C 
BRANCH  25  26
HETATM   26  S   UNL     1      25.114  43.881  51.778  1.00  0.00    -0.173 SA
HETATM   27  C   UNL     1      24.077  42.981  50.600  1.00  0.00     0.089 C 
ENDBRANCH  25  26
ENDBRANCH  24  25
ENDBRANCH  23  24
BRANCH  23  28
HETATM   28  C   UNL     1      28.633  43.268  53.259  1.00  0.00     0.128 A 
HETATM   29  N   UNL     1      29.594  42.627  53.896  1.00  0.00    -0.231 NA
HETATM   30  C   UNL     1      29.961  43.455  54.933  1.00  0.00     0.085 A 
HETATM   31  C   UNL     1      29.196  44.615  54.940  1.00  0.00     0.062 A 
HETATM   32  C   UNL     1      30.943  43.278  55.918  1.00  0.00     0.034 A 
HETATM   33  N   UNL     1      28.352  44.469  53.872  1.00  0.00    -0.341 N 
HETATM   34  C   UNL     1      29.347  45.631  55.886  1.00  0.00     0.032 A 
HETATM   35  H   UNL     1      27.612  45.099  53.588  1.00  0.00     0.167 HD
HETATM   36  C   UNL     1      30.333  45.438  56.860  1.00  0.00     0.002 A 
HETATM   37  C   UNL     1      31.119  44.284  56.879  1.00  0.00     0.002 A 
ENDBRANCH  23  28
ENDBRANCH   1  23
TORSDOF 7
ENDMDL
