MODEL 1
REMARK VINA RESULT:      -8.8      0.000      0.000
REMARK  10 active torsions:
REMARK  status: ('A' for Active; 'I' for Inactive)
REMARK    1  A    between atoms: C_2  and  O_3 
REMARK    2  A    between atoms: O_3  and  C_4 
REMARK    3  A    between atoms: C_4  and  C_5 
REMARK    4  A    between atoms: C_6  and  C_7 
REMARK    5  A    between atoms: C_7  and  O_8 
REMARK    6  A    between atoms: O_8  and  C_9 
REMARK    7  A    between atoms: C_9  and  C_10 
REMARK       I    between atoms: C_10  and  N_11 
REMARK    8  A    between atoms: N_11  and  C_12 
REMARK    9  A    between atoms: C_12  and  C_13 
REMARK       I    between atoms: C_13  and  N_14 
REMARK   10  A    between atoms: N_14  and  C_15 
ROOT
HETATM    1  C   UNL     1      26.787  41.025  51.074  1.00  0.00     0.281 C 
ENDROOT
BRANCH   1   2
HETATM    2  O   UNL     1      27.821  41.932  51.431  1.00  0.00    -0.307 OA
BRANCH   2   3
HETATM    3  C   UNL     1      28.210  41.857  52.737  1.00  0.00     0.318 C 
HETATM    4  O   UNL     1      28.498  40.805  53.305  1.00  0.00    -0.257 OA
BRANCH   3   5
HETATM    5  C   UNL     1      28.149  43.167  53.347  1.00  0.00     0.160 A 
HETATM    6  C   UNL     1      29.049  43.839  54.166  1.00  0.00     0.018 A 
HETATM    7  C   UNL     1      28.422  45.074  54.520  1.00  0.00     0.009 A 
HETATM    8  C   UNL     1      27.195  45.080  53.873  1.00  0.00     0.087 A 
HETATM    9  C   UNL     1      28.762  46.190  55.310  1.00  0.00     0.015 A 
HETATM   10  O   UNL     1      27.027  43.934  53.165  1.00  0.00    -0.303 OA
HETATM   11  C   UNL     1      26.270  46.119  53.949  1.00  0.00     0.038 A 
HETATM   12  C   UNL     1      26.626  47.215  54.741  1.00  0.00     0.003 A 
HETATM   13  C   UNL     1      27.850  47.251  55.413  1.00  0.00     0.001 A 
BRANCH   6  14
HETATM   14  C   UNL     1      30.405  43.374  54.556  1.00  0.00     0.210 C 
BRANCH  14  15
HETATM   15  O   UNL     1      30.419  43.024  55.938  1.00  0.00    -0.387 OA
BRANCH  15  16
HETATM   16  C   UNL     1      31.527  43.588  56.629  1.00  0.00     0.163 C 
HETATM   17  C   UNL     1      31.000  44.508  57.712  1.00  0.00     0.033 C 
ENDBRANCH  15  16
ENDBRANCH  14  15
ENDBRANCH   6  14
ENDBRANCH   3   5
ENDBRANCH   2   3
ENDBRANCH   1   2
BRANCH   1  18
HETATM   18  C   UNL     1      25.510  41.678  50.533  1.00  0.00     0.242 C 
HETATM   19  N   UNL     1      25.102  42.797  51.230  1.00  0.00    -0.350 N 
HETATM   20  H   UNL     1      25.559  43.057  52.095  1.00  0.00     0.163 HD
HETATM   21  O   UNL     1      24.905  41.240  49.561  1.00  0.00    -0.271 OA
BRANCH  19  22
HETATM   22  C   UNL     1      23.966  43.587  50.783  1.00  0.00     0.225 C 
BRANCH  22  23
HETATM   23  C   UNL     1      24.275  44.737  49.814  1.00  0.00     0.239 C 
HETATM   24  N   UNL     1      24.008  45.994  50.332  1.00  0.00    -0.325 N 
HETATM   25  H   UNL     1      23.231  46.002  50.990  1.00  0.00     0.169 HD
HETATM   26  O   UNL     1      24.799  44.492  48.730  1.00  0.00    -0.271 OA
BRANCH  24  27
HETATM   27  C   UNL     1      24.333  47.243  49.749  1.00  0.00     0.041 C 
HETATM   28  C   UNL     1      25.603  47.863  49.747  1.00  0.00    -0.029 C 
HETATM   29  C   UNL     1      26.757  47.367  50.583  1.00  0.00     0.051 C 
HETATM   30  C   UNL     1      25.797  49.038  48.971  1.00  0.00    -0.054 C 
HETATM   31  C   UNL     1      27.152  49.684  48.827  1.00  0.00     0.049 C 
HETATM   32  C   UNL     1      24.702  49.658  48.355  1.00  0.00     0.007 C 
HETATM   33  C   UNL     1      23.431  49.116  48.472  1.00  0.00     0.003 C 
HETATM   34  C   UNL     1      23.252  47.914  49.152  1.00  0.00     0.030 C 
ENDBRANCH  24  27
ENDBRANCH  22  23
ENDBRANCH  19  22
ENDBRANCH   1  18
TORSDOF 10
ENDMDL
MODEL 2
REMARK VINA RESULT:      -8.7      2.731      5.058
REMARK  10 active torsions:
REMARK  status: ('A' for Active; 'I' for Inactive)
REMARK    1  A    between atoms: C_2  and  O_3 
REMARK    2  A    between atoms: O_3  and  C_4 
REMARK    3  A    between atoms: C_4  and  C_5 
REMARK    4  A    between atoms: C_6  and  C_7 
REMARK    5  A    between atoms: C_7  and  O_8 
REMARK    6  A    between atoms: O_8  and  C_9 
REMARK    7  A    between atoms: C_9  and  C_10 
REMARK       I    between atoms: C_10  and  N_11 
REMARK    8  A    between atoms: N_11  and  C_12 
REMARK    9  A    between atoms: C_12  and  C_13 
REMARK       I    between atoms: C_13  and  N_14 
REMARK   10  A    between atoms: N_14  and  C_15 
ROOT
HETATM    1  C   UNL     1      24.923  45.273  50.999  1.00  0.00     0.281 C 
ENDROOT
BRANCH   1   2
HETATM    2  O   UNL     1      26.055  44.692  51.629  1.00  0.00    -0.307 OA
BRANCH   2   3
HETATM    3  C   UNL     1      25.849  44.319  52.926  1.00  0.00     0.318 C 
HETATM    4  O   UNL     1      24.737  44.138  53.417  1.00  0.00    -0.257 OA
BRANCH   3   5
HETATM    5  C   UNL     1      27.113  44.258  53.629  1.00  0.00     0.160 A 
HETATM    6  C   UNL     1      28.052  43.239  53.736  1.00  0.00     0.018 A 
HETATM    7  C   UNL     1      29.069  43.724  54.617  1.00  0.00     0.009 A 
HETATM    8  C   UNL     1      28.690  45.013  54.966  1.00  0.00     0.087 A 
HETATM    9  C   UNL     1      30.270  43.217  55.150  1.00  0.00     0.015 A 
HETATM   10  O   UNL     1      27.514  45.338  54.373  1.00  0.00    -0.303 OA
HETATM   11  C   UNL     1      29.421  45.845  55.811  1.00  0.00     0.038 A 
HETATM   12  C   UNL     1      30.608  45.321  56.332  1.00  0.00     0.003 A 
HETATM   13  C   UNL     1      31.026  44.028  56.010  1.00  0.00     0.001 A 
BRANCH   6  14
HETATM   14  C   UNL     1      28.017  41.928  53.038  1.00  0.00     0.210 C 
BRANCH  14  15
HETATM   15  O   UNL     1      28.611  42.049  51.748  1.00  0.00    -0.387 OA
BRANCH  15  16
HETATM   16  C   UNL     1      28.053  41.140  50.806  1.00  0.00     0.163 C 
HETATM   17  C   UNL     1      26.548  41.125  50.984  1.00  0.00     0.033 C 
ENDBRANCH  15  16
ENDBRANCH  14  15
ENDBRANCH   6  14
ENDBRANCH   3   5
ENDBRANCH   2   3
ENDBRANCH   1   2
BRANCH   1  18
HETATM   18  C   UNL     1      24.972  46.799  50.860  1.00  0.00     0.242 C 
HETATM   19  N   UNL     1      24.870  47.258  49.562  1.00  0.00    -0.350 N 
HETATM   20  H   UNL     1      24.892  46.609  48.786  1.00  0.00     0.163 HD
HETATM   21  O   UNL     1      25.092  47.547  51.824  1.00  0.00    -0.271 OA
BRANCH  19  22
HETATM   22  C   UNL     1      24.801  48.682  49.273  1.00  0.00     0.225 C 
BRANCH  22  23
HETATM   23  C   UNL     1      23.518  49.177  48.591  1.00  0.00     0.239 C 
HETATM   24  N   UNL     1      22.406  49.169  49.418  1.00  0.00    -0.325 N 
HETATM   25  H   UNL     1      22.427  48.426  50.114  1.00  0.00     0.169 HD
HETATM   26  O   UNL     1      23.570  49.614  47.444  1.00  0.00    -0.271 OA
BRANCH  24  27
HETATM   27  C   UNL     1      21.128  49.710  49.133  1.00  0.00     0.041 C 
HETATM   28  C   UNL     1      19.959  48.979  48.822  1.00  0.00    -0.029 C 
HETATM   29  C   UNL     1      19.973  47.500  48.524  1.00  0.00     0.051 C 
HETATM   30  C   UNL     1      18.719  49.667  48.728  1.00  0.00    -0.054 C 
HETATM   31  C   UNL     1      17.415  48.939  48.518  1.00  0.00     0.049 C 
HETATM   32  C   UNL     1      18.691  51.067  48.779  1.00  0.00     0.007 C 
HETATM   33  C   UNL     1      19.863  51.787  48.952  1.00  0.00     0.003 C 
HETATM   34  C   UNL     1      21.067  51.113  49.139  1.00  0.00     0.030 C 
ENDBRANCH  24  27
ENDBRANCH  22  23
ENDBRANCH  19  22
ENDBRANCH   1  18
TORSDOF 10
ENDMDL
MODEL 3
REMARK VINA RESULT:      -8.6      2.555      4.887
REMARK  10 active torsions:
REMARK  status: ('A' for Active; 'I' for Inactive)
REMARK    1  A    between atoms: C_2  and  O_3 
REMARK    2  A    between atoms: O_3  and  C_4 
REMARK    3  A    between atoms: C_4  and  C_5 
REMARK    4  A    between atoms: C_6  and  C_7 
REMARK    5  A    between atoms: C_7  and  O_8 
REMARK    6  A    between atoms: O_8  and  C_9 
REMARK    7  A    between atoms: C_9  and  C_10 
REMARK       I    between atoms: C_10  and  N_11 
REMARK    8  A    between atoms: N_11  and  C_12 
REMARK    9  A    between atoms: C_12  and  C_13 
REMARK       I    between atoms: C_13  and  N_14 
REMARK   10  A    between atoms: N_14  and  C_15 
ROOT
HETATM    1  C   UNL     1      25.836  47.156  51.854  1.00  0.00     0.281 C 
ENDROOT
BRANCH   1   2
HETATM    2  O   UNL     1      26.737  46.246  52.468  1.00  0.00    -0.307 OA
BRANCH   2   3
HETATM    3  C   UNL     1      26.521  46.052  53.802  1.00  0.00     0.318 C 
HETATM    4  O   UNL     1      25.488  46.380  54.382  1.00  0.00    -0.257 OA
BRANCH   3   5
HETATM    5  C   UNL     1      27.703  45.490  54.418  1.00  0.00     0.160 A 
HETATM    6  C   UNL     1      28.507  44.418  54.047  1.00  0.00     0.018 A 
HETATM    7  C   UNL     1      29.493  44.285  55.074  1.00  0.00     0.009 A 
HETATM    8  C   UNL     1      29.236  45.299  55.986  1.00  0.00     0.087 A 
HETATM    9  C   UNL     1      30.578  43.422  55.328  1.00  0.00     0.015 A 
HETATM   10  O   UNL     1      28.160  46.027  55.594  1.00  0.00    -0.303 OA
HETATM   11  C   UNL     1      29.982  45.526  57.140  1.00  0.00     0.038 A 
HETATM   12  C   UNL     1      31.052  44.657  57.375  1.00  0.00     0.003 A 
HETATM   13  C   UNL     1      31.345  43.620  56.486  1.00  0.00     0.001 A 
BRANCH   6  14
HETATM   14  C   UNL     1      28.382  43.606  52.809  1.00  0.00     0.210 C 
BRANCH  14  15
HETATM   15  O   UNL     1      27.273  42.719  52.921  1.00  0.00    -0.387 OA
BRANCH  15  16
HETATM   16  C   UNL     1      27.567  41.417  52.427  1.00  0.00     0.163 C 
HETATM   17  C   UNL     1      29.040  41.140  52.650  1.00  0.00     0.033 C 
ENDBRANCH  15  16
ENDBRANCH  14  15
ENDBRANCH   6  14
ENDBRANCH   3   5
ENDBRANCH   2   3
ENDBRANCH   1   2
BRANCH   1  18
HETATM   18  C   UNL     1      25.408  46.783  50.430  1.00  0.00     0.242 C 
HETATM   19  N   UNL     1      24.076  46.442  50.305  1.00  0.00    -0.350 N 
HETATM   20  H   UNL     1      23.495  46.334  51.126  1.00  0.00     0.163 HD
HETATM   21  O   UNL     1      26.187  46.788  49.484  1.00  0.00    -0.271 OA
BRANCH  19  22
HETATM   22  C   UNL     1      23.494  46.158  49.003  1.00  0.00     0.225 C 
BRANCH  22  23
HETATM   23  C   UNL     1      22.494  47.192  48.464  1.00  0.00     0.239 C 
HETATM   24  N   UNL     1      22.019  48.066  49.429  1.00  0.00    -0.325 N 
HETATM   25  H   UNL     1      21.958  47.649  50.355  1.00  0.00     0.169 HD
HETATM   26  O   UNL     1      22.259  47.238  47.260  1.00  0.00    -0.271 OA
BRANCH  24  27
HETATM   27  C   UNL     1      21.217  49.215  49.217  1.00  0.00     0.041 C 
HETATM   28  C   UNL     1      19.848  49.352  49.536  1.00  0.00    -0.029 C 
HETATM   29  C   UNL     1      18.982  48.187  49.947  1.00  0.00     0.051 C 
HETATM   30  C   UNL     1      19.235  50.629  49.414  1.00  0.00    -0.054 C 
HETATM   31  C   UNL     1      17.812  50.876  49.849  1.00  0.00     0.049 C 
HETATM   32  C   UNL     1      19.939  51.690  48.829  1.00  0.00     0.007 C 
HETATM   33  C   UNL     1      21.244  51.511  48.395  1.00  0.00     0.003 C 
HETATM   34  C   UNL     1      21.879  50.289  48.599  1.00  0.00     0.030 C 
ENDBRANCH  24  27
ENDBRANCH  22  23
ENDBRANCH  19  22
ENDBRANCH   1  18
TORSDOF 10
ENDMDL
MODEL 4
REMARK VINA RESULT:      -8.4      2.661      9.200
REMARK  10 active torsions:
REMARK  status: ('A' for Active; 'I' for Inactive)
REMARK    1  A    between atoms: C_2  and  O_3 
REMARK    2  A    between atoms: O_3  and  C_4 
REMARK    3  A    between atoms: C_4  and  C_5 
REMARK    4  A    between atoms: C_6  and  C_7 
REMARK    5  A    between atoms: C_7  and  O_8 
REMARK    6  A    between atoms: O_8  and  C_9 
REMARK    7  A    between atoms: C_9  and  C_10 
REMARK       I    between atoms: C_10  and  N_11 
REMARK    8  A    between atoms: N_11  and  C_12 
REMARK    9  A    between atoms: C_12  and  C_13 
REMARK       I    between atoms: C_13  and  N_14 
REMARK   10  A    between atoms: N_14  and  C_15 
ROOT
HETATM    1  C   UNL     1      25.173  46.577  51.693  1.00  0.00     0.281 C 
ENDROOT
BRANCH   1   2
HETATM    2  O   UNL     1      24.495  46.673  50.448  1.00  0.00    -0.307 OA
BRANCH   2   3
HETATM    3  C   UNL     1      24.786  47.799  49.733  1.00  0.00     0.318 C 
HETATM    4  O   UNL     1      25.925  48.234  49.575  1.00  0.00    -0.257 OA
BRANCH   3   5
HETATM    5  C   UNL     1      23.563  48.425  49.278  1.00  0.00     0.160 A 
HETATM    6  C   UNL     1      22.537  47.950  48.471  1.00  0.00     0.018 A 
HETATM    7  C   UNL     1      21.622  49.035  48.306  1.00  0.00     0.009 A 
HETATM    8  C   UNL     1      22.142  50.090  49.044  1.00  0.00     0.087 A 
HETATM    9  C   UNL     1      20.408  49.240  47.620  1.00  0.00     0.015 A 
HETATM   10  O   UNL     1      23.310  49.726  49.631  1.00  0.00    -0.303 OA
HETATM   11  C   UNL     1      21.542  51.342  49.156  1.00  0.00     0.038 A 
HETATM   12  C   UNL     1      20.341  51.525  48.464  1.00  0.00     0.003 A 
HETATM   13  C   UNL     1      19.782  50.493  47.707  1.00  0.00     0.001 A 
BRANCH   6  14
HETATM   14  C   UNL     1      22.407  46.573  47.926  1.00  0.00     0.210 C 
BRANCH  14  15
HETATM   15  O   UNL     1      22.151  46.628  46.526  1.00  0.00    -0.387 OA
BRANCH  15  16
HETATM   16  C   UNL     1      21.673  45.390  46.012  1.00  0.00     0.163 C 
HETATM   17  C   UNL     1      22.583  44.282  46.504  1.00  0.00     0.033 C 
ENDBRANCH  15  16
ENDBRANCH  14  15
ENDBRANCH   6  14
ENDBRANCH   3   5
ENDBRANCH   2   3
ENDBRANCH   1   2
BRANCH   1  18
HETATM   18  C   UNL     1      25.464  45.148  52.163  1.00  0.00     0.242 C 
HETATM   19  N   UNL     1      26.728  44.690  51.851  1.00  0.00    -0.350 N 
HETATM   20  H   UNL     1      27.336  45.233  51.250  1.00  0.00     0.163 HD
HETATM   21  O   UNL     1      24.640  44.470  52.766  1.00  0.00    -0.271 OA
BRANCH  19  22
HETATM   22  C   UNL     1      27.192  43.392  52.313  1.00  0.00     0.225 C 
BRANCH  22  23
HETATM   23  C   UNL     1      27.756  43.339  53.740  1.00  0.00     0.239 C 
HETATM   24  N   UNL     1      29.039  43.850  53.854  1.00  0.00    -0.325 N 
HETATM   25  H   UNL     1      29.603  43.715  53.018  1.00  0.00     0.169 HD
HETATM   26  O   UNL     1      27.041  42.953  54.661  1.00  0.00    -0.271 OA
BRANCH  24  27
HETATM   27  C   UNL     1      29.761  44.084  55.051  1.00  0.00     0.041 C 
HETATM   28  C   UNL     1      29.608  45.187  55.920  1.00  0.00    -0.029 C 
HETATM   29  C   UNL     1      28.795  46.406  55.561  1.00  0.00     0.051 C 
HETATM   30  C   UNL     1      30.292  45.184  57.167  1.00  0.00    -0.054 C 
HETATM   31  C   UNL     1      30.084  46.269  58.194  1.00  0.00     0.049 C 
HETATM   32  C   UNL     1      31.227  44.180  57.449  1.00  0.00     0.007 C 
HETATM   33  C   UNL     1      31.470  43.170  56.531  1.00  0.00     0.003 C 
HETATM   34  C   UNL     1      30.735  43.116  55.350  1.00  0.00     0.030 C 
ENDBRANCH  24  27
ENDBRANCH  22  23
ENDBRANCH  19  22
ENDBRANCH   1  18
TORSDOF 10
ENDMDL
MODEL 5
REMARK VINA RESULT:      -8.4      2.324      4.423
REMARK  10 active torsions:
REMARK  status: ('A' for Active; 'I' for Inactive)
REMARK    1  A    between atoms: C_2  and  O_3 
REMARK    2  A    between atoms: O_3  and  C_4 
REMARK    3  A    between atoms: C_4  and  C_5 
REMARK    4  A    between atoms: C_6  and  C_7 
REMARK    5  A    between atoms: C_7  and  O_8 
REMARK    6  A    between atoms: O_8  and  C_9 
REMARK    7  A    between atoms: C_9  and  C_10 
REMARK       I    between atoms: C_10  and  N_11 
REMARK    8  A    between atoms: N_11  and  C_12 
REMARK    9  A    between atoms: C_12  and  C_13 
REMARK       I    between atoms: C_13  and  N_14 
REMARK   10  A    between atoms: N_14  and  C_15 
ROOT
HETATM    1  C   UNL     1      24.276  43.056  50.697  1.00  0.00     0.281 C 
ENDROOT
BRANCH   1   2
HETATM    2  O   UNL     1      25.489  43.573  50.166  1.00  0.00    -0.307 OA
BRANCH   2   3
HETATM    3  C   UNL     1      25.908  44.735  50.748  1.00  0.00     0.318 C 
HETATM    4  O   UNL     1      25.585  45.853  50.352  1.00  0.00    -0.257 OA
BRANCH   3   5
HETATM    5  C   UNL     1      26.834  44.444  51.821  1.00  0.00     0.160 A 
HETATM    6  C   UNL     1      26.842  44.836  53.154  1.00  0.00     0.018 A 
HETATM    7  C   UNL     1      28.041  44.302  53.720  1.00  0.00     0.009 A 
HETATM    8  C   UNL     1      28.668  43.601  52.699  1.00  0.00     0.087 A 
HETATM    9  C   UNL     1      28.661  44.328  54.985  1.00  0.00     0.015 A 
HETATM   10  O   UNL     1      27.944  43.684  51.554  1.00  0.00    -0.303 OA
HETATM   11  C   UNL     1      29.873  42.916  52.840  1.00  0.00     0.038 A 
HETATM   12  C   UNL     1      30.472  42.957  54.102  1.00  0.00     0.003 A 
HETATM   13  C   UNL     1      29.879  43.653  55.158  1.00  0.00     0.001 A 
BRANCH   6  14
HETATM   14  C   UNL     1      25.790  45.620  53.851  1.00  0.00     0.210 C 
BRANCH  14  15
HETATM   15  O   UNL     1      25.964  47.009  53.585  1.00  0.00    -0.387 OA
BRANCH  15  16
HETATM   16  C   UNL     1      26.314  47.745  54.751  1.00  0.00     0.163 C 
HETATM   17  C   UNL     1      27.818  47.933  54.768  1.00  0.00     0.033 C 
ENDBRANCH  15  16
ENDBRANCH  14  15
ENDBRANCH   6  14
ENDBRANCH   3   5
ENDBRANCH   2   3
ENDBRANCH   1   2
BRANCH   1  18
HETATM   18  C   UNL     1      23.044  43.254  49.808  1.00  0.00     0.242 C 
HETATM   19  N   UNL     1      22.704  44.574  49.589  1.00  0.00    -0.350 N 
HETATM   20  H   UNL     1      23.174  45.315  50.093  1.00  0.00     0.163 HD
HETATM   21  O   UNL     1      22.415  42.316  49.332  1.00  0.00    -0.271 OA
BRANCH  19  22
HETATM   22  C   UNL     1      21.619  44.930  48.687  1.00  0.00     0.225 C 
BRANCH  22  23
HETATM   23  C   UNL     1      21.664  46.346  48.095  1.00  0.00     0.239 C 
HETATM   24  N   UNL     1      21.369  47.345  49.010  1.00  0.00    -0.325 N 
HETATM   25  H   UNL     1      20.709  47.052  49.727  1.00  0.00     0.169 HD
HETATM   26  O   UNL     1      22.028  46.506  46.933  1.00  0.00    -0.271 OA
BRANCH  24  27
HETATM   27  C   UNL     1      21.481  48.743  48.811  1.00  0.00     0.041 C 
HETATM   28  C   UNL     1      20.416  49.649  48.608  1.00  0.00    -0.029 C 
HETATM   29  C   UNL     1      18.999  49.202  48.346  1.00  0.00     0.051 C 
HETATM   30  C   UNL     1      20.690  51.044  48.592  1.00  0.00    -0.054 C 
HETATM   31  C   UNL     1      19.590  52.072  48.501  1.00  0.00     0.049 C 
HETATM   32  C   UNL     1      22.016  51.497  48.612  1.00  0.00     0.007 C 
HETATM   33  C   UNL     1      23.065  50.593  48.677  1.00  0.00     0.003 C 
HETATM   34  C   UNL     1      22.799  49.231  48.787  1.00  0.00     0.030 C 
ENDBRANCH  24  27
ENDBRANCH  22  23
ENDBRANCH  19  22
ENDBRANCH   1  18
TORSDOF 10
ENDMDL
MODEL 6
REMARK VINA RESULT:      -8.3      2.731      4.356
REMARK  10 active torsions:
REMARK  status: ('A' for Active; 'I' for Inactive)
REMARK    1  A    between atoms: C_2  and  O_3 
REMARK    2  A    between atoms: O_3  and  C_4 
REMARK    3  A    between atoms: C_4  and  C_5 
REMARK    4  A    between atoms: C_6  and  C_7 
REMARK    5  A    between atoms: C_7  and  O_8 
REMARK    6  A    between atoms: O_8  and  C_9 
REMARK    7  A    between atoms: C_9  and  C_10 
REMARK       I    between atoms: C_10  and  N_11 
REMARK    8  A    between atoms: N_11  and  C_12 
REMARK    9  A    between atoms: C_12  and  C_13 
REMARK       I    between atoms: C_13  and  N_14 
REMARK   10  A    between atoms: N_14  and  C_15 
ROOT
HETATM    1  C   UNL     1      23.334  43.784  50.189  1.00  0.00     0.281 C 
ENDROOT
BRANCH   1   2
HETATM    2  O   UNL     1      23.903  43.636  51.482  1.00  0.00    -0.307 OA
BRANCH   2   3
HETATM    3  C   UNL     1      25.253  43.433  51.484  1.00  0.00     0.318 C 
HETATM    4  O   UNL     1      25.811  42.547  50.841  1.00  0.00    -0.257 OA
BRANCH   3   5
HETATM    5  C   UNL     1      25.890  44.350  52.405  1.00  0.00     0.160 A 
HETATM    6  C   UNL     1      27.013  44.205  53.210  1.00  0.00     0.018 A 
HETATM    7  C   UNL     1      27.128  45.418  53.957  1.00  0.00     0.009 A 
HETATM    8  C   UNL     1      26.082  46.227  53.537  1.00  0.00     0.087 A 
HETATM    9  C   UNL     1      28.006  45.923  54.936  1.00  0.00     0.015 A 
HETATM   10  O   UNL     1      25.335  45.588  52.602  1.00  0.00    -0.303 OA
HETATM   11  C   UNL     1      25.839  47.512  54.018  1.00  0.00     0.038 A 
HETATM   12  C   UNL     1      26.720  47.993  54.991  1.00  0.00     0.003 A 
HETATM   13  C   UNL     1      27.786  47.212  55.446  1.00  0.00     0.001 A 
BRANCH   6  14
HETATM   14  C   UNL     1      27.927  43.034  53.250  1.00  0.00     0.210 C 
BRANCH  14  15
HETATM   15  O   UNL     1      29.119  43.324  52.524  1.00  0.00    -0.387 OA
BRANCH  15  16
HETATM   16  C   UNL     1      30.275  42.756  53.128  1.00  0.00     0.163 C 
HETATM   17  C   UNL     1      30.298  43.155  54.590  1.00  0.00     0.033 C 
ENDBRANCH  15  16
ENDBRANCH  14  15
ENDBRANCH   6  14
ENDBRANCH   3   5
ENDBRANCH   2   3
ENDBRANCH   1   2
BRANCH   1  18
HETATM   18  C   UNL     1      23.767  45.044  49.431  1.00  0.00     0.242 C 
HETATM   19  N   UNL     1      23.530  46.225  50.104  1.00  0.00    -0.350 N 
HETATM   20  H   UNL     1      22.997  46.227  50.965  1.00  0.00     0.163 HD
HETATM   21  O   UNL     1      24.282  45.001  48.319  1.00  0.00    -0.271 OA
BRANCH  19  22
HETATM   22  C   UNL     1      23.974  47.500  49.562  1.00  0.00     0.225 C 
BRANCH  22  23
HETATM   23  C   UNL     1      22.926  48.314  48.790  1.00  0.00     0.239 C 
HETATM   24  N   UNL     1      21.807  48.640  49.540  1.00  0.00    -0.325 N 
HETATM   25  H   UNL     1      21.576  47.942  50.244  1.00  0.00     0.169 HD
HETATM   26  O   UNL     1      23.169  48.686  47.645  1.00  0.00    -0.271 OA
BRANCH  24  27
HETATM   27  C   UNL     1      20.752  49.508  49.164  1.00  0.00     0.041 C 
HETATM   28  C   UNL     1      19.408  49.140  48.929  1.00  0.00    -0.029 C 
HETATM   29  C   UNL     1      18.958  47.704  48.825  1.00  0.00     0.051 C 
HETATM   30  C   UNL     1      18.439  50.160  48.723  1.00  0.00    -0.054 C 
HETATM   31  C   UNL     1      16.970  49.848  48.585  1.00  0.00     0.049 C 
HETATM   32  C   UNL     1      18.845  51.494  48.591  1.00  0.00     0.007 C 
HETATM   33  C   UNL     1      20.186  51.832  48.691  1.00  0.00     0.003 C 
HETATM   34  C   UNL     1      21.128  50.850  48.986  1.00  0.00     0.030 C 
ENDBRANCH  24  27
ENDBRANCH  22  23
ENDBRANCH  19  22
ENDBRANCH   1  18
TORSDOF 10
ENDMDL
MODEL 7
REMARK VINA RESULT:      -8.1      2.755      8.584
REMARK  10 active torsions:
REMARK  status: ('A' for Active; 'I' for Inactive)
REMARK    1  A    between atoms: C_2  and  O_3 
REMARK    2  A    between atoms: O_3  and  C_4 
REMARK    3  A    between atoms: C_4  and  C_5 
REMARK    4  A    between atoms: C_6  and  C_7 
REMARK    5  A    between atoms: C_7  and  O_8 
REMARK    6  A    between atoms: O_8  and  C_9 
REMARK    7  A    between atoms: C_9  and  C_10 
REMARK       I    between atoms: C_10  and  N_11 
REMARK    8  A    between atoms: N_11  and  C_12 
REMARK    9  A    between atoms: C_12  and  C_13 
REMARK       I    between atoms: C_13  and  N_14 
REMARK   10  A    between atoms: N_14  and  C_15 
ROOT
HETATM    1  C   UNL     1      22.713  44.523  48.222  1.00  0.00     0.281 C 
ENDROOT
BRANCH   1   2
HETATM    2  O   UNL     1      21.953  45.718  48.332  1.00  0.00    -0.307 OA
BRANCH   2   3
HETATM    3  C   UNL     1      21.857  46.433  47.173  1.00  0.00     0.318 C 
HETATM    4  O   UNL     1      22.167  45.991  46.069  1.00  0.00    -0.257 OA
BRANCH   3   5
HETATM    5  C   UNL     1      21.425  47.784  47.461  1.00  0.00     0.160 A 
HETATM    6  C   UNL     1      22.091  48.853  48.049  1.00  0.00     0.018 A 
HETATM    7  C   UNL     1      21.141  49.917  48.135  1.00  0.00     0.009 A 
HETATM    8  C   UNL     1      19.970  49.432  47.571  1.00  0.00     0.087 A 
HETATM    9  C   UNL     1      21.146  51.240  48.621  1.00  0.00     0.015 A 
HETATM   10  O   UNL     1      20.137  48.149  47.163  1.00  0.00    -0.303 OA
HETATM   11  C   UNL     1      18.793  50.167  47.449  1.00  0.00     0.038 A 
HETATM   12  C   UNL     1      18.818  51.475  47.940  1.00  0.00     0.003 A 
HETATM   13  C   UNL     1      19.974  52.004  48.519  1.00  0.00     0.001 A 
BRANCH   6  14
HETATM   14  C   UNL     1      23.517  48.883  48.466  1.00  0.00     0.210 C 
BRANCH  14  15
HETATM   15  O   UNL     1      23.623  48.587  49.856  1.00  0.00    -0.387 OA
BRANCH  15  16
HETATM   16  C   UNL     1      24.472  47.473  50.110  1.00  0.00     0.163 C 
HETATM   17  C   UNL     1      25.903  47.886  49.832  1.00  0.00     0.033 C 
ENDBRANCH  15  16
ENDBRANCH  14  15
ENDBRANCH   6  14
ENDBRANCH   3   5
ENDBRANCH   2   3
ENDBRANCH   1   2
BRANCH   1  18
HETATM   18  C   UNL     1      23.094  43.873  49.557  1.00  0.00     0.242 C 
HETATM   19  N   UNL     1      24.390  43.402  49.614  1.00  0.00    -0.350 N 
HETATM   20  H   UNL     1      24.967  43.388  48.783  1.00  0.00     0.163 HD
HETATM   21  O   UNL     1      22.310  43.783  50.495  1.00  0.00    -0.271 OA
BRANCH  19  22
HETATM   22  C   UNL     1      24.934  42.848  50.844  1.00  0.00     0.225 C 
BRANCH  22  23
HETATM   23  C   UNL     1      25.996  43.695  51.560  1.00  0.00     0.239 C 
HETATM   24  N   UNL     1      26.177  43.356  52.891  1.00  0.00    -0.325 N 
HETATM   25  H   UNL     1      25.330  43.014  53.339  1.00  0.00     0.169 HD
HETATM   26  O   UNL     1      26.651  44.514  50.921  1.00  0.00    -0.271 OA
BRANCH  24  27
HETATM   27  C   UNL     1      27.182  43.841  53.765  1.00  0.00     0.041 C 
HETATM   28  C   UNL     1      28.403  43.200  54.075  1.00  0.00    -0.029 C 
HETATM   29  C   UNL     1      28.703  41.775  53.682  1.00  0.00     0.051 C 
HETATM   30  C   UNL     1      29.375  43.900  54.840  1.00  0.00    -0.054 C 
HETATM   31  C   UNL     1      30.744  43.327  55.108  1.00  0.00     0.049 C 
HETATM   32  C   UNL     1      29.055  45.138  55.413  1.00  0.00     0.007 C 
HETATM   33  C   UNL     1      27.804  45.702  55.213  1.00  0.00     0.003 C 
HETATM   34  C   UNL     1      26.882  45.064  54.388  1.00  0.00     0.030 C 
ENDBRANCH  24  27
ENDBRANCH  22  23
ENDBRANCH  19  22
ENDBRANCH   1  18
TORSDOF 10
ENDMDL
MODEL 8
REMARK VINA RESULT:      -7.9      2.682      8.702
REMARK  10 active torsions:
REMARK  status: ('A' for Active; 'I' for Inactive)
REMARK    1  A    between atoms: C_2  and  O_3 
REMARK    2  A    between atoms: O_3  and  C_4 
REMARK    3  A    between atoms: C_4  and  C_5 
REMARK    4  A    between atoms: C_6  and  C_7 
REMARK    5  A    between atoms: C_7  and  O_8 
REMARK    6  A    between atoms: O_8  and  C_9 
REMARK    7  A    between atoms: C_9  and  C_10 
REMARK       I    between atoms: C_10  and  N_11 
REMARK    8  A    between atoms: N_11  and  C_12 
REMARK    9  A    between atoms: C_12  and  C_13 
REMARK       I    between atoms: C_13  and  N_14 
REMARK   10  A    between atoms: N_14  and  C_15 
ROOT
HETATM    1  C   UNL     1      23.318  43.476  48.624  1.00  0.00     0.281 C 
ENDROOT
BRANCH   1   2
HETATM    2  O   UNL     1      22.889  44.638  47.928  1.00  0.00    -0.307 OA
BRANCH   2   3
HETATM    3  C   UNL     1      21.710  45.160  48.376  1.00  0.00     0.318 C 
HETATM    4  O   UNL     1      20.714  44.484  48.624  1.00  0.00    -0.257 OA
BRANCH   3   5
HETATM    5  C   UNL     1      21.797  46.603  48.428  1.00  0.00     0.160 A 
HETATM    6  C   UNL     1      20.849  47.587  48.174  1.00  0.00     0.018 A 
HETATM    7  C   UNL     1      21.522  48.839  48.319  1.00  0.00     0.009 A 
HETATM    8  C   UNL     1      22.828  48.532  48.676  1.00  0.00     0.087 A 
HETATM    9  C   UNL     1      21.170  50.197  48.195  1.00  0.00     0.015 A 
HETATM   10  O   UNL     1      22.997  47.187  48.744  1.00  0.00    -0.303 OA
HETATM   11  C   UNL     1      23.819  49.479  48.924  1.00  0.00     0.038 A 
HETATM   12  C   UNL     1      23.449  50.821  48.792  1.00  0.00     0.003 A 
HETATM   13  C   UNL     1      22.147  51.176  48.432  1.00  0.00     0.001 A 
BRANCH   6  14
HETATM   14  C   UNL     1      19.414  47.369  47.854  1.00  0.00     0.210 C 
BRANCH  14  15
HETATM   15  O   UNL     1      18.667  47.209  49.058  1.00  0.00    -0.387 OA
BRANCH  15  16
HETATM   16  C   UNL     1      18.187  48.448  49.567  1.00  0.00     0.163 C 
HETATM   17  C   UNL     1      18.627  48.577  51.012  1.00  0.00     0.033 C 
ENDBRANCH  15  16
ENDBRANCH  14  15
ENDBRANCH   6  14
ENDBRANCH   3   5
ENDBRANCH   2   3
ENDBRANCH   1   2
BRANCH   1  18
HETATM   18  C   UNL     1      23.579  43.677  50.121  1.00  0.00     0.242 C 
HETATM   19  N   UNL     1      24.353  44.779  50.423  1.00  0.00    -0.350 N 
HETATM   20  H   UNL     1      24.799  45.310  49.685  1.00  0.00     0.163 HD
HETATM   21  O   UNL     1      23.134  42.920  50.976  1.00  0.00    -0.271 OA
BRANCH  19  22
HETATM   22  C   UNL     1      24.607  45.163  51.802  1.00  0.00     0.225 C 
BRANCH  22  23
HETATM   23  C   UNL     1      26.081  45.266  52.220  1.00  0.00     0.239 C 
HETATM   24  N   UNL     1      26.515  44.210  53.005  1.00  0.00    -0.325 N 
HETATM   25  H   UNL     1      25.785  43.822  53.598  1.00  0.00     0.169 HD
HETATM   26  O   UNL     1      26.773  46.181  51.781  1.00  0.00    -0.271 OA
BRANCH  24  27
HETATM   27  C   UNL     1      27.846  43.941  53.411  1.00  0.00     0.041 C 
HETATM   28  C   UNL     1      28.512  44.500  54.525  1.00  0.00    -0.029 C 
HETATM   29  C   UNL     1      27.954  45.656  55.317  1.00  0.00     0.051 C 
HETATM   30  C   UNL     1      29.790  43.996  54.890  1.00  0.00    -0.054 C 
HETATM   31  C   UNL     1      30.505  44.459  56.134  1.00  0.00     0.049 C 
HETATM   32  C   UNL     1      30.443  43.077  54.057  1.00  0.00     0.007 C 
HETATM   33  C   UNL     1      29.838  42.633  52.892  1.00  0.00     0.003 C 
HETATM   34  C   UNL     1      28.547  43.052  52.579  1.00  0.00     0.030 C 
ENDBRANCH  24  27
ENDBRANCH  22  23
ENDBRANCH  19  22
ENDBRANCH   1  18
TORSDOF 10
ENDMDL
MODEL 9
REMARK VINA RESULT:      -7.9      1.959      4.053
REMARK  10 active torsions:
REMARK  status: ('A' for Active; 'I' for Inactive)
REMARK    1  A    between atoms: C_2  and  O_3 
REMARK    2  A    between atoms: O_3  and  C_4 
REMARK    3  A    between atoms: C_4  and  C_5 
REMARK    4  A    between atoms: C_6  and  C_7 
REMARK    5  A    between atoms: C_7  and  O_8 
REMARK    6  A    between atoms: O_8  and  C_9 
REMARK    7  A    between atoms: C_9  and  C_10 
REMARK       I    between atoms: C_10  and  N_11 
REMARK    8  A    between atoms: N_11  and  C_12 
REMARK    9  A    between atoms: C_12  and  C_13 
REMARK       I    between atoms: C_13  and  N_14 
REMARK   10  A    between atoms: N_14  and  C_15 
ROOT
HETATM    1  C   UNL     1      25.704  42.264  48.821  1.00  0.00     0.281 C 
ENDROOT
BRANCH   1   2
HETATM    2  O   UNL     1      26.555  42.723  49.862  1.00  0.00    -0.307 OA
BRANCH   2   3
HETATM    3  C   UNL     1      26.652  41.875  50.927  1.00  0.00     0.318 C 
HETATM    4  O   UNL     1      26.191  40.736  50.938  1.00  0.00    -0.257 OA
BRANCH   3   5
HETATM    5  C   UNL     1      27.294  42.546  52.037  1.00  0.00     0.160 A 
HETATM    6  C   UNL     1      26.849  43.566  52.870  1.00  0.00     0.018 A 
HETATM    7  C   UNL     1      27.939  43.872  53.744  1.00  0.00     0.009 A 
HETATM    8  C   UNL     1      28.962  43.000  53.399  1.00  0.00     0.087 A 
HETATM    9  C   UNL     1      28.168  44.784  54.793  1.00  0.00     0.015 A 
HETATM   10  O   UNL     1      28.577  42.201  52.372  1.00  0.00    -0.303 OA
HETATM   11  C   UNL     1      30.208  42.963  54.022  1.00  0.00     0.038 A 
HETATM   12  C   UNL     1      30.415  43.879  55.058  1.00  0.00     0.003 A 
HETATM   13  C   UNL     1      29.414  44.777  55.437  1.00  0.00     0.001 A 
BRANCH   6  14
HETATM   14  C   UNL     1      25.496  44.181  52.870  1.00  0.00     0.210 C 
BRANCH  14  15
HETATM   15  O   UNL     1      25.308  44.939  51.678  1.00  0.00    -0.387 OA
BRANCH  15  16
HETATM   16  C   UNL     1      26.207  46.039  51.586  1.00  0.00     0.163 C 
HETATM   17  C   UNL     1      26.297  46.467  50.135  1.00  0.00     0.033 C 
ENDBRANCH  15  16
ENDBRANCH  14  15
ENDBRANCH   6  14
ENDBRANCH   3   5
ENDBRANCH   2   3
ENDBRANCH   1   2
BRANCH   1  18
HETATM   18  C   UNL     1      24.234  42.673  48.959  1.00  0.00     0.242 C 
HETATM   19  N   UNL     1      24.034  44.022  49.176  1.00  0.00    -0.350 N 
HETATM   20  H   UNL     1      24.820  44.634  49.352  1.00  0.00     0.163 HD
HETATM   21  O   UNL     1      23.313  41.867  48.882  1.00  0.00    -0.271 OA
BRANCH  19  22
HETATM   22  C   UNL     1      22.693  44.583  49.231  1.00  0.00     0.225 C 
BRANCH  22  23
HETATM   23  C   UNL     1      22.486  45.921  48.507  1.00  0.00     0.239 C 
HETATM   24  N   UNL     1      22.590  47.027  49.335  1.00  0.00    -0.325 N 
HETATM   25  H   UNL     1      22.284  46.846  50.289  1.00  0.00     0.169 HD
HETATM   26  O   UNL     1      22.340  45.935  47.287  1.00  0.00    -0.271 OA
BRANCH  24  27
HETATM   27  C   UNL     1      22.606  48.389  48.942  1.00  0.00     0.041 C 
HETATM   28  C   UNL     1      21.485  49.242  48.829  1.00  0.00    -0.029 C 
HETATM   29  C   UNL     1      20.064  48.740  48.898  1.00  0.00     0.051 C 
HETATM   30  C   UNL     1      21.694  50.626  48.584  1.00  0.00    -0.054 C 
HETATM   31  C   UNL     1      20.555  51.615  48.571  1.00  0.00     0.049 C 
HETATM   32  C   UNL     1      22.981  51.100  48.296  1.00  0.00     0.007 C 
HETATM   33  C   UNL     1      24.060  50.230  48.276  1.00  0.00     0.003 C 
HETATM   34  C   UNL     1      23.875  48.890  48.608  1.00  0.00     0.030 C 
ENDBRANCH  24  27
ENDBRANCH  22  23
ENDBRANCH  19  22
ENDBRANCH   1  18
TORSDOF 10
ENDMDL
MODEL 10
REMARK VINA RESULT:      -7.9      3.160      5.496
REMARK  10 active torsions:
REMARK  status: ('A' for Active; 'I' for Inactive)
REMARK    1  A    between atoms: C_2  and  O_3 
REMARK    2  A    between atoms: O_3  and  C_4 
REMARK    3  A    between atoms: C_4  and  C_5 
REMARK    4  A    between atoms: C_6  and  C_7 
REMARK    5  A    between atoms: C_7  and  O_8 
REMARK    6  A    between atoms: O_8  and  C_9 
REMARK    7  A    between atoms: C_9  and  C_10 
REMARK       I    between atoms: C_10  and  N_11 
REMARK    8  A    between atoms: N_11  and  C_12 
REMARK    9  A    between atoms: C_12  and  C_13 
REMARK       I    between atoms: C_13  and  N_14 
REMARK   10  A    between atoms: N_14  and  C_15 
ROOT
HETATM    1  C   UNL     1      26.455  46.879  49.762  1.00  0.00     0.281 C 
ENDROOT
BRANCH   1   2
HETATM    2  O   UNL     1      26.646  45.514  49.417  1.00  0.00    -0.307 OA
BRANCH   2   3
HETATM    3  C   UNL     1      26.039  44.630  50.262  1.00  0.00     0.318 C 
HETATM    4  O   UNL     1      24.914  44.171  50.079  1.00  0.00    -0.257 OA
BRANCH   3   5
HETATM    5  C   UNL     1      26.879  44.393  51.416  1.00  0.00     0.160 A 
HETATM    6  C   UNL     1      26.747  44.792  52.741  1.00  0.00     0.018 A 
HETATM    7  C   UNL     1      27.916  44.323  53.418  1.00  0.00     0.009 A 
HETATM    8  C   UNL     1      28.666  43.650  52.464  1.00  0.00     0.087 A 
HETATM    9  C   UNL     1      28.417  44.388  54.733  1.00  0.00     0.015 A 
HETATM   10  O   UNL     1      28.045  43.689  51.258  1.00  0.00    -0.303 OA
HETATM   11  C   UNL     1      29.887  43.028  52.718  1.00  0.00     0.038 A 
HETATM   12  C   UNL     1      30.367  43.107  54.029  1.00  0.00     0.003 A 
HETATM   13  C   UNL     1      29.647  43.777  55.021  1.00  0.00     0.001 A 
BRANCH   6  14
HETATM   14  C   UNL     1      25.598  45.525  53.333  1.00  0.00     0.210 C 
BRANCH  14  15
HETATM   15  O   UNL     1      26.023  46.239  54.491  1.00  0.00    -0.387 OA
BRANCH  15  16
HETATM   16  C   UNL     1      25.986  47.649  54.304  1.00  0.00     0.163 C 
HETATM   17  C   UNL     1      26.640  48.310  55.501  1.00  0.00     0.033 C 
ENDBRANCH  15  16
ENDBRANCH  14  15
ENDBRANCH   6  14
ENDBRANCH   3   5
ENDBRANCH   2   3
ENDBRANCH   1   2
BRANCH   1  18
HETATM   18  C   UNL     1      24.999  47.287  50.010  1.00  0.00     0.242 C 
HETATM   19  N   UNL     1      24.137  46.989  48.973  1.00  0.00    -0.350 N 
HETATM   20  H   UNL     1      24.497  46.648  48.091  1.00  0.00     0.163 HD
HETATM   21  O   UNL     1      24.633  47.832  51.045  1.00  0.00    -0.271 OA
BRANCH  19  22
HETATM   22  C   UNL     1      22.707  47.222  49.095  1.00  0.00     0.225 C 
BRANCH  22  23
HETATM   23  C   UNL     1      22.144  48.418  48.315  1.00  0.00     0.239 C 
HETATM   24  N   UNL     1      20.829  48.722  48.628  1.00  0.00    -0.325 N 
HETATM   25  H   UNL     1      20.278  47.907  48.889  1.00  0.00     0.169 HD
HETATM   26  O   UNL     1      22.881  49.057  47.568  1.00  0.00    -0.271 OA
BRANCH  24  27
HETATM   27  C   UNL     1      20.089  49.853  48.200  1.00  0.00     0.041 C 
HETATM   28  C   UNL     1      19.145  49.888  47.150  1.00  0.00    -0.029 C 
HETATM   29  C   UNL     1      18.963  48.752  46.174  1.00  0.00     0.051 C 
HETATM   30  C   UNL     1      18.368  51.063  46.959  1.00  0.00    -0.054 C 
HETATM   31  C   UNL     1      17.262  51.131  45.937  1.00  0.00     0.049 C 
HETATM   32  C   UNL     1      18.655  52.219  47.697  1.00  0.00     0.007 C 
HETATM   33  C   UNL     1      19.675  52.216  48.637  1.00  0.00     0.003 C 
HETATM   34  C   UNL     1      20.376  51.040  48.893  1.00  0.00     0.030 C 
ENDBRANCH  24  27
ENDBRANCH  22  23
ENDBRANCH  19  22
ENDBRANCH   1  18
TORSDOF 10
ENDMDL
