MODEL 1
REMARK VINA RESULT:      -7.6      0.000      0.000
REMARK  6 active torsions:
REMARK  status: ('A' for Active; 'I' for Inactive)
REMARK    1  A    between atoms: C_2  and  O_3 
REMARK    2  A    between atoms: O_3  and  C_4 
REMARK    3  A    between atoms: C_4  and  C_5 
REMARK    4  A    between atoms: C_6  and  O_7 
REMARK    5  A    between atoms: C_12  and  O_13 
REMARK    6  A    between atoms: C_17  and  C_18 
ROOT
HETATM    1  C   UNL     1      25.118  44.921  51.160  1.00  0.00     0.133 C 
HETATM    2  C   UNL     1      24.066  44.901  50.009  1.00  0.00     0.073 C 
HETATM    3  C   UNL     1      23.753  46.302  49.463  1.00  0.00     0.047 C 
HETATM    4  C   UNL     1      24.447  43.961  48.827  1.00  0.00     0.097 C 
HETATM    5  C   UNL     1      25.033  42.700  49.347  1.00  0.00     0.042 A 
HETATM    6  C   UNL     1      25.528  42.468  50.614  1.00  0.00     0.030 A 
HETATM    7  C   UNL     1      25.854  41.101  50.582  1.00  0.00     0.190 A 
HETATM    8  N   UNL     1      25.649  40.529  49.401  1.00  0.00    -0.149 NA
HETATM    9  N   UNL     1      25.130  41.524  48.662  1.00  0.00    -0.279 N 
HETATM   10  H   UNL     1      24.848  41.318  47.708  1.00  0.00     0.189 HD
HETATM   11  C   UNL     1      25.512  43.507  51.687  1.00  0.00     0.074 C 
ENDROOT
BRANCH  11  12
HETATM   12  C   UNL     1      26.825  43.455  52.459  1.00  0.00    -0.048 A 
HETATM   13  C   UNL     1      28.075  43.235  51.848  1.00  0.00     0.009 A 
HETATM   14  C   UNL     1      29.255  43.242  52.596  1.00  0.00     0.024 A 
HETATM   15  C   UNL     1      29.205  43.486  53.963  1.00  0.00     0.034 A 
HETATM   16 CL   UNL     1      30.658  43.506  54.883  1.00  0.00    -0.084 Cl
HETATM   17  C   UNL     1      27.984  43.719  54.590  1.00  0.00     0.024 A 
HETATM   18  C   UNL     1      26.802  43.705  53.842  1.00  0.00     0.009 A 
ENDBRANCH  11  12
BRANCH   1  19
HETATM   19  C   UNL     1      26.309  45.799  50.833  1.00  0.00     0.267 C 
HETATM   20  O   UNL     1      27.059  45.566  49.891  1.00  0.00    -0.265 OA
BRANCH  19  21
HETATM   21  O   UNL     1      26.457  46.828  51.703  1.00  0.00    -0.321 OA
BRANCH  21  22
HETATM   22  C   UNL     1      25.453  46.926  52.726  1.00  0.00     0.174 C 
HETATM   23  C   UNL     1      26.073  47.366  54.039  1.00  0.00     0.034 C 
ENDBRANCH  21  22
ENDBRANCH  19  21
ENDBRANCH   1  19
BRANCH   2  24
HETATM   24  O   UNL     1      22.827  44.403  50.564  1.00  0.00    -0.389 OA
HETATM   25  H   UNL     1      23.026  43.668  51.169  1.00  0.00     0.210 HD
ENDBRANCH   2  24
BRANCH   7  26
HETATM   26  O   UNL     1      26.333  40.310  51.545  1.00  0.00    -0.343 OA
HETATM   27  H   UNL     1      26.352  39.394  51.234  1.00  0.00     0.219 HD
ENDBRANCH   7  26
TORSDOF 6
ENDMDL
MODEL 2
REMARK VINA RESULT:      -7.5      2.842      4.902
REMARK  6 active torsions:
REMARK  status: ('A' for Active; 'I' for Inactive)
REMARK    1  A    between atoms: C_2  and  O_3 
REMARK    2  A    between atoms: O_3  and  C_4 
REMARK    3  A    between atoms: C_4  and  C_5 
REMARK    4  A    between atoms: C_6  and  O_7 
REMARK    5  A    between atoms: C_12  and  O_13 
REMARK    6  A    between atoms: C_17  and  C_18 
ROOT
HETATM    1  C   UNL     1      28.404  43.950  52.692  1.00  0.00     0.133 C 
HETATM    2  C   UNL     1      29.228  42.750  53.252  1.00  0.00     0.073 C 
HETATM    3  C   UNL     1      29.578  42.910  54.739  1.00  0.00     0.047 C 
HETATM    4  C   UNL     1      28.552  41.365  53.027  1.00  0.00     0.097 C 
HETATM    5  C   UNL     1      27.944  41.308  51.674  1.00  0.00     0.042 A 
HETATM    6  C   UNL     1      27.660  42.369  50.840  1.00  0.00     0.030 A 
HETATM    7  C   UNL     1      27.199  41.740  49.671  1.00  0.00     0.190 A 
HETATM    8  N   UNL     1      27.134  40.417  49.766  1.00  0.00    -0.149 NA
HETATM    9  N   UNL     1      27.610  40.171  50.998  1.00  0.00    -0.279 N 
HETATM   10  H   UNL     1      27.697  39.204  51.296  1.00  0.00     0.189 HD
HETATM   11  C   UNL     1      27.970  43.785  51.203  1.00  0.00     0.074 C 
ENDROOT
BRANCH  11  12
HETATM   12  C   UNL     1      26.815  44.682  50.771  1.00  0.00    -0.048 A 
HETATM   13  C   UNL     1      25.464  44.385  51.036  1.00  0.00     0.009 A 
HETATM   14  C   UNL     1      24.446  45.264  50.657  1.00  0.00     0.024 A 
HETATM   15  C   UNL     1      24.764  46.458  50.022  1.00  0.00     0.034 A 
HETATM   16 CL   UNL     1      23.513  47.546  49.565  1.00  0.00    -0.084 Cl
HETATM   17  C   UNL     1      26.093  46.782  49.761  1.00  0.00     0.024 A 
HETATM   18  C   UNL     1      27.112  45.899  50.134  1.00  0.00     0.009 A 
ENDBRANCH  11  12
BRANCH   1  19
HETATM   19  C   UNL     1      27.268  44.344  53.615  1.00  0.00     0.267 C 
HETATM   20  O   UNL     1      26.376  43.564  53.931  1.00  0.00    -0.265 OA
BRANCH  19  21
HETATM   21  O   UNL     1      27.340  45.638  54.012  1.00  0.00    -0.321 OA
BRANCH  21  22
HETATM   22  C   UNL     1      26.093  46.245  54.384  1.00  0.00     0.174 C 
HETATM   23  C   UNL     1      25.766  47.400  53.455  1.00  0.00     0.034 C 
ENDBRANCH  21  22
ENDBRANCH  19  21
ENDBRANCH   1  19
BRANCH   2  24
HETATM   24  O   UNL     1      30.490  42.726  52.546  1.00  0.00    -0.389 OA
HETATM   25  H   UNL     1      31.014  43.501  52.812  1.00  0.00     0.210 HD
ENDBRANCH   2  24
BRANCH   7  26
HETATM   26  O   UNL     1      26.821  42.267  48.504  1.00  0.00    -0.343 OA
HETATM   27  H   UNL     1      26.010  42.782  48.627  1.00  0.00     0.219 HD
ENDBRANCH   7  26
TORSDOF 6
ENDMDL
MODEL 3
REMARK VINA RESULT:      -7.4     12.203     13.242
REMARK  6 active torsions:
REMARK  status: ('A' for Active; 'I' for Inactive)
REMARK    1  A    between atoms: C_2  and  O_3 
REMARK    2  A    between atoms: O_3  and  C_4 
REMARK    3  A    between atoms: C_4  and  C_5 
REMARK    4  A    between atoms: C_6  and  O_7 
REMARK    5  A    between atoms: C_12  and  O_13 
REMARK    6  A    between atoms: C_17  and  C_18 
ROOT
HETATM    1  C   UNL     1      29.910  51.100  41.984  1.00  0.00     0.133 C 
HETATM    2  C   UNL     1      28.729  50.476  41.178  1.00  0.00     0.073 C 
HETATM    3  C   UNL     1      27.710  51.525  40.706  1.00  0.00     0.047 C 
HETATM    4  C   UNL     1      29.185  49.616  39.961  1.00  0.00     0.097 C 
HETATM    5  C   UNL     1      30.372  48.804  40.328  1.00  0.00     0.042 A 
HETATM    6  C   UNL     1      31.209  48.987  41.409  1.00  0.00     0.030 A 
HETATM    7  C   UNL     1      32.084  47.890  41.323  1.00  0.00     0.190 A 
HETATM    8  N   UNL     1      31.871  47.118  40.264  1.00  0.00    -0.149 NA
HETATM    9  N   UNL     1      30.806  47.687  39.675  1.00  0.00    -0.279 N 
HETATM   10  H   UNL     1      30.421  47.244  38.846  1.00  0.00     0.189 HD
HETATM   11  C   UNL     1      31.000  50.071  42.415  1.00  0.00     0.074 C 
ENDROOT
BRANCH  11  12
HETATM   12  C   UNL     1      32.346  50.684  42.785  1.00  0.00    -0.048 A 
HETATM   13  C   UNL     1      33.468  50.658  41.935  1.00  0.00     0.009 A 
HETATM   14  C   UNL     1      34.667  51.274  42.304  1.00  0.00     0.024 A 
HETATM   15  C   UNL     1      34.756  51.938  43.522  1.00  0.00     0.034 A 
HETATM   16 CL   UNL     1      36.227  52.707  43.973  1.00  0.00    -0.084 Cl
HETATM   17  C   UNL     1      33.657  51.990  44.375  1.00  0.00     0.024 A 
HETATM   18  C   UNL     1      32.460  51.367  44.009  1.00  0.00     0.009 A 
ENDBRANCH  11  12
BRANCH   1  19
HETATM   19  C   UNL     1      30.474  52.334  41.310  1.00  0.00     0.267 C 
HETATM   20  O   UNL     1      30.699  53.373  41.921  1.00  0.00    -0.265 OA
BRANCH  19  21
HETATM   21  O   UNL     1      30.665  52.163  39.978  1.00  0.00    -0.321 OA
BRANCH  21  22
HETATM   22  C   UNL     1      32.005  52.382  39.509  1.00  0.00     0.174 C 
HETATM   23  C   UNL     1      32.372  51.358  38.452  1.00  0.00     0.034 C 
ENDBRANCH  21  22
ENDBRANCH  19  21
ENDBRANCH   1  19
BRANCH   2  24
HETATM   24  O   UNL     1      28.011  49.597  42.074  1.00  0.00    -0.389 OA
HETATM   25  H   UNL     1      28.379  49.693  42.970  1.00  0.00     0.210 HD
ENDBRANCH   2  24
BRANCH   7  26
HETATM   26  O   UNL     1      33.080  47.521  42.132  1.00  0.00    -0.343 OA
HETATM   27  H   UNL     1      33.924  47.825  41.768  1.00  0.00     0.219 HD
ENDBRANCH   7  26
TORSDOF 6
ENDMDL
MODEL 4
REMARK VINA RESULT:      -6.9      1.711      2.195
REMARK  6 active torsions:
REMARK  status: ('A' for Active; 'I' for Inactive)
REMARK    1  A    between atoms: C_2  and  O_3 
REMARK    2  A    between atoms: O_3  and  C_4 
REMARK    3  A    between atoms: C_4  and  C_5 
REMARK    4  A    between atoms: C_6  and  O_7 
REMARK    5  A    between atoms: C_12  and  O_13 
REMARK    6  A    between atoms: C_17  and  C_18 
ROOT
HETATM    1  C   UNL     1      26.002  43.164  50.857  1.00  0.00     0.133 C 
HETATM    2  C   UNL     1      25.323  42.768  49.510  1.00  0.00     0.073 C 
HETATM    3  C   UNL     1      24.531  43.922  48.880  1.00  0.00     0.047 C 
HETATM    4  C   UNL     1      26.312  42.185  48.456  1.00  0.00     0.097 C 
HETATM    5  C   UNL     1      27.285  41.279  49.116  1.00  0.00     0.042 A 
HETATM    6  C   UNL     1      27.568  41.195  50.464  1.00  0.00     0.030 A 
HETATM    7  C   UNL     1      28.471  40.120  50.532  1.00  0.00     0.190 A 
HETATM    8  N   UNL     1      28.784  39.608  49.347  1.00  0.00    -0.149 NA
HETATM    9  N   UNL     1      28.032  40.323  48.493  1.00  0.00    -0.279 N 
HETATM   10  H   UNL     1      28.069  40.086  47.507  1.00  0.00     0.189 HD
HETATM   11  C   UNL     1      26.875  42.035  51.486  1.00  0.00     0.074 C 
ENDROOT
BRANCH  11  12
HETATM   12  C   UNL     1      27.889  42.513  52.520  1.00  0.00    -0.048 A 
HETATM   13  C   UNL     1      29.260  42.677  52.240  1.00  0.00     0.009 A 
HETATM   14  C   UNL     1      30.140  43.161  53.211  1.00  0.00     0.024 A 
HETATM   15  C   UNL     1      29.661  43.502  54.470  1.00  0.00     0.034 A 
HETATM   16 CL   UNL     1      30.742  44.108  55.663  1.00  0.00    -0.084 Cl
HETATM   17  C   UNL     1      28.308  43.361  54.768  1.00  0.00     0.024 A 
HETATM   18  C   UNL     1      27.428  42.871  53.798  1.00  0.00     0.009 A 
ENDBRANCH  11  12
BRANCH   1  19
HETATM   19  C   UNL     1      26.711  44.500  50.769  1.00  0.00     0.267 C 
HETATM   20  O   UNL     1      27.623  44.711  49.976  1.00  0.00    -0.265 OA
BRANCH  19  21
HETATM   21  O   UNL     1      26.247  45.400  51.671  1.00  0.00    -0.321 OA
BRANCH  21  22
HETATM   22  C   UNL     1      26.192  46.763  51.218  1.00  0.00     0.174 C 
HETATM   23  C   UNL     1      24.805  47.096  50.703  1.00  0.00     0.034 C 
ENDBRANCH  21  22
ENDBRANCH  19  21
ENDBRANCH   1  19
BRANCH   2  24
HETATM   24  O   UNL     1      24.356  41.733  49.802  1.00  0.00    -0.389 OA
HETATM   25  H   UNL     1      24.178  41.730  50.758  1.00  0.00     0.210 HD
ENDBRANCH   2  24
BRANCH   7  26
HETATM   26  O   UNL     1      29.052  39.553  51.592  1.00  0.00    -0.343 OA
HETATM   27  H   UNL     1      28.764  38.632  51.667  1.00  0.00     0.219 HD
ENDBRANCH   7  26
TORSDOF 6
ENDMDL
MODEL 5
REMARK VINA RESULT:      -6.9     11.840     13.801
REMARK  6 active torsions:
REMARK  status: ('A' for Active; 'I' for Inactive)
REMARK    1  A    between atoms: C_2  and  O_3 
REMARK    2  A    between atoms: O_3  and  C_4 
REMARK    3  A    between atoms: C_4  and  C_5 
REMARK    4  A    between atoms: C_6  and  O_7 
REMARK    5  A    between atoms: C_12  and  O_13 
REMARK    6  A    between atoms: C_17  and  C_18 
ROOT
HETATM    1  C   UNL     1      29.814  51.588  39.872  1.00  0.00     0.133 C 
HETATM    2  C   UNL     1      30.346  52.989  40.303  1.00  0.00     0.073 C 
HETATM    3  C   UNL     1      29.484  54.143  39.769  1.00  0.00     0.047 C 
HETATM    4  C   UNL     1      30.521  53.147  41.843  1.00  0.00     0.097 C 
HETATM    5  C   UNL     1      31.091  51.904  42.421  1.00  0.00     0.042 A 
HETATM    6  C   UNL     1      31.142  50.656  41.834  1.00  0.00     0.030 A 
HETATM    7  C   UNL     1      31.865  49.895  42.769  1.00  0.00     0.190 A 
HETATM    8  N   UNL     1      32.190  50.566  43.869  1.00  0.00    -0.149 NA
HETATM    9  N   UNL     1      31.720  51.801  43.628  1.00  0.00    -0.279 N 
HETATM   10  H   UNL     1      31.884  52.522  44.323  1.00  0.00     0.189 HD
HETATM   11  C   UNL     1      30.625  50.391  40.458  1.00  0.00     0.074 C 
ENDROOT
BRANCH  11  12
HETATM   12  C   UNL     1      29.893  49.054  40.442  1.00  0.00    -0.048 A 
HETATM   13  C   UNL     1      28.978  48.661  41.438  1.00  0.00     0.009 A 
HETATM   14  C   UNL     1      28.299  47.443  41.353  1.00  0.00     0.024 A 
HETATM   15  C   UNL     1      28.513  46.607  40.263  1.00  0.00     0.034 A 
HETATM   16 CL   UNL     1      27.670  45.112  40.151  1.00  0.00    -0.084 Cl
HETATM   17  C   UNL     1      29.403  46.978  39.259  1.00  0.00     0.024 A 
HETATM   18  C   UNL     1      30.087  48.194  39.347  1.00  0.00     0.009 A 
ENDBRANCH  11  12
BRANCH   1  19
HETATM   19  C   UNL     1      28.317  51.458  40.066  1.00  0.00     0.267 C 
HETATM   20  O   UNL     1      27.783  51.586  41.162  1.00  0.00    -0.265 OA
BRANCH  19  21
HETATM   21  O   UNL     1      27.663  51.162  38.916  1.00  0.00    -0.321 OA
BRANCH  21  22
HETATM   22  C   UNL     1      26.644  50.155  39.022  1.00  0.00     0.174 C 
HETATM   23  C   UNL     1      26.732  49.185  37.859  1.00  0.00     0.034 C 
ENDBRANCH  21  22
ENDBRANCH  19  21
ENDBRANCH   1  19
BRANCH   2  24
HETATM   24  O   UNL     1      31.653  53.158  39.707  1.00  0.00    -0.389 OA
HETATM   25  H   UNL     1      32.318  53.197  40.416  1.00  0.00     0.210 HD
ENDBRANCH   2  24
BRANCH   7  26
HETATM   26  O   UNL     1      32.262  48.621  42.716  1.00  0.00    -0.343 OA
HETATM   27  H   UNL     1      33.099  48.522  43.191  1.00  0.00     0.219 HD
ENDBRANCH   7  26
TORSDOF 6
ENDMDL
MODEL 6
REMARK VINA RESULT:      -6.9     12.586     14.230
REMARK  6 active torsions:
REMARK  status: ('A' for Active; 'I' for Inactive)
REMARK    1  A    between atoms: C_2  and  O_3 
REMARK    2  A    between atoms: O_3  and  C_4 
REMARK    3  A    between atoms: C_4  and  C_5 
REMARK    4  A    between atoms: C_6  and  O_7 
REMARK    5  A    between atoms: C_12  and  O_13 
REMARK    6  A    between atoms: C_17  and  C_18 
ROOT
HETATM    1  C   UNL     1      30.576  48.531  41.132  1.00  0.00     0.133 C 
HETATM    2  C   UNL     1      31.993  48.812  41.721  1.00  0.00     0.073 C 
HETATM    3  C   UNL     1      33.019  47.731  41.347  1.00  0.00     0.047 C 
HETATM    4  C   UNL     1      32.562  50.213  41.347  1.00  0.00     0.097 C 
HETATM    5  C   UNL     1      31.488  51.235  41.423  1.00  0.00     0.042 A 
HETATM    6  C   UNL     1      30.126  51.017  41.451  1.00  0.00     0.030 A 
HETATM    7  C   UNL     1      29.601  52.309  41.625  1.00  0.00     0.190 A 
HETATM    8  N   UNL     1      30.524  53.264  41.645  1.00  0.00    -0.149 NA
HETATM    9  N   UNL     1      31.676  52.582  41.535  1.00  0.00    -0.279 N 
HETATM   10  H   UNL     1      32.548  53.103  41.565  1.00  0.00     0.189 HD
HETATM   11  C   UNL     1      29.530  49.647  41.434  1.00  0.00     0.074 C 
ENDROOT
BRANCH  11  12
HETATM   12  C   UNL     1      28.308  49.640  40.522  1.00  0.00    -0.048 A 
HETATM   13  C   UNL     1      28.241  50.357  39.312  1.00  0.00     0.009 A 
HETATM   14  C   UNL     1      27.114  50.281  38.490  1.00  0.00     0.024 A 
HETATM   15  C   UNL     1      26.043  49.475  38.858  1.00  0.00     0.034 A 
HETATM   16 CL   UNL     1      24.660  49.371  37.842  1.00  0.00    -0.084 Cl
HETATM   17  C   UNL     1      26.089  48.745  40.043  1.00  0.00     0.024 A 
HETATM   18  C   UNL     1      27.215  48.827  40.868  1.00  0.00     0.009 A 
ENDBRANCH  11  12
BRANCH   1  19
HETATM   19  C   UNL     1      30.632  48.130  39.672  1.00  0.00     0.267 C 
HETATM   20  O   UNL     1      31.134  48.846  38.812  1.00  0.00    -0.265 OA
BRANCH  19  21
HETATM   21  O   UNL     1      30.047  46.930  39.436  1.00  0.00    -0.321 OA
BRANCH  21  22
HETATM   22  C   UNL     1      29.277  46.841  38.226  1.00  0.00     0.174 C 
HETATM   23  C   UNL     1      28.017  46.029  38.457  1.00  0.00     0.034 C 
ENDBRANCH  21  22
ENDBRANCH  19  21
ENDBRANCH   1  19
BRANCH   2  24
HETATM   24  O   UNL     1      31.879  48.771  43.162  1.00  0.00    -0.389 OA
HETATM   25  H   UNL     1      32.543  48.151  43.512  1.00  0.00     0.210 HD
ENDBRANCH   2  24
BRANCH   7  26
HETATM   26  O   UNL     1      28.335  52.709  41.768  1.00  0.00    -0.343 OA
HETATM   27  H   UNL     1      28.293  53.675  41.730  1.00  0.00     0.219 HD
ENDBRANCH   7  26
TORSDOF 6
ENDMDL
MODEL 7
REMARK VINA RESULT:      -6.8     12.325     14.283
REMARK  6 active torsions:
REMARK  status: ('A' for Active; 'I' for Inactive)
REMARK    1  A    between atoms: C_2  and  O_3 
REMARK    2  A    between atoms: O_3  and  C_4 
REMARK    3  A    between atoms: C_4  and  C_5 
REMARK    4  A    between atoms: C_6  and  O_7 
REMARK    5  A    between atoms: C_12  and  O_13 
REMARK    6  A    between atoms: C_17  and  C_18 
ROOT
HETATM    1  C   UNL     1      28.899  50.507  38.295  1.00  0.00     0.133 C 
HETATM    2  C   UNL     1      29.651  51.866  38.164  1.00  0.00     0.073 C 
HETATM    3  C   UNL     1      28.713  53.038  37.836  1.00  0.00     0.047 C 
HETATM    4  C   UNL     1      30.514  52.230  39.410  1.00  0.00     0.097 C 
HETATM    5  C   UNL     1      31.207  51.020  39.920  1.00  0.00     0.042 A 
HETATM    6  C   UNL     1      30.911  49.703  39.632  1.00  0.00     0.030 A 
HETATM    7  C   UNL     1      31.931  48.998  40.293  1.00  0.00     0.190 A 
HETATM    8  N   UNL     1      32.758  49.774  40.984  1.00  0.00    -0.149 NA
HETATM    9  N   UNL     1      32.305  51.013  40.729  1.00  0.00    -0.279 N 
HETATM   10  H   UNL     1      32.809  51.800  41.125  1.00  0.00     0.189 HD
HETATM   11  C   UNL     1      29.813  49.310  38.699  1.00  0.00     0.074 C 
ENDROOT
BRANCH  11  12
HETATM   12  C   UNL     1      29.073  48.105  39.270  1.00  0.00    -0.048 A 
HETATM   13  C   UNL     1      28.684  48.004  40.619  1.00  0.00     0.009 A 
HETATM   14  C   UNL     1      27.968  46.897  41.082  1.00  0.00     0.024 A 
HETATM   15  C   UNL     1      27.617  45.883  40.199  1.00  0.00     0.034 A 
HETATM   16 CL   UNL     1      26.726  44.525  40.765  1.00  0.00    -0.084 Cl
HETATM   17  C   UNL     1      27.978  45.964  38.857  1.00  0.00     0.024 A 
HETATM   18  C   UNL     1      28.701  47.069  38.396  1.00  0.00     0.009 A 
ENDBRANCH  11  12
BRANCH   1  19
HETATM   19  C   UNL     1      27.646  50.625  39.140  1.00  0.00     0.267 C 
HETATM   20  O   UNL     1      27.674  50.996  40.308  1.00  0.00    -0.265 OA
BRANCH  19  21
HETATM   21  O   UNL     1      26.527  50.251  38.473  1.00  0.00    -0.321 OA
BRANCH  21  22
HETATM   22  C   UNL     1      25.564  49.512  39.240  1.00  0.00     0.174 C 
HETATM   23  C   UNL     1      25.133  48.264  38.492  1.00  0.00     0.034 C 
ENDBRANCH  21  22
ENDBRANCH  19  21
ENDBRANCH   1  19
BRANCH   2  24
HETATM   24  O   UNL     1      30.555  51.754  37.040  1.00  0.00    -0.389 OA
HETATM   25  H   UNL     1      30.057  51.911  36.219  1.00  0.00     0.210 HD
ENDBRANCH   2  24
BRANCH   7  26
HETATM   26  O   UNL     1      32.183  47.687  40.330  1.00  0.00    -0.343 OA
HETATM   27  H   UNL     1      32.482  47.438  41.216  1.00  0.00     0.219 HD
ENDBRANCH   7  26
TORSDOF 6
ENDMDL
MODEL 8
REMARK VINA RESULT:      -6.7     16.972     18.501
REMARK  6 active torsions:
REMARK  status: ('A' for Active; 'I' for Inactive)
REMARK    1  A    between atoms: C_2  and  O_3 
REMARK    2  A    between atoms: O_3  and  C_4 
REMARK    3  A    between atoms: C_4  and  C_5 
REMARK    4  A    between atoms: C_6  and  O_7 
REMARK    5  A    between atoms: C_12  and  O_13 
REMARK    6  A    between atoms: C_17  and  C_18 
ROOT
HETATM    1  C   UNL     1      37.384  44.141  63.994  1.00  0.00     0.133 C 
HETATM    2  C   UNL     1      37.012  45.622  64.309  1.00  0.00     0.073 C 
HETATM    3  C   UNL     1      35.591  45.774  64.873  1.00  0.00     0.047 C 
HETATM    4  C   UNL     1      38.022  46.334  65.260  1.00  0.00     0.097 C 
HETATM    5  C   UNL     1      39.412  45.955  64.902  1.00  0.00     0.042 A 
HETATM    6  C   UNL     1      39.814  44.889  64.124  1.00  0.00     0.030 A 
HETATM    7  C   UNL     1      41.205  45.068  64.035  1.00  0.00     0.190 A 
HETATM    8  N   UNL     1      41.657  46.104  64.732  1.00  0.00    -0.149 NA
HETATM    9  N   UNL     1      40.539  46.644  65.244  1.00  0.00    -0.279 N 
HETATM   10  H   UNL     1      40.623  47.491  65.797  1.00  0.00     0.189 HD
HETATM   11  C   UNL     1      38.846  43.945  63.488  1.00  0.00     0.074 C 
ENDROOT
BRANCH  11  12
HETATM   12  C   UNL     1      39.377  42.521  63.607  1.00  0.00    -0.048 A 
HETATM   13  C   UNL     1      40.188  42.084  64.671  1.00  0.00     0.009 A 
HETATM   14  C   UNL     1      40.612  40.755  64.756  1.00  0.00     0.024 A 
HETATM   15  C   UNL     1      40.218  39.841  63.786  1.00  0.00     0.034 A 
HETATM   16 CL   UNL     1      40.730  38.203  63.895  1.00  0.00    -0.084 Cl
HETATM   17  C   UNL     1      39.406  40.245  62.730  1.00  0.00     0.024 A 
HETATM   18  C   UNL     1      38.988  41.576  62.642  1.00  0.00     0.009 A 
ENDBRANCH  11  12
BRANCH   1  19
HETATM   19  C   UNL     1      37.000  43.203  65.120  1.00  0.00     0.267 C 
HETATM   20  O   UNL     1      37.442  43.325  66.257  1.00  0.00    -0.265 OA
BRANCH  19  21
HETATM   21  O   UNL     1      36.157  42.220  64.719  1.00  0.00    -0.321 OA
BRANCH  21  22
HETATM   22  C   UNL     1      35.210  41.773  65.702  1.00  0.00     0.174 C 
HETATM   23  C   UNL     1      33.959  42.630  65.664  1.00  0.00     0.034 C 
ENDBRANCH  21  22
ENDBRANCH  19  21
ENDBRANCH   1  19
BRANCH   2  24
HETATM   24  O   UNL     1      37.024  46.348  63.058  1.00  0.00    -0.389 OA
HETATM   25  H   UNL     1      37.682  47.063  63.116  1.00  0.00     0.210 HD
ENDBRANCH   2  24
BRANCH   7  26
HETATM   26  O   UNL     1      42.120  44.362  63.367  1.00  0.00    -0.343 OA
HETATM   27  H   UNL     1      42.995  44.754  63.500  1.00  0.00     0.219 HD
ENDBRANCH   7  26
TORSDOF 6
ENDMDL
MODEL 9
REMARK VINA RESULT:      -6.6      3.381      5.754
REMARK  6 active torsions:
REMARK  status: ('A' for Active; 'I' for Inactive)
REMARK    1  A    between atoms: C_2  and  O_3 
REMARK    2  A    between atoms: O_3  and  C_4 
REMARK    3  A    between atoms: C_4  and  C_5 
REMARK    4  A    between atoms: C_6  and  O_7 
REMARK    5  A    between atoms: C_12  and  O_13 
REMARK    6  A    between atoms: C_17  and  C_18 
ROOT
HETATM    1  C   UNL     1      26.023  40.293  49.268  1.00  0.00     0.133 C 
HETATM    2  C   UNL     1      26.886  38.995  49.313  1.00  0.00     0.073 C 
HETATM    3  C   UNL     1      26.970  38.287  47.953  1.00  0.00     0.047 C 
HETATM    4  C   UNL     1      28.325  39.217  49.869  1.00  0.00     0.097 C 
HETATM    5  C   UNL     1      28.287  40.149  51.024  1.00  0.00     0.042 A 
HETATM    6  C   UNL     1      27.260  40.999  51.378  1.00  0.00     0.030 A 
HETATM    7  C   UNL     1      27.713  41.558  52.586  1.00  0.00     0.190 A 
HETATM    8  N   UNL     1      28.929  41.156  52.938  1.00  0.00    -0.149 NA
HETATM    9  N   UNL     1      29.257  40.279  51.974  1.00  0.00    -0.279 N 
HETATM   10  H   UNL     1      30.147  39.797  52.045  1.00  0.00     0.189 HD
HETATM   11  C   UNL     1      25.977  41.074  50.617  1.00  0.00     0.074 C 
ENDROOT
BRANCH  11  12
HETATM   12  C   UNL     1      25.545  42.531  50.497  1.00  0.00    -0.048 A 
HETATM   13  C   UNL     1      24.224  42.968  50.713  1.00  0.00     0.009 A 
HETATM   14  C   UNL     1      23.890  44.322  50.633  1.00  0.00     0.024 A 
HETATM   15  C   UNL     1      24.875  45.262  50.353  1.00  0.00     0.034 A 
HETATM   16 CL   UNL     1      24.468  46.930  50.267  1.00  0.00    -0.084 Cl
HETATM   17  C   UNL     1      26.192  44.858  50.148  1.00  0.00     0.024 A 
HETATM   18  C   UNL     1      26.524  43.502  50.221  1.00  0.00     0.009 A 
ENDBRANCH  11  12
BRANCH   1  19
HETATM   19  C   UNL     1      26.360  41.163  48.074  1.00  0.00     0.267 C 
HETATM   20  O   UNL     1      27.504  41.530  47.831  1.00  0.00    -0.265 OA
BRANCH  19  21
HETATM   21  O   UNL     1      25.267  41.502  47.347  1.00  0.00    -0.321 OA
BRANCH  21  22
HETATM   22  C   UNL     1      24.169  40.578  47.407  1.00  0.00     0.174 C 
HETATM   23  C   UNL     1      22.877  41.307  47.721  1.00  0.00     0.034 C 
ENDBRANCH  21  22
ENDBRANCH  19  21
ENDBRANCH   1  19
BRANCH   2  24
HETATM   24  O   UNL     1      26.225  38.067  50.205  1.00  0.00    -0.389 OA
HETATM   25  H   UNL     1      26.506  38.254  51.117  1.00  0.00     0.210 HD
ENDBRANCH   2  24
BRANCH   7  26
HETATM   26  O   UNL     1      27.113  42.418  53.412  1.00  0.00    -0.343 OA
HETATM   27  H   UNL     1      26.760  43.163  52.904  1.00  0.00     0.219 HD
ENDBRANCH   7  26
TORSDOF 6
ENDMDL
MODEL 10
REMARK VINA RESULT:      -6.5     18.083     19.687
REMARK  6 active torsions:
REMARK  status: ('A' for Active; 'I' for Inactive)
REMARK    1  A    between atoms: C_2  and  O_3 
REMARK    2  A    between atoms: O_3  and  C_4 
REMARK    3  A    between atoms: C_4  and  C_5 
REMARK    4  A    between atoms: C_6  and  O_7 
REMARK    5  A    between atoms: C_12  and  O_13 
REMARK    6  A    between atoms: C_17  and  C_18 
ROOT
HETATM    1  C   UNL     1      38.752  46.450  64.814  1.00  0.00     0.133 C 
HETATM    2  C   UNL     1      38.972  47.884  65.385  1.00  0.00     0.073 C 
HETATM    3  C   UNL     1      37.774  48.390  66.203  1.00  0.00     0.047 C 
HETATM    4  C   UNL     1      40.273  48.031  66.230  1.00  0.00     0.097 C 
HETATM    5  C   UNL     1      41.385  47.287  65.587  1.00  0.00     0.042 A 
HETATM    6  C   UNL     1      41.287  46.313  64.615  1.00  0.00     0.030 A 
HETATM    7  C   UNL     1      42.630  46.035  64.309  1.00  0.00     0.190 A 
HETATM    8  N   UNL     1      43.500  46.714  65.048  1.00  0.00    -0.149 NA
HETATM    9  N   UNL     1      42.715  47.488  65.816  1.00  0.00    -0.279 N 
HETATM   10  H   UNL     1      43.159  48.141  66.454  1.00  0.00     0.189 HD
HETATM   11  C   UNL     1      39.979  45.879  64.038  1.00  0.00     0.074 C 
ENDROOT
BRANCH  11  12
HETATM   12  C   UNL     1      39.980  44.364  63.870  1.00  0.00    -0.048 A 
HETATM   13  C   UNL     1      40.594  43.484  64.782  1.00  0.00     0.009 A 
HETATM   14  C   UNL     1      40.527  42.099  64.605  1.00  0.00     0.024 A 
HETATM   15  C   UNL     1      39.831  41.574  63.523  1.00  0.00     0.034 A 
HETATM   16 CL   UNL     1      39.739  39.870  63.309  1.00  0.00    -0.084 Cl
HETATM   17  C   UNL     1      39.204  42.422  62.613  1.00  0.00     0.024 A 
HETATM   18  C   UNL     1      39.277  43.807  62.787  1.00  0.00     0.009 A 
ENDBRANCH  11  12
BRANCH   1  19
HETATM   19  C   UNL     1      38.196  45.499  65.854  1.00  0.00     0.267 C 
HETATM   20  O   UNL     1      38.753  45.300  66.928  1.00  0.00    -0.265 OA
BRANCH  19  21
HETATM   21  O   UNL     1      37.055  44.888  65.449  1.00  0.00    -0.321 OA
BRANCH  21  22
HETATM   22  C   UNL     1      36.726  43.669  66.132  1.00  0.00     0.174 C 
HETATM   23  C   UNL     1      36.560  42.532  65.141  1.00  0.00     0.034 C 
ENDBRANCH  21  22
ENDBRANCH  19  21
ENDBRANCH   1  19
BRANCH   2  24
HETATM   24  O   UNL     1      39.093  48.784  64.259  1.00  0.00    -0.389 OA
HETATM   25  H   UNL     1      39.237  49.687  64.593  1.00  0.00     0.210 HD
ENDBRANCH   2  24
BRANCH   7  26
HETATM   26  O   UNL     1      43.149  45.203  63.402  1.00  0.00    -0.343 OA
HETATM   27  H   UNL     1      42.890  44.294  63.610  1.00  0.00     0.219 HD
ENDBRANCH   7  26
TORSDOF 6
ENDMDL
