MODEL 1
REMARK VINA RESULT:      -7.7      0.000      0.000
REMARK  3 active torsions:
REMARK  status: ('A' for Active; 'I' for Inactive)
REMARK    1  A    between atoms: C_11  and  N_12 
REMARK       I    between atoms: N_12  and  C_13 
REMARK    2  A    between atoms: C_13  and  C_14 
REMARK    3  A    between atoms: C_15  and  O_16 
ROOT
HETATM    1  N   UNL     1      25.764  43.409  52.261  1.00  0.00    -0.352 N 
HETATM    2  C   UNL     1      25.953  43.806  53.574  1.00  0.00     0.254 C 
HETATM    3  O   UNL     1      25.039  44.110  54.331  1.00  0.00    -0.268 OA
HETATM    4  H   UNL     1      26.602  43.332  51.696  1.00  0.00     0.163 HD
ENDROOT
BRANCH   1   5
HETATM    5  C   UNL     1      24.495  43.530  51.552  1.00  0.00     0.089 C 
HETATM    6  C   UNL     1      24.280  42.606  50.345  1.00  0.00     0.063 C 
HETATM    7  C   UNL     1      25.139  42.921  49.117  1.00  0.00     0.121 C 
HETATM    8  N   UNL     1      25.012  44.396  48.786  1.00  0.00    -0.059 N 
HETATM    9  C   UNL     1      26.615  42.533  49.245  1.00  0.00     0.046 C 
HETATM   10  C   UNL     1      24.571  42.162  47.898  1.00  0.00     0.046 C 
HETATM   11  C   UNL     1      25.065  45.437  49.884  1.00  0.00     0.121 C 
HETATM   12  H   UNL     1      24.112  44.514  48.298  1.00  0.00     0.279 HD
HETATM   13  H   UNL     1      25.715  44.631  48.068  1.00  0.00     0.279 HD
HETATM   14  C   UNL     1      26.524  45.779  50.215  1.00  0.00     0.046 C 
HETATM   15  C   UNL     1      24.419  46.709  49.296  1.00  0.00     0.046 C 
HETATM   16  C   UNL     1      24.247  44.978  51.106  1.00  0.00     0.063 C 
ENDBRANCH   1   5
BRANCH   2  17
HETATM   17  C   UNL     1      27.335  43.729  54.114  1.00  0.00     0.066 A 
HETATM   18  C   UNL     1      28.074  42.553  53.911  1.00  0.00     0.081 A 
HETATM   19  C   UNL     1      29.401  42.467  54.324  1.00  0.00     0.039 A 
HETATM   20  C   UNL     1      29.995  43.550  54.970  1.00  0.00     0.026 A 
HETATM   21  C   UNL     1      29.254  44.707  55.206  1.00  0.00     0.035 A 
HETATM   22 CL   UNL     1      29.982  46.039  56.014  1.00  0.00    -0.084 Cl
HETATM   23  C   UNL     1      27.926  44.804  54.786  1.00  0.00     0.043 A 
BRANCH  18  24
HETATM   24  O   UNL     1      27.553  41.446  53.296  1.00  0.00    -0.360 OA
HETATM   25  H   UNL     1      28.145  40.685  53.487  1.00  0.00     0.217 HD
ENDBRANCH  18  24
ENDBRANCH   2  17
TORSDOF 3
ENDMDL
MODEL 2
REMARK VINA RESULT:      -7.5      1.381      2.087
REMARK  3 active torsions:
REMARK  status: ('A' for Active; 'I' for Inactive)
REMARK    1  A    between atoms: C_11  and  N_12 
REMARK       I    between atoms: N_12  and  C_13 
REMARK    2  A    between atoms: C_13  and  C_14 
REMARK    3  A    between atoms: C_15  and  O_16 
ROOT
HETATM    1  N   UNL     1      25.751  43.866  52.356  1.00  0.00    -0.352 N 
HETATM    2  C   UNL     1      25.690  44.341  53.655  1.00  0.00     0.254 C 
HETATM    3  O   UNL     1      24.688  44.276  54.358  1.00  0.00    -0.268 OA
HETATM    4  H   UNL     1      26.581  44.115  51.831  1.00  0.00     0.163 HD
ENDROOT
BRANCH   1   5
HETATM    5  C   UNL     1      24.581  43.452  51.589  1.00  0.00     0.089 C 
HETATM    6  C   UNL     1      24.785  42.336  50.554  1.00  0.00     0.063 C 
HETATM    7  C   UNL     1      25.608  42.727  49.323  1.00  0.00     0.121 C 
HETATM    8  N   UNL     1      25.049  44.009  48.736  1.00  0.00    -0.059 N 
HETATM    9  C   UNL     1      27.112  42.873  49.573  1.00  0.00     0.046 C 
HETATM   10  C   UNL     1      25.428  41.647  48.235  1.00  0.00     0.046 C 
HETATM   11  C   UNL     1      24.665  45.163  49.637  1.00  0.00     0.121 C 
HETATM   12  H   UNL     1      24.207  43.748  48.201  1.00  0.00     0.279 HD
HETATM   13  H   UNL     1      25.703  44.350  48.015  1.00  0.00     0.279 HD
HETATM   14  C   UNL     1      25.900  46.014  49.958  1.00  0.00     0.046 C 
HETATM   15  C   UNL     1      23.704  46.045  48.812  1.00  0.00     0.046 C 
HETATM   16  C   UNL     1      23.926  44.651  50.888  1.00  0.00     0.063 C 
ENDBRANCH   1   5
BRANCH   2  17
HETATM   17  C   UNL     1      26.955  44.836  54.255  1.00  0.00     0.066 A 
HETATM   18  C   UNL     1      26.990  46.137  54.780  1.00  0.00     0.081 A 
HETATM   19  C   UNL     1      28.127  46.613  55.428  1.00  0.00     0.039 A 
HETATM   20  C   UNL     1      29.254  45.800  55.533  1.00  0.00     0.026 A 
HETATM   21  C   UNL     1      29.238  44.520  54.980  1.00  0.00     0.035 A 
HETATM   22 CL   UNL     1      30.631  43.519  55.098  1.00  0.00    -0.084 Cl
HETATM   23  C   UNL     1      28.097  44.032  54.338  1.00  0.00     0.043 A 
BRANCH  18  24
HETATM   24  O   UNL     1      25.927  46.997  54.704  1.00  0.00    -0.360 OA
HETATM   25  H   UNL     1      25.701  47.119  53.756  1.00  0.00     0.217 HD
ENDBRANCH  18  24
ENDBRANCH   2  17
TORSDOF 3
ENDMDL
MODEL 3
REMARK VINA RESULT:      -7.5      6.140      8.681
REMARK  3 active torsions:
REMARK  status: ('A' for Active; 'I' for Inactive)
REMARK    1  A    between atoms: C_11  and  N_12 
REMARK       I    between atoms: N_12  and  C_13 
REMARK    2  A    between atoms: C_13  and  C_14 
REMARK    3  A    between atoms: C_15  and  O_16 
ROOT
HETATM    1  N   UNL     1      21.944  49.425  48.147  1.00  0.00    -0.352 N 
HETATM    2  C   UNL     1      23.250  49.836  47.939  1.00  0.00     0.254 C 
HETATM    3  O   UNL     1      23.555  50.837  47.301  1.00  0.00    -0.268 OA
HETATM    4  H   UNL     1      21.828  48.505  48.557  1.00  0.00     0.163 HD
ENDROOT
BRANCH   1   5
HETATM    5  C   UNL     1      20.795  49.988  47.444  1.00  0.00     0.089 C 
HETATM    6  C   UNL     1      20.135  51.226  48.068  1.00  0.00     0.063 C 
HETATM    7  C   UNL     1      19.372  50.975  49.372  1.00  0.00     0.121 C 
HETATM    8  N   UNL     1      18.421  49.810  49.177  1.00  0.00    -0.059 N 
HETATM    9  C   UNL     1      20.256  50.737  50.600  1.00  0.00     0.046 C 
HETATM   10  C   UNL     1      18.485  52.201  49.678  1.00  0.00     0.046 C 
HETATM   11  C   UNL     1      18.876  48.559  48.456  1.00  0.00     0.121 C 
HETATM   12  H   UNL     1      17.605  50.176  48.665  1.00  0.00     0.279 HD
HETATM   13  H   UNL     1      18.037  49.545  50.097  1.00  0.00     0.279 HD
HETATM   14  C   UNL     1      19.601  47.623  49.432  1.00  0.00     0.046 C 
HETATM   15  C   UNL     1      17.590  47.838  48.001  1.00  0.00     0.046 C 
HETATM   16  C   UNL     1      19.713  48.924  47.215  1.00  0.00     0.063 C 
ENDBRANCH   1   5
BRANCH   2  17
HETATM   17  C   UNL     1      24.318  49.082  48.643  1.00  0.00     0.066 A 
HETATM   18  C   UNL     1      25.658  49.415  48.391  1.00  0.00     0.081 A 
HETATM   19  C   UNL     1      26.689  48.794  49.091  1.00  0.00     0.039 A 
HETATM   20  C   UNL     1      26.390  47.810  50.032  1.00  0.00     0.026 A 
HETATM   21  C   UNL     1      25.063  47.449  50.259  1.00  0.00     0.035 A 
HETATM   22 CL   UNL     1      24.694  46.227  51.411  1.00  0.00    -0.084 Cl
HETATM   23  C   UNL     1      24.023  48.075  49.569  1.00  0.00     0.043 A 
BRANCH  18  24
HETATM   24  O   UNL     1      26.027  50.362  47.474  1.00  0.00    -0.360 OA
HETATM   25  H   UNL     1      26.734  49.979  46.909  1.00  0.00     0.217 HD
ENDBRANCH  18  24
ENDBRANCH   2  17
TORSDOF 3
ENDMDL
MODEL 4
REMARK VINA RESULT:      -7.3     12.595     14.817
REMARK  3 active torsions:
REMARK  status: ('A' for Active; 'I' for Inactive)
REMARK    1  A    between atoms: C_11  and  N_12 
REMARK       I    between atoms: N_12  and  C_13 
REMARK    2  A    between atoms: C_13  and  C_14 
REMARK    3  A    between atoms: C_15  and  O_16 
ROOT
HETATM    1  N   UNL     1      29.499  51.648  40.745  1.00  0.00    -0.352 N 
HETATM    2  C   UNL     1      28.131  51.548  40.931  1.00  0.00     0.254 C 
HETATM    3  O   UNL     1      27.430  52.468  41.335  1.00  0.00    -0.268 OA
HETATM    4  H   UNL     1      29.986  50.780  40.556  1.00  0.00     0.163 HD
ENDROOT
BRANCH   1   5
HETATM    5  C   UNL     1      30.303  52.768  41.226  1.00  0.00     0.089 C 
HETATM    6  C   UNL     1      31.442  53.249  40.316  1.00  0.00     0.063 C 
HETATM    7  C   UNL     1      32.629  52.290  40.189  1.00  0.00     0.121 C 
HETATM    8  N   UNL     1      33.088  51.878  41.575  1.00  0.00    -0.059 N 
HETATM    9  C   UNL     1      32.367  51.050  39.329  1.00  0.00     0.046 C 
HETATM   10  C   UNL     1      33.818  53.044  39.553  1.00  0.00     0.046 C 
HETATM   11  C   UNL     1      32.079  51.503  42.639  1.00  0.00     0.121 C 
HETATM   12  H   UNL     1      33.645  52.661  41.947  1.00  0.00     0.279 HD
HETATM   13  H   UNL     1      33.772  51.113  41.477  1.00  0.00     0.279 HD
HETATM   14  C   UNL     1      31.676  50.031  42.486  1.00  0.00     0.046 C 
HETATM   15  C   UNL     1      32.813  51.640  43.989  1.00  0.00     0.046 C 
HETATM   16  C   UNL     1      30.883  52.475  42.617  1.00  0.00     0.063 C 
ENDBRANCH   1   5
BRANCH   2  17
HETATM   17  C   UNL     1      27.478  50.289  40.489  1.00  0.00     0.066 A 
HETATM   18  C   UNL     1      27.574  49.155  41.310  1.00  0.00     0.081 A 
HETATM   19  C   UNL     1      26.907  47.978  40.979  1.00  0.00     0.039 A 
HETATM   20  C   UNL     1      26.158  47.916  39.804  1.00  0.00     0.026 A 
HETATM   21  C   UNL     1      26.090  49.029  38.967  1.00  0.00     0.035 A 
HETATM   22 CL   UNL     1      25.176  48.949  37.512  1.00  0.00    -0.084 Cl
HETATM   23  C   UNL     1      26.747  50.215  39.299  1.00  0.00     0.043 A 
BRANCH  18  24
HETATM   24  O   UNL     1      28.300  49.138  42.471  1.00  0.00    -0.360 OA
HETATM   25  H   UNL     1      27.673  49.048  43.221  1.00  0.00     0.217 HD
ENDBRANCH  18  24
ENDBRANCH   2  17
TORSDOF 3
ENDMDL
MODEL 5
REMARK VINA RESULT:      -7.3      5.919      8.706
REMARK  3 active torsions:
REMARK  status: ('A' for Active; 'I' for Inactive)
REMARK    1  A    between atoms: C_11  and  N_12 
REMARK       I    between atoms: N_12  and  C_13 
REMARK    2  A    between atoms: C_13  and  C_14 
REMARK    3  A    between atoms: C_15  and  O_16 
ROOT
HETATM    1  N   UNL     1      21.615  49.234  48.142  1.00  0.00    -0.352 N 
HETATM    2  C   UNL     1      22.923  49.584  47.851  1.00  0.00     0.254 C 
HETATM    3  O   UNL     1      23.231  50.460  47.050  1.00  0.00    -0.268 OA
HETATM    4  H   UNL     1      21.494  48.398  48.701  1.00  0.00     0.163 HD
ENDROOT
BRANCH   1   5
HETATM    5  C   UNL     1      20.463  49.690  47.371  1.00  0.00     0.089 C 
HETATM    6  C   UNL     1      19.922  51.091  47.688  1.00  0.00     0.063 C 
HETATM    7  C   UNL     1      19.227  51.234  49.045  1.00  0.00     0.121 C 
HETATM    8  N   UNL     1      18.194  50.133  49.195  1.00  0.00    -0.059 N 
HETATM    9  C   UNL     1      20.169  51.243  50.254  1.00  0.00     0.046 C 
HETATM   10  C   UNL     1      18.440  52.562  49.069  1.00  0.00     0.046 C 
HETATM   11  C   UNL     1      18.524  48.710  48.796  1.00  0.00     0.121 C 
HETATM   12  H   UNL     1      17.373  50.421  48.643  1.00  0.00     0.279 HD
HETATM   13  H   UNL     1      17.853  50.137  50.168  1.00  0.00     0.279 HD
HETATM   14  C   UNL     1      19.248  47.996  49.945  1.00  0.00     0.046 C 
HETATM   15  C   UNL     1      17.169  48.000  48.597  1.00  0.00     0.046 C 
HETATM   16  C   UNL     1      19.304  48.688  47.467  1.00  0.00     0.063 C 
ENDBRANCH   1   5
BRANCH   2  17
HETATM   17  C   UNL     1      23.992  48.942  48.656  1.00  0.00     0.066 A 
HETATM   18  C   UNL     1      23.663  47.834  49.453  1.00  0.00     0.081 A 
HETATM   19  C   UNL     1      24.648  47.147  50.159  1.00  0.00     0.039 A 
HETATM   20  C   UNL     1      25.972  47.581  50.096  1.00  0.00     0.026 A 
HETATM   21  C   UNL     1      26.298  48.703  49.335  1.00  0.00     0.035 A 
HETATM   22 CL   UNL     1      27.928  49.246  49.267  1.00  0.00    -0.084 Cl
HETATM   23  C   UNL     1      25.317  49.390  48.617  1.00  0.00     0.043 A 
BRANCH  18  24
HETATM   24  O   UNL     1      22.385  47.359  49.572  1.00  0.00    -0.360 OA
HETATM   25  H   UNL     1      21.816  48.093  49.892  1.00  0.00     0.217 HD
ENDBRANCH  18  24
ENDBRANCH   2  17
TORSDOF 3
ENDMDL
MODEL 6
REMARK VINA RESULT:      -7.2      1.803      3.082
REMARK  3 active torsions:
REMARK  status: ('A' for Active; 'I' for Inactive)
REMARK    1  A    between atoms: C_11  and  N_12 
REMARK       I    between atoms: N_12  and  C_13 
REMARK    2  A    between atoms: C_13  and  C_14 
REMARK    3  A    between atoms: C_15  and  O_16 
ROOT
HETATM    1  N   UNL     1      27.646  44.762  51.282  1.00  0.00    -0.352 N 
HETATM    2  C   UNL     1      28.101  43.628  51.934  1.00  0.00     0.254 C 
HETATM    3  O   UNL     1      28.082  42.506  51.441  1.00  0.00    -0.268 OA
HETATM    4  H   UNL     1      27.573  45.600  51.849  1.00  0.00     0.163 HD
ENDROOT
BRANCH   1   5
HETATM    5  C   UNL     1      26.880  44.732  50.041  1.00  0.00     0.089 C 
HETATM    6  C   UNL     1      26.273  46.059  49.565  1.00  0.00     0.063 C 
HETATM    7  C   UNL     1      25.114  46.592  50.413  1.00  0.00     0.121 C 
HETATM    8  N   UNL     1      24.091  45.489  50.609  1.00  0.00    -0.059 N 
HETATM    9  C   UNL     1      25.524  47.180  51.767  1.00  0.00     0.046 C 
HETATM   10  C   UNL     1      24.391  47.709  49.630  1.00  0.00     0.046 C 
HETATM   11  C   UNL     1      24.534  44.083  50.950  1.00  0.00     0.121 C 
HETATM   12  H   UNL     1      23.545  45.433  49.737  1.00  0.00     0.279 HD
HETATM   13  H   UNL     1      23.405  45.804  51.312  1.00  0.00     0.279 HD
HETATM   14  C   UNL     1      24.759  43.953  52.462  1.00  0.00     0.046 C 
HETATM   15  C   UNL     1      23.351  43.163  50.582  1.00  0.00     0.046 C 
HETATM   16  C   UNL     1      25.761  43.682  50.108  1.00  0.00     0.063 C 
ENDBRANCH   1   5
BRANCH   2  17
HETATM   17  C   UNL     1      28.761  43.821  53.250  1.00  0.00     0.066 A 
HETATM   18  C   UNL     1      29.882  43.036  53.564  1.00  0.00     0.081 A 
HETATM   19  C   UNL     1      30.584  43.241  54.749  1.00  0.00     0.039 A 
HETATM   20  C   UNL     1      30.155  44.218  55.647  1.00  0.00     0.026 A 
HETATM   21  C   UNL     1      29.021  44.975  55.356  1.00  0.00     0.035 A 
HETATM   22 CL   UNL     1      28.483  46.172  56.468  1.00  0.00    -0.084 Cl
HETATM   23  C   UNL     1      28.318  44.782  54.165  1.00  0.00     0.043 A 
BRANCH  18  24
HETATM   24  O   UNL     1      30.353  42.052  52.738  1.00  0.00    -0.360 OA
HETATM   25  H   UNL     1      30.788  42.482  51.969  1.00  0.00     0.217 HD
ENDBRANCH  18  24
ENDBRANCH   2  17
TORSDOF 3
ENDMDL
MODEL 7
REMARK VINA RESULT:      -7.1      3.773      6.420
REMARK  3 active torsions:
REMARK  status: ('A' for Active; 'I' for Inactive)
REMARK    1  A    between atoms: C_11  and  N_12 
REMARK       I    between atoms: N_12  and  C_13 
REMARK    2  A    between atoms: C_13  and  C_14 
REMARK    3  A    between atoms: C_15  and  O_16 
ROOT
HETATM    1  N   UNL     1      26.695  45.679  50.335  1.00  0.00    -0.352 N 
HETATM    2  C   UNL     1      27.151  46.727  49.554  1.00  0.00     0.254 C 
HETATM    3  O   UNL     1      28.242  46.735  48.995  1.00  0.00    -0.268 OA
HETATM    4  H   UNL     1      25.849  45.856  50.864  1.00  0.00     0.163 HD
ENDROOT
BRANCH   1   5
HETATM    5  C   UNL     1      27.537  44.574  50.781  1.00  0.00     0.089 C 
HETATM    6  C   UNL     1      27.184  43.174  50.258  1.00  0.00     0.063 C 
HETATM    7  C   UNL     1      25.889  42.575  50.813  1.00  0.00     0.121 C 
HETATM    8  N   UNL     1      25.901  42.675  52.327  1.00  0.00    -0.059 N 
HETATM    9  C   UNL     1      24.602  43.190  50.253  1.00  0.00     0.046 C 
HETATM   10  C   UNL     1      25.854  41.066  50.487  1.00  0.00     0.046 C 
HETATM   11  C   UNL     1      26.355  43.948  53.008  1.00  0.00     0.121 C 
HETATM   12  H   UNL     1      26.505  41.914  52.669  1.00  0.00     0.279 HD
HETATM   13  H   UNL     1      24.964  42.424  52.677  1.00  0.00     0.279 HD
HETATM   14  C   UNL     1      25.193  44.946  53.090  1.00  0.00     0.046 C 
HETATM   15  C   UNL     1      26.720  43.550  54.454  1.00  0.00     0.046 C 
HETATM   16  C   UNL     1      27.608  44.517  52.314  1.00  0.00     0.063 C 
ENDBRANCH   1   5
BRANCH   2  17
HETATM   17  C   UNL     1      26.201  47.836  49.285  1.00  0.00     0.066 A 
HETATM   18  C   UNL     1      26.707  49.063  48.827  1.00  0.00     0.081 A 
HETATM   19  C   UNL     1      25.847  50.102  48.481  1.00  0.00     0.039 A 
HETATM   20  C   UNL     1      24.470  49.934  48.618  1.00  0.00     0.026 A 
HETATM   21  C   UNL     1      23.964  48.731  49.108  1.00  0.00     0.035 A 
HETATM   22 CL   UNL     1      22.267  48.527  49.288  1.00  0.00    -0.084 Cl
HETATM   23  C   UNL     1      24.820  47.680  49.446  1.00  0.00     0.043 A 
BRANCH  18  24
HETATM   24  O   UNL     1      28.046  49.304  48.679  1.00  0.00    -0.360 OA
HETATM   25  H   UNL     1      28.179  50.277  48.647  1.00  0.00     0.217 HD
ENDBRANCH  18  24
ENDBRANCH   2  17
TORSDOF 3
ENDMDL
MODEL 8
REMARK VINA RESULT:      -6.9      5.733      8.411
REMARK  3 active torsions:
REMARK  status: ('A' for Active; 'I' for Inactive)
REMARK    1  A    between atoms: C_11  and  N_12 
REMARK       I    between atoms: N_12  and  C_13 
REMARK    2  A    between atoms: C_13  and  C_14 
REMARK    3  A    between atoms: C_15  and  O_16 
ROOT
HETATM    1  N   UNL     1      21.444  48.452  48.219  1.00  0.00    -0.352 N 
HETATM    2  C   UNL     1      22.207  47.344  47.893  1.00  0.00     0.254 C 
HETATM    3  O   UNL     1      22.242  46.846  46.773  1.00  0.00    -0.268 OA
HETATM    4  H   UNL     1      21.382  48.673  49.206  1.00  0.00     0.163 HD
ENDROOT
BRANCH   1   5
HETATM    5  C   UNL     1      20.418  49.014  47.347  1.00  0.00     0.089 C 
HETATM    6  C   UNL     1      20.194  50.531  47.422  1.00  0.00     0.063 C 
HETATM    7  C   UNL     1      19.548  51.036  48.716  1.00  0.00     0.121 C 
HETATM    8  N   UNL     1      18.301  50.221  49.001  1.00  0.00    -0.059 N 
HETATM    9  C   UNL     1      20.471  51.036  49.939  1.00  0.00     0.046 C 
HETATM   10  C   UNL     1      19.069  52.488  48.505  1.00  0.00     0.046 C 
HETATM   11  C   UNL     1      18.314  48.715  48.842  1.00  0.00     0.121 C 
HETATM   12  H   UNL     1      17.561  50.586  48.384  1.00  0.00     0.279 HD
HETATM   13  H   UNL     1      17.970  50.454  49.950  1.00  0.00     0.279 HD
HETATM   14  C   UNL     1      18.867  48.056  50.112  1.00  0.00     0.046 C 
HETATM   15  C   UNL     1      16.836  48.289  48.710  1.00  0.00     0.046 C 
HETATM   16  C   UNL     1      19.068  48.313  47.560  1.00  0.00     0.063 C 
ENDBRANCH   1   5
BRANCH   2  17
HETATM   17  C   UNL     1      23.125  46.822  48.937  1.00  0.00     0.066 A 
HETATM   18  C   UNL     1      23.909  47.733  49.663  1.00  0.00     0.081 A 
HETATM   19  C   UNL     1      24.720  47.299  50.708  1.00  0.00     0.039 A 
HETATM   20  C   UNL     1      24.777  45.941  51.020  1.00  0.00     0.026 A 
HETATM   21  C   UNL     1      24.029  45.028  50.279  1.00  0.00     0.035 A 
HETATM   22 CL   UNL     1      24.107  43.352  50.655  1.00  0.00    -0.084 Cl
HETATM   23  C   UNL     1      23.205  45.458  49.236  1.00  0.00     0.043 A 
BRANCH  18  24
HETATM   24  O   UNL     1      23.914  49.078  49.405  1.00  0.00    -0.360 OA
HETATM   25  H   UNL     1      24.373  49.528  50.148  1.00  0.00     0.217 HD
ENDBRANCH  18  24
ENDBRANCH   2  17
TORSDOF 3
ENDMDL
MODEL 9
REMARK VINA RESULT:      -6.9     16.398     19.292
REMARK  3 active torsions:
REMARK  status: ('A' for Active; 'I' for Inactive)
REMARK    1  A    between atoms: C_11  and  N_12 
REMARK       I    between atoms: N_12  and  C_13 
REMARK    2  A    between atoms: C_13  and  C_14 
REMARK    3  A    between atoms: C_15  and  O_16 
ROOT
HETATM    1  N   UNL     1      39.890  46.615  64.726  1.00  0.00    -0.352 N 
HETATM    2  C   UNL     1      40.452  45.602  63.968  1.00  0.00     0.254 C 
HETATM    3  O   UNL     1      41.613  45.609  63.575  1.00  0.00    -0.268 OA
HETATM    4  H   UNL     1      38.887  46.566  64.857  1.00  0.00     0.163 HD
ENDROOT
BRANCH   1   5
HETATM    5  C   UNL     1      40.526  47.910  64.947  1.00  0.00     0.089 C 
HETATM    6  C   UNL     1      41.264  48.105  66.279  1.00  0.00     0.063 C 
HETATM    7  C   UNL     1      40.368  48.194  67.518  1.00  0.00     0.121 C 
HETATM    8  N   UNL     1      39.275  49.216  67.271  1.00  0.00    -0.059 N 
HETATM    9  C   UNL     1      39.756  46.863  67.967  1.00  0.00     0.046 C 
HETATM   10  C   UNL     1      41.199  48.736  68.701  1.00  0.00     0.046 C 
HETATM   11  C   UNL     1      38.538  49.248  65.949  1.00  0.00     0.121 C 
HETATM   12  H   UNL     1      39.703  50.144  67.403  1.00  0.00     0.279 HD
HETATM   13  H   UNL     1      38.587  49.149  68.036  1.00  0.00     0.279 HD
HETATM   14  C   UNL     1      37.390  48.230  65.962  1.00  0.00     0.046 C 
HETATM   15  C   UNL     1      37.904  50.651  65.849  1.00  0.00     0.046 C 
HETATM   16  C   UNL     1      39.520  49.056  64.777  1.00  0.00     0.063 C 
ENDBRANCH   1   5
BRANCH   2  17
HETATM   17  C   UNL     1      39.625  44.390  63.738  1.00  0.00     0.066 A 
HETATM   18  C   UNL     1      38.279  44.550  63.375  1.00  0.00     0.081 A 
HETATM   19  C   UNL     1      37.489  43.446  63.066  1.00  0.00     0.039 A 
HETATM   20  C   UNL     1      38.032  42.164  63.146  1.00  0.00     0.026 A 
HETATM   21  C   UNL     1      39.358  41.997  63.541  1.00  0.00     0.035 A 
HETATM   22 CL   UNL     1      40.025  40.416  63.651  1.00  0.00    -0.084 Cl
HETATM   23  C   UNL     1      40.159  43.101  63.842  1.00  0.00     0.043 A 
BRANCH  18  24
HETATM   24  O   UNL     1      37.674  45.776  63.288  1.00  0.00    -0.360 OA
HETATM   25  H   UNL     1      38.188  46.408  63.837  1.00  0.00     0.217 HD
ENDBRANCH  18  24
ENDBRANCH   2  17
TORSDOF 3
ENDMDL
MODEL 10
REMARK VINA RESULT:      -6.9      6.555      9.385
REMARK  3 active torsions:
REMARK  status: ('A' for Active; 'I' for Inactive)
REMARK    1  A    between atoms: C_11  and  N_12 
REMARK       I    between atoms: N_12  and  C_13 
REMARK    2  A    between atoms: C_13  and  C_14 
REMARK    3  A    between atoms: C_15  and  O_16 
ROOT
HETATM    1  N   UNL     1      21.113  49.582  48.149  1.00  0.00    -0.352 N 
HETATM    2  C   UNL     1      22.428  49.252  47.869  1.00  0.00     0.254 C 
HETATM    3  O   UNL     1      23.202  49.988  47.267  1.00  0.00    -0.268 OA
HETATM    4  H   UNL     1      20.536  48.833  48.514  1.00  0.00     0.163 HD
ENDROOT
BRANCH   1   5
HETATM    5  C   UNL     1      20.423  50.728  47.564  1.00  0.00     0.089 C 
HETATM    6  C   UNL     1      19.767  51.717  48.538  1.00  0.00     0.063 C 
HETATM    7  C   UNL     1      18.532  51.190  49.275  1.00  0.00     0.121 C 
HETATM    8  N   UNL     1      17.566  50.595  48.267  1.00  0.00    -0.059 N 
HETATM    9  C   UNL     1      18.827  50.178  50.386  1.00  0.00     0.046 C 
HETATM   10  C   UNL     1      17.790  52.378  49.924  1.00  0.00     0.046 C 
HETATM   11  C   UNL     1      18.072  49.703  47.153  1.00  0.00     0.121 C 
HETATM   12  H   UNL     1      17.076  51.386  47.824  1.00  0.00     0.279 HD
HETATM   13  H   UNL     1      16.823  50.100  48.782  1.00  0.00     0.279 HD
HETATM   14  C   UNL     1      18.215  48.261  47.658  1.00  0.00     0.046 C 
HETATM   15  C   UNL     1      16.968  49.702  46.075  1.00  0.00     0.046 C 
HETATM   16  C   UNL     1      19.367  50.275  46.546  1.00  0.00     0.063 C 
ENDBRANCH   1   5
BRANCH   2  17
HETATM   17  C   UNL     1      22.948  47.988  48.449  1.00  0.00     0.066 A 
HETATM   18  C   UNL     1      24.063  48.044  49.300  1.00  0.00     0.081 A 
HETATM   19  C   UNL     1      24.533  46.897  49.934  1.00  0.00     0.039 A 
HETATM   20  C   UNL     1      23.906  45.673  49.702  1.00  0.00     0.026 A 
HETATM   21  C   UNL     1      22.821  45.606  48.829  1.00  0.00     0.035 A 
HETATM   22 CL   UNL     1      22.055  44.095  48.532  1.00  0.00    -0.084 Cl
HETATM   23  C   UNL     1      22.338  46.754  48.198  1.00  0.00     0.043 A 
BRANCH  18  24
HETATM   24  O   UNL     1      24.736  49.206  49.565  1.00  0.00    -0.360 OA
HETATM   25  H   UNL     1      24.533  49.847  48.849  1.00  0.00     0.217 HD
ENDBRANCH  18  24
ENDBRANCH   2  17
TORSDOF 3
ENDMDL
