MODEL 1
REMARK VINA RESULT:      -8.2      0.000      0.000
REMARK  11 active torsions:
REMARK  status: ('A' for Active; 'I' for Inactive)
REMARK    1  A    between atoms: C_2  and  O_3 
REMARK    2  A    between atoms: O_3  and  C_4 
REMARK    3  A    between atoms: C_5  and  O_6 
REMARK    4  A    between atoms: C_9  and  C_10 
REMARK    5  A    between atoms: N_11  and  C_12 
REMARK    6  A    between atoms: C_12  and  C_13 
REMARK    7  A    between atoms: C_13  and  C_14 
REMARK    8  A    between atoms: C_14  and  N_15 
REMARK    9  A    between atoms: C_27  and  O_28 
REMARK   10  A    between atoms: C_27  and  C_29 
REMARK   11  A    between atoms: C_30  and  C_31 
ROOT
HETATM    1  C   UNL     1      25.968  42.905  51.331  1.00  0.00     0.161 C 
HETATM    2  N   UNL     1      24.813  42.383  50.595  1.00  0.00    -0.332 N 
HETATM    3  C   UNL     1      25.156  41.486  49.611  1.00  0.00     0.295 C 
HETATM    4  O   UNL     1      24.395  40.939  48.836  1.00  0.00    -0.264 OA
HETATM    5  C   UNL     1      27.118  42.034  50.892  1.00  0.00     0.058 C 
HETATM    6  C   UNL     1      26.675  41.308  49.683  1.00  0.00     0.250 C 
HETATM    7  O   UNL     1      27.356  40.675  48.909  1.00  0.00    -0.282 OA
HETATM    8  C   UNL     1      28.263  41.711  51.511  1.00  0.00     0.078 C 
ENDROOT
BRANCH   1   9
HETATM    9  C   UNL     1      26.171  44.382  51.027  1.00  0.00    -0.028 A 
HETATM   10  C   UNL     1      26.707  44.761  49.784  1.00  0.00     0.012 A 
HETATM   11  C   UNL     1      26.932  46.104  49.486  1.00  0.00     0.040 A 
HETATM   12  C   UNL     1      26.642  47.073  50.436  1.00  0.00     0.099 A 
HETATM   13  C   UNL     1      26.119  46.737  51.685  1.00  0.00     0.102 A 
HETATM   14  C   UNL     1      25.856  45.394  51.966  1.00  0.00     0.049 A 
BRANCH  12  15
HETATM   15  O   UNL     1      26.894  48.379  50.118  1.00  0.00    -0.358 OA
HETATM   16  H   UNL     1      26.911  48.863  50.966  1.00  0.00     0.218 HD
ENDBRANCH  12  15
BRANCH  13  17
HETATM   17  O   UNL     1      25.915  47.794  52.532  1.00  0.00    -0.349 OA
BRANCH  17  18
HETATM   18  C   UNL     1      25.799  47.504  53.923  1.00  0.00     0.171 C 
HETATM   19  C   UNL     1      27.122  47.836  54.588  1.00  0.00     0.034 C 
ENDBRANCH  17  18
ENDBRANCH  13  17
ENDBRANCH   1   9
BRANCH   2  20
HETATM   20  C   UNL     1      23.442  42.650  50.998  1.00  0.00     0.129 C 
BRANCH  20  21
HETATM   21  C   UNL     1      22.557  43.279  49.920  1.00  0.00     0.048 C 
BRANCH  21  22
HETATM   22  C   UNL     1      23.128  44.462  49.135  1.00  0.00     0.236 C 
BRANCH  22  23
HETATM   23  N   UNL     1      22.295  44.896  47.962  1.00  0.00    -0.067 N 
HETATM   24  H   UNL     1      21.386  44.392  48.021  1.00  0.00     0.280 HD
HETATM   25  C   UNL     1      22.034  46.389  47.871  1.00  0.00     0.261 C 
HETATM   26  C   UNL     1      21.178  46.698  46.637  1.00  0.00     0.195 C 
HETATM   27  O   UNL     1      21.805  46.219  45.442  1.00  0.00    -0.388 OA
HETATM   28  C   UNL     1      21.979  44.797  45.478  1.00  0.00     0.195 C 
HETATM   29  C   UNL     1      22.891  44.395  46.641  1.00  0.00     0.261 C 
ENDBRANCH  22  23
ENDBRANCH  21  22
ENDBRANCH  20  21
ENDBRANCH   2  20
BRANCH   8  30
HETATM   30  O   UNL     1      29.174  40.814  50.987  1.00  0.00    -0.360 OA
HETATM   31  H   UNL     1      28.966  39.903  51.279  1.00  0.00     0.217 HD
ENDBRANCH   8  30
BRANCH   8  32
HETATM   32  C   UNL     1      28.622  42.214  52.825  1.00  0.00     0.038 C 
HETATM   33  C   UNL     1      29.138  43.432  53.059  1.00  0.00     0.014 C 
BRANCH  33  34
HETATM   34  C   UNL     1      29.627  43.812  54.386  1.00  0.00    -0.036 A 
HETATM   35  C   UNL     1      30.613  43.027  54.995  1.00  0.00     0.011 A 
HETATM   36  C   UNL     1      31.083  43.347  56.270  1.00  0.00     0.001 A 
HETATM   37  C   UNL     1      30.575  44.459  56.939  1.00  0.00     0.000 A 
HETATM   38  C   UNL     1      29.599  45.251  56.334  1.00  0.00     0.001 A 
HETATM   39  C   UNL     1      29.124  44.929  55.060  1.00  0.00     0.011 A 
ENDBRANCH  33  34
ENDBRANCH   8  32
TORSDOF 11
ENDMDL
MODEL 2
REMARK VINA RESULT:      -8.2      3.507      9.565
REMARK  11 active torsions:
REMARK  status: ('A' for Active; 'I' for Inactive)
REMARK    1  A    between atoms: C_2  and  O_3 
REMARK    2  A    between atoms: O_3  and  C_4 
REMARK    3  A    between atoms: C_5  and  O_6 
REMARK    4  A    between atoms: C_9  and  C_10 
REMARK    5  A    between atoms: N_11  and  C_12 
REMARK    6  A    between atoms: C_12  and  C_13 
REMARK    7  A    between atoms: C_13  and  C_14 
REMARK    8  A    between atoms: C_14  and  N_15 
REMARK    9  A    between atoms: C_27  and  O_28 
REMARK   10  A    between atoms: C_27  and  C_29 
REMARK   11  A    between atoms: C_30  and  C_31 
ROOT
HETATM    1  C   UNL     1      23.912  47.983  49.717  1.00  0.00     0.161 C 
HETATM    2  N   UNL     1      25.193  47.725  50.381  1.00  0.00    -0.332 N 
HETATM    3  C   UNL     1      26.263  48.312  49.746  1.00  0.00     0.295 C 
HETATM    4  O   UNL     1      27.432  48.221  50.070  1.00  0.00    -0.264 OA
HETATM    5  C   UNL     1      24.227  49.052  48.700  1.00  0.00     0.058 C 
HETATM    6  C   UNL     1      25.698  49.101  48.563  1.00  0.00     0.250 C 
HETATM    7  O   UNL     1      26.343  49.668  47.710  1.00  0.00    -0.282 OA
HETATM    8  C   UNL     1      23.448  49.991  48.142  1.00  0.00     0.078 C 
ENDROOT
BRANCH   1   9
HETATM    9  C   UNL     1      23.360  46.704  49.107  1.00  0.00    -0.028 A 
HETATM   10  C   UNL     1      21.999  46.640  48.758  1.00  0.00     0.012 A 
HETATM   11  C   UNL     1      21.456  45.472  48.225  1.00  0.00     0.040 A 
HETATM   12  C   UNL     1      22.264  44.357  48.056  1.00  0.00     0.099 A 
HETATM   13  C   UNL     1      23.616  44.377  48.399  1.00  0.00     0.102 A 
HETATM   14  C   UNL     1      24.168  45.561  48.895  1.00  0.00     0.049 A 
BRANCH  12  15
HETATM   15  O   UNL     1      21.694  43.222  47.549  1.00  0.00    -0.358 OA
HETATM   16  H   UNL     1      21.938  42.502  48.162  1.00  0.00     0.218 HD
ENDBRANCH  12  15
BRANCH  13  17
HETATM   17  O   UNL     1      24.281  43.195  48.209  1.00  0.00    -0.349 OA
BRANCH  17  18
HETATM   18  C   UNL     1      25.277  42.843  49.167  1.00  0.00     0.171 C 
HETATM   19  C   UNL     1      24.578  42.462  50.459  1.00  0.00     0.034 C 
ENDBRANCH  17  18
ENDBRANCH  13  17
ENDBRANCH   1   9
BRANCH   2  20
HETATM   20  C   UNL     1      25.285  47.072  51.677  1.00  0.00     0.129 C 
BRANCH  20  21
HETATM   21  C   UNL     1      26.144  45.806  51.709  1.00  0.00     0.048 C 
BRANCH  21  22
HETATM   22  C   UNL     1      26.221  45.036  53.029  1.00  0.00     0.236 C 
BRANCH  22  23
HETATM   23  N   UNL     1      27.549  44.384  53.297  1.00  0.00    -0.067 N 
HETATM   24  H   UNL     1      28.197  44.671  52.534  1.00  0.00     0.280 HD
HETATM   25  C   UNL     1      28.175  44.720  54.639  1.00  0.00     0.261 C 
HETATM   26  C   UNL     1      29.518  43.995  54.787  1.00  0.00     0.195 C 
HETATM   27  O   UNL     1      29.358  42.580  54.642  1.00  0.00    -0.388 OA
HETATM   28  C   UNL     1      28.848  42.242  53.346  1.00  0.00     0.195 C 
HETATM   29  C   UNL     1      27.464  42.862  53.133  1.00  0.00     0.261 C 
ENDBRANCH  22  23
ENDBRANCH  21  22
ENDBRANCH  20  21
ENDBRANCH   2  20
BRANCH   8  30
HETATM   30  O   UNL     1      23.935  50.957  47.282  1.00  0.00    -0.360 OA
HETATM   31  H   UNL     1      23.427  51.789  47.377  1.00  0.00     0.217 HD
ENDBRANCH   8  30
BRANCH   8  32
HETATM   32  C   UNL     1      22.035  50.131  48.446  1.00  0.00     0.038 C 
HETATM   33  C   UNL     1      21.362  51.292  48.414  1.00  0.00     0.014 C 
BRANCH  33  34
HETATM   34  C   UNL     1      19.980  51.387  48.890  1.00  0.00    -0.036 A 
HETATM   35  C   UNL     1      19.488  50.395  49.746  1.00  0.00     0.011 A 
HETATM   36  C   UNL     1      18.168  50.442  50.197  1.00  0.00     0.001 A 
HETATM   37  C   UNL     1      17.335  51.486  49.801  1.00  0.00     0.000 A 
HETATM   38  C   UNL     1      17.821  52.485  48.955  1.00  0.00     0.001 A 
HETATM   39  C   UNL     1      19.141  52.435  48.500  1.00  0.00     0.011 A 
ENDBRANCH  33  34
ENDBRANCH   8  32
TORSDOF 11
ENDMDL
MODEL 3
REMARK VINA RESULT:      -8.1      3.626      9.899
REMARK  11 active torsions:
REMARK  status: ('A' for Active; 'I' for Inactive)
REMARK    1  A    between atoms: C_2  and  O_3 
REMARK    2  A    between atoms: O_3  and  C_4 
REMARK    3  A    between atoms: C_5  and  O_6 
REMARK    4  A    between atoms: C_9  and  C_10 
REMARK    5  A    between atoms: N_11  and  C_12 
REMARK    6  A    between atoms: C_12  and  C_13 
REMARK    7  A    between atoms: C_13  and  C_14 
REMARK    8  A    between atoms: C_14  and  N_15 
REMARK    9  A    between atoms: C_27  and  O_28 
REMARK   10  A    between atoms: C_27  and  C_29 
REMARK   11  A    between atoms: C_30  and  C_31 
ROOT
HETATM    1  C   UNL     1      23.995  47.996  49.681  1.00  0.00     0.161 C 
HETATM    2  N   UNL     1      25.301  47.535  50.160  1.00  0.00    -0.332 N 
HETATM    3  C   UNL     1      26.359  48.141  49.522  1.00  0.00     0.295 C 
HETATM    4  O   UNL     1      27.539  47.911  49.705  1.00  0.00    -0.264 OA
HETATM    5  C   UNL     1      24.313  49.195  48.823  1.00  0.00     0.058 C 
HETATM    6  C   UNL     1      25.764  49.158  48.546  1.00  0.00     0.250 C 
HETATM    7  O   UNL     1      26.379  49.812  47.735  1.00  0.00    -0.282 OA
HETATM    8  C   UNL     1      23.575  50.271  48.507  1.00  0.00     0.078 C 
ENDROOT
BRANCH   1   9
HETATM    9  C   UNL     1      23.277  46.883  48.932  1.00  0.00    -0.028 A 
HETATM   10  C   UNL     1      23.726  45.558  49.075  1.00  0.00     0.012 A 
HETATM   11  C   UNL     1      23.109  44.519  48.380  1.00  0.00     0.040 A 
HETATM   12  C   UNL     1      22.055  44.801  47.525  1.00  0.00     0.099 A 
HETATM   13  C   UNL     1      21.586  46.103  47.348  1.00  0.00     0.102 A 
HETATM   14  C   UNL     1      22.180  47.137  48.076  1.00  0.00     0.049 A 
BRANCH  12  15
HETATM   15  O   UNL     1      21.485  43.761  46.843  1.00  0.00    -0.358 OA
HETATM   16  H   UNL     1      20.533  43.969  46.784  1.00  0.00     0.218 HD
ENDBRANCH  12  15
BRANCH  13  17
HETATM   17  O   UNL     1      20.563  46.235  46.447  1.00  0.00    -0.349 OA
BRANCH  17  18
HETATM   18  C   UNL     1      19.293  46.639  46.955  1.00  0.00     0.171 C 
HETATM   19  C   UNL     1      19.033  48.064  46.502  1.00  0.00     0.034 C 
ENDBRANCH  17  18
ENDBRANCH  13  17
ENDBRANCH   1   9
BRANCH   2  20
HETATM   20  C   UNL     1      25.449  46.668  51.317  1.00  0.00     0.129 C 
BRANCH  20  21
HETATM   21  C   UNL     1      25.756  47.384  52.634  1.00  0.00     0.048 C 
BRANCH  21  22
HETATM   22  C   UNL     1      25.940  46.521  53.884  1.00  0.00     0.236 C 
BRANCH  22  23
HETATM   23  N   UNL     1      27.356  46.091  54.145  1.00  0.00    -0.067 N 
HETATM   24  H   UNL     1      27.945  46.476  53.378  1.00  0.00     0.280 HD
HETATM   25  C   UNL     1      27.928  46.528  55.483  1.00  0.00     0.261 C 
HETATM   26  C   UNL     1      29.371  46.027  55.624  1.00  0.00     0.195 C 
HETATM   27  O   UNL     1      29.438  44.604  55.483  1.00  0.00    -0.388 OA
HETATM   28  C   UNL     1      28.982  44.185  54.192  1.00  0.00     0.195 C 
HETATM   29  C   UNL     1      27.515  44.574  53.986  1.00  0.00     0.261 C 
ENDBRANCH  22  23
ENDBRANCH  21  22
ENDBRANCH  20  21
ENDBRANCH   2  20
BRANCH   8  30
HETATM   30  O   UNL     1      24.068  51.330  47.769  1.00  0.00    -0.360 OA
HETATM   31  H   UNL     1      24.094  52.144  48.311  1.00  0.00     0.217 HD
ENDBRANCH   8  30
BRANCH   8  32
HETATM   32  C   UNL     1      22.213  50.461  48.972  1.00  0.00     0.038 C 
HETATM   33  C   UNL     1      21.191  50.851  48.195  1.00  0.00     0.014 C 
BRANCH  33  34
HETATM   34  C   UNL     1      19.881  51.181  48.762  1.00  0.00    -0.036 A 
HETATM   35  C   UNL     1      19.252  50.252  49.599  1.00  0.00     0.011 A 
HETATM   36  C   UNL     1      17.992  50.525  50.135  1.00  0.00     0.001 A 
HETATM   37  C   UNL     1      17.359  51.732  49.844  1.00  0.00     0.000 A 
HETATM   38  C   UNL     1      17.985  52.667  49.019  1.00  0.00     0.001 A 
HETATM   39  C   UNL     1      19.243  52.393  48.477  1.00  0.00     0.011 A 
ENDBRANCH  33  34
ENDBRANCH   8  32
TORSDOF 11
ENDMDL
MODEL 4
REMARK VINA RESULT:      -7.9      3.426      9.438
REMARK  11 active torsions:
REMARK  status: ('A' for Active; 'I' for Inactive)
REMARK    1  A    between atoms: C_2  and  O_3 
REMARK    2  A    between atoms: O_3  and  C_4 
REMARK    3  A    between atoms: C_5  and  O_6 
REMARK    4  A    between atoms: C_9  and  C_10 
REMARK    5  A    between atoms: N_11  and  C_12 
REMARK    6  A    between atoms: C_12  and  C_13 
REMARK    7  A    between atoms: C_13  and  C_14 
REMARK    8  A    between atoms: C_14  and  N_15 
REMARK    9  A    between atoms: C_27  and  O_28 
REMARK   10  A    between atoms: C_27  and  C_29 
REMARK   11  A    between atoms: C_30  and  C_31 
ROOT
HETATM    1  C   UNL     1      23.950  47.866  49.831  1.00  0.00     0.161 C 
HETATM    2  N   UNL     1      25.240  47.630  50.487  1.00  0.00    -0.332 N 
HETATM    3  C   UNL     1      26.300  48.203  49.825  1.00  0.00     0.295 C 
HETATM    4  O   UNL     1      27.472  48.125  50.137  1.00  0.00    -0.264 OA
HETATM    5  C   UNL     1      24.249  48.907  48.782  1.00  0.00     0.058 C 
HETATM    6  C   UNL     1      25.718  48.958  48.627  1.00  0.00     0.250 C 
HETATM    7  O   UNL     1      26.351  49.504  47.752  1.00  0.00    -0.282 OA
HETATM    8  C   UNL     1      23.461  49.829  48.208  1.00  0.00     0.078 C 
ENDROOT
BRANCH   1   9
HETATM    9  C   UNL     1      23.396  46.568  49.262  1.00  0.00    -0.028 A 
HETATM   10  C   UNL     1      24.286  45.562  48.849  1.00  0.00     0.012 A 
HETATM   11  C   UNL     1      23.811  44.374  48.296  1.00  0.00     0.040 A 
HETATM   12  C   UNL     1      22.445  44.193  48.136  1.00  0.00     0.099 A 
HETATM   13  C   UNL     1      21.529  45.172  48.524  1.00  0.00     0.102 A 
HETATM   14  C   UNL     1      22.006  46.345  49.115  1.00  0.00     0.049 A 
BRANCH  12  15
HETATM   15  O   UNL     1      22.014  43.025  47.572  1.00  0.00    -0.358 OA
HETATM   16  H   UNL     1      21.324  43.276  46.928  1.00  0.00     0.218 HD
ENDBRANCH  12  15
BRANCH  13  17
HETATM   17  O   UNL     1      20.216  44.870  48.274  1.00  0.00    -0.349 OA
BRANCH  17  18
HETATM   18  C   UNL     1      19.605  45.492  47.146  1.00  0.00     0.171 C 
HETATM   19  C   UNL     1      18.631  44.505  46.530  1.00  0.00     0.034 C 
ENDBRANCH  17  18
ENDBRANCH  13  17
ENDBRANCH   1   9
BRANCH   2  20
HETATM   20  C   UNL     1      25.349  47.012  51.799  1.00  0.00     0.129 C 
BRANCH  20  21
HETATM   21  C   UNL     1      26.020  45.638  51.818  1.00  0.00     0.048 C 
BRANCH  21  22
HETATM   22  C   UNL     1      25.359  44.538  52.651  1.00  0.00     0.236 C 
BRANCH  22  23
HETATM   23  N   UNL     1      25.958  43.170  52.471  1.00  0.00    -0.067 N 
HETATM   24  H   UNL     1      25.382  42.503  53.024  1.00  0.00     0.280 HD
HETATM   25  C   UNL     1      26.043  42.687  51.034  1.00  0.00     0.261 C 
HETATM   26  C   UNL     1      26.670  41.288  50.988  1.00  0.00     0.195 C 
HETATM   27  O   UNL     1      27.963  41.283  51.604  1.00  0.00    -0.388 OA
HETATM   28  C   UNL     1      27.885  41.654  52.985  1.00  0.00     0.195 C 
HETATM   29  C   UNL     1      27.339  43.077  53.131  1.00  0.00     0.261 C 
ENDBRANCH  22  23
ENDBRANCH  21  22
ENDBRANCH  20  21
ENDBRANCH   2  20
BRANCH   8  30
HETATM   30  O   UNL     1      23.934  50.773  47.317  1.00  0.00    -0.360 OA
HETATM   31  H   UNL     1      23.650  50.558  46.405  1.00  0.00     0.217 HD
ENDBRANCH   8  30
BRANCH   8  32
HETATM   32  C   UNL     1      22.051  49.972  48.524  1.00  0.00     0.038 C 
HETATM   33  C   UNL     1      21.346  51.103  48.364  1.00  0.00     0.014 C 
BRANCH  33  34
HETATM   34  C   UNL     1      19.972  51.224  48.856  1.00  0.00    -0.036 A 
HETATM   35  C   UNL     1      19.243  52.380  48.555  1.00  0.00     0.011 A 
HETATM   36  C   UNL     1      17.940  52.537  49.030  1.00  0.00     0.001 A 
HETATM   37  C   UNL     1      17.356  51.535  49.802  1.00  0.00     0.000 A 
HETATM   38  C   UNL     1      18.074  50.375  50.099  1.00  0.00     0.001 A 
HETATM   39  C   UNL     1      19.380  50.219  49.628  1.00  0.00     0.011 A 
ENDBRANCH  33  34
ENDBRANCH   8  32
TORSDOF 11
ENDMDL
MODEL 5
REMARK VINA RESULT:      -7.6      2.965      5.807
REMARK  11 active torsions:
REMARK  status: ('A' for Active; 'I' for Inactive)
REMARK    1  A    between atoms: C_2  and  O_3 
REMARK    2  A    between atoms: O_3  and  C_4 
REMARK    3  A    between atoms: C_5  and  O_6 
REMARK    4  A    between atoms: C_9  and  C_10 
REMARK    5  A    between atoms: N_11  and  C_12 
REMARK    6  A    between atoms: C_12  and  C_13 
REMARK    7  A    between atoms: C_13  and  C_14 
REMARK    8  A    between atoms: C_14  and  N_15 
REMARK    9  A    between atoms: C_27  and  O_28 
REMARK   10  A    between atoms: C_27  and  C_29 
REMARK   11  A    between atoms: C_30  and  C_31 
ROOT
HETATM    1  C   UNL     1      26.187  44.590  50.946  1.00  0.00     0.161 C 
HETATM    2  N   UNL     1      25.895  46.010  51.164  1.00  0.00    -0.332 N 
HETATM    3  C   UNL     1      25.637  46.316  52.480  1.00  0.00     0.295 C 
HETATM    4  O   UNL     1      25.332  47.407  52.920  1.00  0.00    -0.264 OA
HETATM    5  C   UNL     1      26.359  44.025  52.334  1.00  0.00     0.058 C 
HETATM    6  C   UNL     1      25.812  45.022  53.278  1.00  0.00     0.250 C 
HETATM    7  O   UNL     1      25.570  44.871  54.454  1.00  0.00    -0.282 OA
HETATM    8  C   UNL     1      27.058  42.967  52.771  1.00  0.00     0.078 C 
ENDROOT
BRANCH   1   9
HETATM    9  C   UNL     1      25.068  43.931  50.153  1.00  0.00    -0.028 A 
HETATM   10  C   UNL     1      25.375  42.876  49.276  1.00  0.00     0.012 A 
HETATM   11  C   UNL     1      24.376  42.271  48.514  1.00  0.00     0.040 A 
HETATM   12  C   UNL     1      23.071  42.730  48.609  1.00  0.00     0.099 A 
HETATM   13  C   UNL     1      22.727  43.781  49.460  1.00  0.00     0.102 A 
HETATM   14  C   UNL     1      23.722  44.359  50.254  1.00  0.00     0.049 A 
BRANCH  12  15
HETATM   15  O   UNL     1      22.120  42.128  47.833  1.00  0.00    -0.358 OA
HETATM   16  H   UNL     1      22.604  41.530  47.231  1.00  0.00     0.218 HD
ENDBRANCH  12  15
BRANCH  13  17
HETATM   17  O   UNL     1      21.408  44.149  49.425  1.00  0.00    -0.349 OA
BRANCH  17  18
HETATM   18  C   UNL     1      21.055  45.236  48.573  1.00  0.00     0.171 C 
HETATM   19  C   UNL     1      19.544  45.259  48.436  1.00  0.00     0.034 C 
ENDBRANCH  17  18
ENDBRANCH  13  17
ENDBRANCH   1   9
BRANCH   2  20
HETATM   20  C   UNL     1      26.050  47.010  50.121  1.00  0.00     0.129 C 
BRANCH  20  21
HETATM   21  C   UNL     1      24.751  47.665  49.647  1.00  0.00     0.048 C 
BRANCH  21  22
HETATM   22  C   UNL     1      24.860  48.993  48.894  1.00  0.00     0.236 C 
BRANCH  22  23
HETATM   23  N   UNL     1      23.556  49.517  48.359  1.00  0.00    -0.067 N 
HETATM   24  H   UNL     1      23.757  49.981  47.449  1.00  0.00     0.280 HD
HETATM   25  C   UNL     1      22.472  48.472  48.160  1.00  0.00     0.261 C 
HETATM   26  C   UNL     1      21.201  49.133  47.613  1.00  0.00     0.195 C 
HETATM   27  O   UNL     1      20.748  50.175  48.484  1.00  0.00    -0.388 OA
HETATM   28  C   UNL     1      21.728  51.212  48.613  1.00  0.00     0.195 C 
HETATM   29  C   UNL     1      23.018  50.660  49.227  1.00  0.00     0.261 C 
ENDBRANCH  22  23
ENDBRANCH  21  22
ENDBRANCH  20  21
ENDBRANCH   2  20
BRANCH   8  30
HETATM   30  O   UNL     1      27.175  42.646  54.110  1.00  0.00    -0.360 OA
HETATM   31  H   UNL     1      26.433  42.073  54.393  1.00  0.00     0.217 HD
ENDBRANCH   8  30
BRANCH   8  32
HETATM   32  C   UNL     1      27.820  42.101  51.890  1.00  0.00     0.038 C 
HETATM   33  C   UNL     1      27.402  40.903  51.452  1.00  0.00     0.014 C 
BRANCH  33  34
HETATM   34  C   UNL     1      28.288  40.013  50.699  1.00  0.00    -0.036 A 
HETATM   35  C   UNL     1      28.257  40.050  49.301  1.00  0.00     0.011 A 
HETATM   36  C   UNL     1      29.070  39.196  48.553  1.00  0.00     0.001 A 
HETATM   37  C   UNL     1      29.926  38.307  49.201  1.00  0.00     0.000 A 
HETATM   38  C   UNL     1      29.970  38.271  50.595  1.00  0.00     0.001 A 
HETATM   39  C   UNL     1      29.152  39.122  51.344  1.00  0.00     0.011 A 
ENDBRANCH  33  34
ENDBRANCH   8  32
TORSDOF 11
ENDMDL
MODEL 6
REMARK VINA RESULT:      -7.6      1.583      2.340
REMARK  11 active torsions:
REMARK  status: ('A' for Active; 'I' for Inactive)
REMARK    1  A    between atoms: C_2  and  O_3 
REMARK    2  A    between atoms: O_3  and  C_4 
REMARK    3  A    between atoms: C_5  and  O_6 
REMARK    4  A    between atoms: C_9  and  C_10 
REMARK    5  A    between atoms: N_11  and  C_12 
REMARK    6  A    between atoms: C_12  and  C_13 
REMARK    7  A    between atoms: C_13  and  C_14 
REMARK    8  A    between atoms: C_14  and  N_15 
REMARK    9  A    between atoms: C_27  and  O_28 
REMARK   10  A    between atoms: C_27  and  C_29 
REMARK   11  A    between atoms: C_30  and  C_31 
ROOT
HETATM    1  C   UNL     1      25.466  43.762  51.118  1.00  0.00     0.161 C 
HETATM    2  N   UNL     1      24.411  43.139  50.313  1.00  0.00    -0.332 N 
HETATM    3  C   UNL     1      24.821  41.993  49.672  1.00  0.00     0.295 C 
HETATM    4  O   UNL     1      24.154  41.311  48.917  1.00  0.00    -0.264 OA
HETATM    5  C   UNL     1      26.567  42.731  51.154  1.00  0.00     0.058 C 
HETATM    6  C   UNL     1      26.269  41.742  50.096  1.00  0.00     0.250 C 
HETATM    7  O   UNL     1      27.002  40.883  49.660  1.00  0.00    -0.282 OA
HETATM    8  C   UNL     1      27.535  42.510  52.056  1.00  0.00     0.078 C 
ENDROOT
BRANCH   1   9
HETATM    9  C   UNL     1      25.892  45.088  50.507  1.00  0.00    -0.028 A 
HETATM   10  C   UNL     1      27.189  45.219  49.982  1.00  0.00     0.012 A 
HETATM   11  C   UNL     1      27.619  46.431  49.442  1.00  0.00     0.040 A 
HETATM   12  C   UNL     1      26.762  47.521  49.442  1.00  0.00     0.099 A 
HETATM   13  C   UNL     1      25.471  47.435  49.962  1.00  0.00     0.102 A 
HETATM   14  C   UNL     1      25.028  46.209  50.466  1.00  0.00     0.049 A 
BRANCH  12  15
HETATM   15  O   UNL     1      27.223  48.699  48.923  1.00  0.00    -0.358 OA
HETATM   16  H   UNL     1      26.569  48.970  48.250  1.00  0.00     0.218 HD
ENDBRANCH  12  15
BRANCH  13  17
HETATM   17  O   UNL     1      24.751  48.599  49.925  1.00  0.00    -0.349 OA
BRANCH  17  18
HETATM   18  C   UNL     1      23.714  48.697  48.952  1.00  0.00     0.171 C 
HETATM   19  C   UNL     1      23.113  50.088  49.036  1.00  0.00     0.034 C 
ENDBRANCH  17  18
ENDBRANCH  13  17
ENDBRANCH   1   9
BRANCH   2  20
HETATM   20  C   UNL     1      23.030  43.593  50.346  1.00  0.00     0.129 C 
BRANCH  20  21
HETATM   21  C   UNL     1      22.533  44.261  49.062  1.00  0.00     0.048 C 
BRANCH  21  22
HETATM   22  C   UNL     1      21.113  44.833  49.065  1.00  0.00     0.236 C 
BRANCH  22  23
HETATM   23  N   UNL     1      20.840  45.836  47.979  1.00  0.00    -0.067 N 
HETATM   24  H   UNL     1      21.758  46.113  47.573  1.00  0.00     0.280 HD
HETATM   25  C   UNL     1      19.926  45.351  46.867  1.00  0.00     0.261 C 
HETATM   26  C   UNL     1      19.729  46.462  45.829  1.00  0.00     0.195 C 
HETATM   27  O   UNL     1      19.204  47.647  46.437  1.00  0.00    -0.388 OA
HETATM   28  C   UNL     1      20.099  48.165  47.429  1.00  0.00     0.195 C 
HETATM   29  C   UNL     1      20.299  47.148  48.557  1.00  0.00     0.261 C 
ENDBRANCH  22  23
ENDBRANCH  21  22
ENDBRANCH  20  21
ENDBRANCH   2  20
BRANCH   8  30
HETATM   30  O   UNL     1      28.416  41.449  51.968  1.00  0.00    -0.360 OA
HETATM   31  H   UNL     1      28.531  41.174  51.036  1.00  0.00     0.217 HD
ENDBRANCH   8  30
BRANCH   8  32
HETATM   32  C   UNL     1      27.705  43.319  53.249  1.00  0.00     0.038 C 
HETATM   33  C   UNL     1      28.777  44.088  53.501  1.00  0.00     0.014 C 
BRANCH  33  34
HETATM   34  C   UNL     1      28.956  44.747  54.796  1.00  0.00    -0.036 A 
HETATM   35  C   UNL     1      30.076  44.426  55.572  1.00  0.00     0.011 A 
HETATM   36  C   UNL     1      30.263  45.018  56.822  1.00  0.00     0.001 A 
HETATM   37  C   UNL     1      29.334  45.940  57.300  1.00  0.00     0.000 A 
HETATM   38  C   UNL     1      28.220  46.273  56.529  1.00  0.00     0.001 A 
HETATM   39  C   UNL     1      28.030  45.677  55.280  1.00  0.00     0.011 A 
ENDBRANCH  33  34
ENDBRANCH   8  32
TORSDOF 11
ENDMDL
MODEL 7
REMARK VINA RESULT:      -7.4      7.074     13.182
REMARK  11 active torsions:
REMARK  status: ('A' for Active; 'I' for Inactive)
REMARK    1  A    between atoms: C_2  and  O_3 
REMARK    2  A    between atoms: O_3  and  C_4 
REMARK    3  A    between atoms: C_5  and  O_6 
REMARK    4  A    between atoms: C_9  and  C_10 
REMARK    5  A    between atoms: N_11  and  C_12 
REMARK    6  A    between atoms: C_12  and  C_13 
REMARK    7  A    between atoms: C_13  and  C_14 
REMARK    8  A    between atoms: C_14  and  N_15 
REMARK    9  A    between atoms: C_27  and  O_28 
REMARK   10  A    between atoms: C_27  and  C_29 
REMARK   11  A    between atoms: C_30  and  C_31 
ROOT
HETATM    1  C   UNL     1      17.572  50.639  48.042  1.00  0.00     0.161 C 
HETATM    2  N   UNL     1      18.261  50.398  49.313  1.00  0.00    -0.332 N 
HETATM    3  C   UNL     1      18.069  49.127  49.803  1.00  0.00     0.295 C 
HETATM    4  O   UNL     1      18.498  48.687  50.853  1.00  0.00    -0.264 OA
HETATM    5  C   UNL     1      17.110  49.273  47.602  1.00  0.00     0.058 C 
HETATM    6  C   UNL     1      17.219  48.379  48.774  1.00  0.00     0.250 C 
HETATM    7  O   UNL     1      16.759  47.267  48.902  1.00  0.00    -0.282 OA
HETATM    8  C   UNL     1      16.856  48.782  46.379  1.00  0.00     0.078 C 
ENDROOT
BRANCH   1   9
HETATM    9  C   UNL     1      16.437  51.636  48.231  1.00  0.00    -0.028 A 
HETATM   10  C   UNL     1      15.907  52.295  47.108  1.00  0.00     0.012 A 
HETATM   11  C   UNL     1      14.888  53.235  47.251  1.00  0.00     0.040 A 
HETATM   12  C   UNL     1      14.407  53.535  48.517  1.00  0.00     0.099 A 
HETATM   13  C   UNL     1      14.914  52.910  49.657  1.00  0.00     0.102 A 
HETATM   14  C   UNL     1      15.907  51.938  49.508  1.00  0.00     0.049 A 
BRANCH  12  15
HETATM   15  O   UNL     1      13.421  54.476  48.624  1.00  0.00    -0.358 OA
HETATM   16  H   UNL     1      13.605  55.137  47.928  1.00  0.00     0.218 HD
ENDBRANCH  12  15
BRANCH  13  17
HETATM   17  O   UNL     1      14.368  53.330  50.841  1.00  0.00    -0.349 OA
BRANCH  17  18
HETATM   18  C   UNL     1      14.999  54.425  51.501  1.00  0.00     0.171 C 
HETATM   19  C   UNL     1      13.933  55.211  52.241  1.00  0.00     0.034 C 
ENDBRANCH  17  18
ENDBRANCH  13  17
ENDBRANCH   1   9
BRANCH   2  20
HETATM   20  C   UNL     1      19.198  51.350  49.888  1.00  0.00     0.129 C 
BRANCH  20  21
HETATM   21  C   UNL     1      20.497  51.542  49.102  1.00  0.00     0.048 C 
BRANCH  21  22
HETATM   22  C   UNL     1      21.694  50.671  49.488  1.00  0.00     0.236 C 
BRANCH  22  23
HETATM   23  N   UNL     1      21.610  49.246  49.015  1.00  0.00    -0.067 N 
HETATM   24  H   UNL     1      21.005  48.730  49.686  1.00  0.00     0.280 HD
HETATM   25  C   UNL     1      21.067  49.064  47.608  1.00  0.00     0.261 C 
HETATM   26  C   UNL     1      21.033  47.573  47.248  1.00  0.00     0.195 C 
HETATM   27  O   UNL     1      22.333  46.985  47.371  1.00  0.00    -0.388 OA
HETATM   28  C   UNL     1      22.821  47.074  48.715  1.00  0.00     0.195 C 
HETATM   29  C   UNL     1      22.964  48.538  49.141  1.00  0.00     0.261 C 
ENDBRANCH  22  23
ENDBRANCH  21  22
ENDBRANCH  20  21
ENDBRANCH   2  20
BRANCH   8  30
HETATM   30  O   UNL     1      16.522  47.460  46.154  1.00  0.00    -0.360 OA
HETATM   31  H   UNL     1      17.310  46.887  46.243  1.00  0.00     0.217 HD
ENDBRANCH   8  30
BRANCH   8  32
HETATM   32  C   UNL     1      16.981  49.572  45.167  1.00  0.00     0.038 C 
HETATM   33  C   UNL     1      18.139  50.059  44.693  1.00  0.00     0.014 C 
BRANCH  33  34
HETATM   34  C   UNL     1      18.171  50.983  43.558  1.00  0.00    -0.036 A 
HETATM   35  C   UNL     1      17.312  52.089  43.559  1.00  0.00     0.011 A 
HETATM   36  C   UNL     1      17.300  52.975  42.480  1.00  0.00     0.001 A 
HETATM   37  C   UNL     1      18.151  52.764  41.397  1.00  0.00     0.000 A 
HETATM   38  C   UNL     1      19.016  51.669  41.393  1.00  0.00     0.001 A 
HETATM   39  C   UNL     1      19.026  50.779  42.470  1.00  0.00     0.011 A 
ENDBRANCH  33  34
ENDBRANCH   8  32
TORSDOF 11
ENDMDL
MODEL 8
REMARK VINA RESULT:      -7.4      9.545     13.575
REMARK  11 active torsions:
REMARK  status: ('A' for Active; 'I' for Inactive)
REMARK    1  A    between atoms: C_2  and  O_3 
REMARK    2  A    between atoms: O_3  and  C_4 
REMARK    3  A    between atoms: C_5  and  O_6 
REMARK    4  A    between atoms: C_9  and  C_10 
REMARK    5  A    between atoms: N_11  and  C_12 
REMARK    6  A    between atoms: C_12  and  C_13 
REMARK    7  A    between atoms: C_13  and  C_14 
REMARK    8  A    between atoms: C_14  and  N_15 
REMARK    9  A    between atoms: C_27  and  O_28 
REMARK   10  A    between atoms: C_27  and  C_29 
REMARK   11  A    between atoms: C_30  and  C_31 
ROOT
HETATM    1  C   UNL     1      15.743  52.514  46.948  1.00  0.00     0.161 C 
HETATM    2  N   UNL     1      15.026  53.459  46.087  1.00  0.00    -0.332 N 
HETATM    3  C   UNL     1      14.165  54.280  46.778  1.00  0.00     0.295 C 
HETATM    4  O   UNL     1      13.429  55.120  46.298  1.00  0.00    -0.264 OA
HETATM    5  C   UNL     1      15.452  52.990  48.349  1.00  0.00     0.058 C 
HETATM    6  C   UNL     1      14.317  53.933  48.261  1.00  0.00     0.250 C 
HETATM    7  O   UNL     1      13.649  54.373  49.168  1.00  0.00    -0.282 OA
HETATM    8  C   UNL     1      16.150  52.852  49.487  1.00  0.00     0.078 C 
ENDROOT
BRANCH   1   9
HETATM    9  C   UNL     1      15.280  51.090  46.679  1.00  0.00    -0.028 A 
HETATM   10  C   UNL     1      14.303  50.859  45.695  1.00  0.00     0.012 A 
HETATM   11  C   UNL     1      13.836  49.569  45.445  1.00  0.00     0.040 A 
HETATM   12  C   UNL     1      14.329  48.508  46.190  1.00  0.00     0.099 A 
HETATM   13  C   UNL     1      15.292  48.697  47.182  1.00  0.00     0.102 A 
HETATM   14  C   UNL     1      15.788  49.985  47.402  1.00  0.00     0.049 A 
BRANCH  12  15
HETATM   15  O   UNL     1      13.835  47.259  45.932  1.00  0.00    -0.358 OA
HETATM   16  H   UNL     1      12.978  47.396  45.484  1.00  0.00     0.218 HD
ENDBRANCH  12  15
BRANCH  13  17
HETATM   17  O   UNL     1      15.659  47.564  47.858  1.00  0.00    -0.349 OA
BRANCH  17  18
HETATM   18  C   UNL     1      17.043  47.218  47.851  1.00  0.00     0.171 C 
HETATM   19  C   UNL     1      17.674  47.765  49.118  1.00  0.00     0.034 C 
ENDBRANCH  17  18
ENDBRANCH  13  17
ENDBRANCH   1   9
BRANCH   2  20
HETATM   20  C   UNL     1      15.341  53.627  44.677  1.00  0.00     0.129 C 
BRANCH  20  21
HETATM   21  C   UNL     1      16.822  53.486  44.319  1.00  0.00     0.048 C 
BRANCH  21  22
HETATM   22  C   UNL     1      17.169  52.789  43.002  1.00  0.00     0.236 C 
BRANCH  22  23
HETATM   23  N   UNL     1      17.493  51.327  43.134  1.00  0.00    -0.067 N 
HETATM   24  H   UNL     1      18.191  51.095  42.398  1.00  0.00     0.280 HD
HETATM   25  C   UNL     1      18.035  50.906  44.489  1.00  0.00     0.261 C 
HETATM   26  C   UNL     1      18.323  49.400  44.492  1.00  0.00     0.195 C 
HETATM   27  O   UNL     1      17.149  48.650  44.160  1.00  0.00    -0.388 OA
HETATM   28  C   UNL     1      16.677  48.976  42.847  1.00  0.00     0.195 C 
HETATM   29  C   UNL     1      16.287  50.455  42.766  1.00  0.00     0.261 C 
ENDBRANCH  22  23
ENDBRANCH  21  22
ENDBRANCH  20  21
ENDBRANCH   2  20
BRANCH   8  30
HETATM   30  O   UNL     1      15.769  53.439  50.679  1.00  0.00    -0.360 OA
HETATM   31  H   UNL     1      16.450  54.074  50.982  1.00  0.00     0.217 HD
ENDBRANCH   8  30
BRANCH   8  32
HETATM   32  C   UNL     1      17.411  52.136  49.561  1.00  0.00     0.038 C 
HETATM   33  C   UNL     1      18.531  52.501  48.918  1.00  0.00     0.014 C 
BRANCH  33  34
HETATM   34  C   UNL     1      19.719  51.643  48.906  1.00  0.00    -0.036 A 
HETATM   35  C   UNL     1      20.094  51.021  47.710  1.00  0.00     0.011 A 
HETATM   36  C   UNL     1      21.205  50.177  47.671  1.00  0.00     0.001 A 
HETATM   37  C   UNL     1      21.952  49.958  48.827  1.00  0.00     0.000 A 
HETATM   38  C   UNL     1      21.591  50.583  50.021  1.00  0.00     0.001 A 
HETATM   39  C   UNL     1      20.475  51.424  50.062  1.00  0.00     0.011 A 
ENDBRANCH  33  34
ENDBRANCH   8  32
TORSDOF 11
ENDMDL
MODEL 9
REMARK VINA RESULT:      -7.4      7.128     13.559
REMARK  11 active torsions:
REMARK  status: ('A' for Active; 'I' for Inactive)
REMARK    1  A    between atoms: C_2  and  O_3 
REMARK    2  A    between atoms: O_3  and  C_4 
REMARK    3  A    between atoms: C_5  and  O_6 
REMARK    4  A    between atoms: C_9  and  C_10 
REMARK    5  A    between atoms: N_11  and  C_12 
REMARK    6  A    between atoms: C_12  and  C_13 
REMARK    7  A    between atoms: C_13  and  C_14 
REMARK    8  A    between atoms: C_14  and  N_15 
REMARK    9  A    between atoms: C_27  and  O_28 
REMARK   10  A    between atoms: C_27  and  C_29 
REMARK   11  A    between atoms: C_30  and  C_31 
ROOT
HETATM    1  C   UNL     1      17.674  50.778  48.069  1.00  0.00     0.161 C 
HETATM    2  N   UNL     1      18.475  50.364  49.225  1.00  0.00    -0.332 N 
HETATM    3  C   UNL     1      18.207  49.080  49.640  1.00  0.00     0.295 C 
HETATM    4  O   UNL     1      18.704  48.512  50.593  1.00  0.00    -0.264 OA
HETATM    5  C   UNL     1      17.024  49.505  47.589  1.00  0.00     0.058 C 
HETATM    6  C   UNL     1      17.172  48.508  48.669  1.00  0.00     0.250 C 
HETATM    7  O   UNL     1      16.615  47.438  48.770  1.00  0.00    -0.282 OA
HETATM    8  C   UNL     1      16.582  49.148  46.373  1.00  0.00     0.078 C 
ENDROOT
BRANCH   1   9
HETATM    9  C   UNL     1      16.679  51.858  48.468  1.00  0.00    -0.028 A 
HETATM   10  C   UNL     1      16.679  52.339  49.789  1.00  0.00     0.012 A 
HETATM   11  C   UNL     1      15.761  53.307  50.194  1.00  0.00     0.040 A 
HETATM   12  C   UNL     1      14.827  53.785  49.287  1.00  0.00     0.099 A 
HETATM   13  C   UNL     1      14.788  53.326  47.970  1.00  0.00     0.102 A 
HETATM   14  C   UNL     1      15.735  52.386  47.555  1.00  0.00     0.049 A 
BRANCH  12  15
HETATM   15  O   UNL     1      13.929  54.719  49.723  1.00  0.00    -0.358 OA
HETATM   16  H   UNL     1      13.113  54.567  49.208  1.00  0.00     0.218 HD
ENDBRANCH  12  15
BRANCH  13  17
HETATM   17  O   UNL     1      13.791  53.862  47.198  1.00  0.00    -0.349 OA
BRANCH  17  18
HETATM   18  C   UNL     1      14.164  54.856  46.247  1.00  0.00     0.171 C 
HETATM   19  C   UNL     1      14.076  54.243  44.861  1.00  0.00     0.034 C 
ENDBRANCH  17  18
ENDBRANCH  13  17
ENDBRANCH   1   9
BRANCH   2  20
HETATM   20  C   UNL     1      19.565  51.169  49.750  1.00  0.00     0.129 C 
BRANCH  20  21
HETATM   21  C   UNL     1      20.687  51.476  48.755  1.00  0.00     0.048 C 
BRANCH  21  22
HETATM   22  C   UNL     1      21.030  50.401  47.721  1.00  0.00     0.236 C 
BRANCH  22  23
HETATM   23  N   UNL     1      22.361  49.734  47.930  1.00  0.00    -0.067 N 
HETATM   24  H   UNL     1      22.519  49.094  47.124  1.00  0.00     0.280 HD
HETATM   25  C   UNL     1      23.543  50.678  48.060  1.00  0.00     0.261 C 
HETATM   26  C   UNL     1      24.833  49.875  48.269  1.00  0.00     0.195 C 
HETATM   27  O   UNL     1      24.732  49.027  49.418  1.00  0.00    -0.388 OA
HETATM   28  C   UNL     1      23.673  48.074  49.271  1.00  0.00     0.195 C 
HETATM   29  C   UNL     1      22.323  48.783  49.133  1.00  0.00     0.261 C 
ENDBRANCH  22  23
ENDBRANCH  21  22
ENDBRANCH  20  21
ENDBRANCH   2  20
BRANCH   8  30
HETATM   30  O   UNL     1      16.088  47.888  46.093  1.00  0.00    -0.360 OA
HETATM   31  H   UNL     1      15.231  47.952  45.624  1.00  0.00     0.217 HD
ENDBRANCH   8  30
BRANCH   8  32
HETATM   32  C   UNL     1      16.651  50.023  45.217  1.00  0.00     0.038 C 
HETATM   33  C   UNL     1      17.766  50.264  44.510  1.00  0.00     0.014 C 
BRANCH  33  34
HETATM   34  C   UNL     1      17.799  51.283  43.458  1.00  0.00    -0.036 A 
HETATM   35  C   UNL     1      18.610  51.073  42.337  1.00  0.00     0.011 A 
HETATM   36  C   UNL     1      18.684  52.036  41.329  1.00  0.00     0.001 A 
HETATM   37  C   UNL     1      17.941  53.211  41.434  1.00  0.00     0.000 A 
HETATM   38  C   UNL     1      17.123  53.422  42.544  1.00  0.00     0.001 A 
HETATM   39  C   UNL     1      17.052  52.461  43.556  1.00  0.00     0.011 A 
ENDBRANCH  33  34
ENDBRANCH   8  32
TORSDOF 11
ENDMDL
MODEL 10
REMARK VINA RESULT:      -7.4      3.036      4.958
REMARK  11 active torsions:
REMARK  status: ('A' for Active; 'I' for Inactive)
REMARK    1  A    between atoms: C_2  and  O_3 
REMARK    2  A    between atoms: O_3  and  C_4 
REMARK    3  A    between atoms: C_5  and  O_6 
REMARK    4  A    between atoms: C_9  and  C_10 
REMARK    5  A    between atoms: N_11  and  C_12 
REMARK    6  A    between atoms: C_12  and  C_13 
REMARK    7  A    between atoms: C_13  and  C_14 
REMARK    8  A    between atoms: C_14  and  N_15 
REMARK    9  A    between atoms: C_27  and  O_28 
REMARK   10  A    between atoms: C_27  and  C_29 
REMARK   11  A    between atoms: C_30  and  C_31 
ROOT
HETATM    1  C   UNL     1      22.537  44.876  48.870  1.00  0.00     0.161 C 
HETATM    2  N   UNL     1      21.294  44.719  48.109  1.00  0.00    -0.332 N 
HETATM    3  C   UNL     1      21.452  43.988  46.955  1.00  0.00     0.295 C 
HETATM    4  O   UNL     1      20.592  43.746  46.130  1.00  0.00    -0.264 OA
HETATM    5  C   UNL     1      23.502  43.921  48.213  1.00  0.00     0.058 C 
HETATM    6  C   UNL     1      22.914  43.538  46.912  1.00  0.00     0.250 C 
HETATM    7  O   UNL     1      23.457  42.961  45.998  1.00  0.00    -0.282 OA
HETATM    8  C   UNL     1      24.580  43.288  48.700  1.00  0.00     0.078 C 
ENDROOT
BRANCH   1   9
HETATM    9  C   UNL     1      22.999  46.325  48.844  1.00  0.00    -0.028 A 
HETATM   10  C   UNL     1      22.305  47.254  48.049  1.00  0.00     0.012 A 
HETATM   11  C   UNL     1      22.721  48.583  47.980  1.00  0.00     0.040 A 
HETATM   12  C   UNL     1      23.843  48.985  48.690  1.00  0.00     0.099 A 
HETATM   13  C   UNL     1      24.564  48.092  49.482  1.00  0.00     0.102 A 
HETATM   14  C   UNL     1      24.122  46.770  49.582  1.00  0.00     0.049 A 
BRANCH  12  15
HETATM   15  O   UNL     1      24.235  50.291  48.584  1.00  0.00    -0.358 OA
HETATM   16  H   UNL     1      24.005  50.568  47.676  1.00  0.00     0.218 HD
ENDBRANCH  12  15
BRANCH  13  17
HETATM   17  O   UNL     1      25.668  48.622  50.097  1.00  0.00    -0.349 OA
BRANCH  17  18
HETATM   18  C   UNL     1      26.945  48.185  49.639  1.00  0.00     0.171 C 
HETATM   19  C   UNL     1      27.656  49.371  49.014  1.00  0.00     0.034 C 
ENDBRANCH  17  18
ENDBRANCH  13  17
ENDBRANCH   1   9
BRANCH   2  20
HETATM   20  C   UNL     1      20.001  45.136  48.626  1.00  0.00     0.129 C 
BRANCH  20  21
HETATM   21  C   UNL     1      19.270  46.185  47.784  1.00  0.00     0.048 C 
BRANCH  21  22
HETATM   22  C   UNL     1      18.078  46.900  48.423  1.00  0.00     0.236 C 
BRANCH  22  23
HETATM   23  N   UNL     1      18.335  48.335  48.794  1.00  0.00    -0.067 N 
HETATM   24  H   UNL     1      19.123  48.672  48.205  1.00  0.00     0.280 HD
HETATM   25  C   UNL     1      17.148  49.268  48.625  1.00  0.00     0.261 C 
HETATM   26  C   UNL     1      17.540  50.693  49.035  1.00  0.00     0.195 C 
HETATM   27  O   UNL     1      18.024  50.725  50.382  1.00  0.00    -0.388 OA
HETATM   28  C   UNL     1      19.196  49.916  50.535  1.00  0.00     0.195 C 
HETATM   29  C   UNL     1      18.884  48.450  50.220  1.00  0.00     0.261 C 
ENDBRANCH  22  23
ENDBRANCH  21  22
ENDBRANCH  20  21
ENDBRANCH   2  20
BRANCH   8  30
HETATM   30  O   UNL     1      25.305  42.367  47.967  1.00  0.00    -0.360 OA
HETATM   31  H   UNL     1      26.092  42.789  47.567  1.00  0.00     0.217 HD
ENDBRANCH   8  30
BRANCH   8  32
HETATM   32  C   UNL     1      25.046  43.452  50.065  1.00  0.00     0.038 C 
HETATM   33  C   UNL     1      26.247  43.945  50.405  1.00  0.00     0.014 C 
BRANCH  33  34
HETATM   34  C   UNL     1      26.714  43.929  51.793  1.00  0.00    -0.036 A 
HETATM   35  C   UNL     1      28.079  43.756  52.047  1.00  0.00     0.011 A 
HETATM   36  C   UNL     1      28.554  43.711  53.359  1.00  0.00     0.001 A 
HETATM   37  C   UNL     1      27.665  43.846  54.424  1.00  0.00     0.000 A 
HETATM   38  C   UNL     1      26.304  44.029  54.179  1.00  0.00     0.001 A 
HETATM   39  C   UNL     1      25.828  44.069  52.866  1.00  0.00     0.011 A 
ENDBRANCH  33  34
ENDBRANCH   8  32
TORSDOF 11
ENDMDL
