MODEL 1
REMARK VINA RESULT:     -10.7      0.000      0.000
REMARK  6 active torsions:
REMARK  status: ('A' for Active; 'I' for Inactive)
REMARK    1  A    between atoms: C_2  and  N_3 
REMARK    2  A    between atoms: C_11  and  C_12 
REMARK    3  A    between atoms: C_14  and  C_15 
REMARK    4  A    between atoms: C_15  and  O_16 
REMARK    5  A    between atoms: O_16  and  C_17 
REMARK    6  A    between atoms: C_19  and  C_20 
ROOT
HETATM    1  N   UNL     1      29.987  44.550  56.664  1.00  0.00    -0.067 N 
HETATM    2  H   UNL     1      29.162  44.058  57.031  1.00  0.00     0.280 HD
HETATM    3  C   UNL     1      29.555  46.002  56.461  1.00  0.00     0.281 C 
HETATM    4  C   UNL     1      28.550  46.092  55.364  1.00  0.00     0.018 A 
HETATM    5  C   UNL     1      28.322  45.117  54.411  1.00  0.00    -0.023 A 
HETATM    6  C   UNL     1      27.258  45.495  53.529  1.00  0.00     0.073 A 
HETATM    7  C   UNL     1      26.733  46.721  53.859  1.00  0.00     0.088 A 
HETATM    8  N   UNL     1      25.677  47.270  53.229  1.00  0.00    -0.357 N 
HETATM    9  C   UNL     1      25.257  46.749  51.942  1.00  0.00     0.243 C 
HETATM   10  N   UNL     1      25.628  45.362  51.796  1.00  0.00    -0.330 N 
HETATM   11  C   UNL     1      26.674  44.755  52.428  1.00  0.00     0.256 C 
HETATM   12  O   UNL     1      27.069  43.642  52.096  1.00  0.00    -0.267 OA
HETATM   13  S   UNL     1      27.536  47.446  55.171  1.00  0.00    -0.074 SA
HETATM   14  C   UNL     1      29.084  43.826  54.411  1.00  0.00     0.068 C 
HETATM   15  C   UNL     1      30.324  43.892  55.321  1.00  0.00     0.240 C 
HETATM   16  H   UNL     1      25.494  48.265  53.338  1.00  0.00     0.162 HD
HETATM   17  H   UNL     1      25.247  44.855  51.011  1.00  0.00     0.165 HD
ENDROOT
BRANCH   9  18
HETATM   18  C   UNL     1      25.729  47.544  50.768  1.00  0.00     0.095 A 
HETATM   19  O   UNL     1      24.757  48.249  50.108  1.00  0.00    -0.313 OA
HETATM   20  C   UNL     1      25.356  48.907  49.076  1.00  0.00     0.077 A 
HETATM   21  C   UNL     1      26.707  48.630  49.064  1.00  0.00     0.037 A 
HETATM   22  C   UNL     1      26.949  47.758  50.154  1.00  0.00     0.039 A 
BRANCH  20  23
HETATM   23  C   UNL     1      24.476  49.743  48.216  1.00  0.00     0.240 C 
BRANCH  23  24
HETATM   24  O   UNL     1      23.331  48.945  47.919  1.00  0.00    -0.345 OA
BRANCH  24  25
HETATM   25  C   UNL     1      22.115  49.419  48.326  1.00  0.00     0.070 A 
HETATM   26  C   UNL     1      21.062  48.661  48.839  1.00  0.00     0.052 A 
HETATM   27  C   UNL     1      19.855  49.277  49.225  1.00  0.00     0.050 A 
HETATM   28  C   UNL     1      19.722  50.667  49.084  1.00  0.00     0.016 A 
HETATM   29  C   UNL     1      20.771  51.426  48.571  1.00  0.00     0.004 A 
HETATM   30  C   UNL     1      21.960  50.802  48.195  1.00  0.00     0.037 A 
BRANCH  27  31
HETATM   31  C   UNL     1      18.710  48.468  49.783  1.00  0.00     0.417 C 
HETATM   32  F   UNL     1      17.487  49.010  49.521  1.00  0.00    -0.166 F 
HETATM   33  F   UNL     1      18.672  47.203  49.281  1.00  0.00    -0.166 F 
HETATM   34  F   UNL     1      18.777  48.335  51.136  1.00  0.00    -0.166 F 
ENDBRANCH  27  31
ENDBRANCH  24  25
ENDBRANCH  23  24
ENDBRANCH  20  23
ENDBRANCH   9  18
BRANCH   1  35
HETATM   35  C   UNL     1      31.107  44.390  57.661  1.00  0.00     0.231 C 
HETATM   36  C   UNL     1      32.048  43.272  57.252  1.00  0.00     0.034 C 
ENDBRANCH   1  35
TORSDOF 6
ENDMDL
MODEL 2
REMARK VINA RESULT:      -9.7      5.062     10.747
REMARK  6 active torsions:
REMARK  status: ('A' for Active; 'I' for Inactive)
REMARK    1  A    between atoms: C_2  and  N_3 
REMARK    2  A    between atoms: C_11  and  C_12 
REMARK    3  A    between atoms: C_14  and  C_15 
REMARK    4  A    between atoms: C_15  and  O_16 
REMARK    5  A    between atoms: O_16  and  C_17 
REMARK    6  A    between atoms: C_19  and  C_20 
ROOT
HETATM    1  N   UNL     1      17.829  50.670  48.962  1.00  0.00    -0.067 N 
HETATM    2  H   UNL     1      18.093  50.810  47.977  1.00  0.00     0.280 HD
HETATM    3  C   UNL     1      19.035  51.115  49.788  1.00  0.00     0.281 C 
HETATM    4  C   UNL     1      20.178  50.184  49.574  1.00  0.00     0.018 A 
HETATM    5  C   UNL     1      20.080  48.911  49.044  1.00  0.00    -0.023 A 
HETATM    6  C   UNL     1      21.369  48.297  48.928  1.00  0.00     0.073 A 
HETATM    7  C   UNL     1      22.371  49.130  49.365  1.00  0.00     0.088 A 
HETATM    8  N   UNL     1      23.680  48.817  49.296  1.00  0.00    -0.357 N 
HETATM    9  C   UNL     1      24.079  47.440  49.075  1.00  0.00     0.243 C 
HETATM   10  N   UNL     1      23.055  46.708  48.369  1.00  0.00    -0.330 N 
HETATM   11  C   UNL     1      21.722  46.998  48.389  1.00  0.00     0.256 C 
HETATM   12  O   UNL     1      20.885  46.215  47.952  1.00  0.00    -0.267 OA
HETATM   13  S   UNL     1      21.780  50.608  49.963  1.00  0.00    -0.074 SA
HETATM   14  C   UNL     1      18.764  48.344  48.603  1.00  0.00     0.068 C 
HETATM   15  C   UNL     1      17.577  49.168  49.134  1.00  0.00     0.240 C 
HETATM   16  H   UNL     1      24.348  49.344  49.854  1.00  0.00     0.162 HD
HETATM   17  H   UNL     1      23.290  45.790  48.021  1.00  0.00     0.165 HD
ENDROOT
BRANCH   9  18
HETATM   18  C   UNL     1      24.487  46.706  50.312  1.00  0.00     0.095 A 
HETATM   19  O   UNL     1      25.099  47.469  51.270  1.00  0.00    -0.313 OA
HETATM   20  C   UNL     1      25.401  46.650  52.317  1.00  0.00     0.077 A 
HETATM   21  C   UNL     1      24.991  45.363  52.038  1.00  0.00     0.037 A 
HETATM   22  C   UNL     1      24.398  45.399  50.752  1.00  0.00     0.039 A 
BRANCH  20  23
HETATM   23  C   UNL     1      26.081  47.278  53.482  1.00  0.00     0.240 C 
BRANCH  23  24
HETATM   24  O   UNL     1      26.119  46.284  54.505  1.00  0.00    -0.345 OA
BRANCH  24  25
HETATM   25  C   UNL     1      27.347  45.794  54.856  1.00  0.00     0.070 A 
HETATM   26  C   UNL     1      27.978  44.677  54.306  1.00  0.00     0.052 A 
HETATM   27  C   UNL     1      29.250  44.277  54.758  1.00  0.00     0.050 A 
HETATM   28  C   UNL     1      29.878  45.016  55.774  1.00  0.00     0.016 A 
HETATM   29  C   UNL     1      29.250  46.130  56.325  1.00  0.00     0.004 A 
HETATM   30  C   UNL     1      27.990  46.513  55.865  1.00  0.00     0.037 A 
BRANCH  27  31
HETATM   31  C   UNL     1      29.945  43.073  54.171  1.00  0.00     0.417 C 
HETATM   32  F   UNL     1      31.127  42.779  54.782  1.00  0.00    -0.166 F 
HETATM   33  F   UNL     1      29.190  41.943  54.257  1.00  0.00    -0.166 F 
HETATM   34  F   UNL     1      30.236  43.232  52.851  1.00  0.00    -0.166 F 
ENDBRANCH  27  31
ENDBRANCH  24  25
ENDBRANCH  23  24
ENDBRANCH  20  23
ENDBRANCH   9  18
BRANCH   1  35
HETATM   35  C   UNL     1      16.585  51.480  49.230  1.00  0.00     0.231 C 
HETATM   36  C   UNL     1      16.115  52.192  47.975  1.00  0.00     0.034 C 
ENDBRANCH   1  35
TORSDOF 6
ENDMDL
MODEL 3
REMARK VINA RESULT:      -9.6      4.846     10.553
REMARK  6 active torsions:
REMARK  status: ('A' for Active; 'I' for Inactive)
REMARK    1  A    between atoms: C_2  and  N_3 
REMARK    2  A    between atoms: C_11  and  C_12 
REMARK    3  A    between atoms: C_14  and  C_15 
REMARK    4  A    between atoms: C_15  and  O_16 
REMARK    5  A    between atoms: O_16  and  C_17 
REMARK    6  A    between atoms: C_19  and  C_20 
ROOT
HETATM    1  N   UNL     1      19.779  50.243  47.582  1.00  0.00    -0.067 N 
HETATM    2  H   UNL     1      20.117  49.908  46.670  1.00  0.00     0.280 HD
HETATM    3  C   UNL     1      20.989  50.871  48.274  1.00  0.00     0.281 C 
HETATM    4  C   UNL     1      21.991  49.821  48.612  1.00  0.00     0.018 A 
HETATM    5  C   UNL     1      21.736  48.464  48.667  1.00  0.00    -0.023 A 
HETATM    6  C   UNL     1      22.924  47.725  48.975  1.00  0.00     0.073 A 
HETATM    7  C   UNL     1      24.012  48.551  49.129  1.00  0.00     0.088 A 
HETATM    8  N   UNL     1      25.261  48.099  49.352  1.00  0.00    -0.357 N 
HETATM    9  C   UNL     1      25.464  46.730  49.787  1.00  0.00     0.243 C 
HETATM   10  N   UNL     1      24.385  45.879  49.346  1.00  0.00    -0.330 N 
HETATM   11  C   UNL     1      23.110  46.292  49.086  1.00  0.00     0.256 C 
HETATM   12  O   UNL     1      22.194  45.492  48.930  1.00  0.00    -0.267 OA
HETATM   13  S   UNL     1      23.613  50.196  48.966  1.00  0.00    -0.074 SA
HETATM   14  C   UNL     1      20.377  47.908  48.361  1.00  0.00     0.068 C 
HETATM   15  C   UNL     1      19.298  49.005  48.348  1.00  0.00     0.240 C 
HETATM   16  H   UNL     1      25.967  48.741  49.706  1.00  0.00     0.162 HD
HETATM   17  H   UNL     1      24.501  44.882  49.452  1.00  0.00     0.165 HD
ENDROOT
BRANCH   9  18
HETATM   18  C   UNL     1      25.687  46.573  51.256  1.00  0.00     0.095 A 
HETATM   19  O   UNL     1      25.543  45.300  51.738  1.00  0.00    -0.313 OA
HETATM   20  C   UNL     1      25.777  45.339  53.080  1.00  0.00     0.077 A 
HETATM   21  C   UNL     1      26.069  46.630  53.468  1.00  0.00     0.037 A 
HETATM   22  C   UNL     1      26.017  47.423  52.295  1.00  0.00     0.039 A 
BRANCH  20  23
HETATM   23  C   UNL     1      25.672  44.049  53.815  1.00  0.00     0.240 C 
BRANCH  23  24
HETATM   24  O   UNL     1      26.670  43.192  53.264  1.00  0.00    -0.345 OA
BRANCH  24  25
HETATM   25  C   UNL     1      27.945  43.329  53.738  1.00  0.00     0.070 A 
HETATM   26  C   UNL     1      28.347  44.135  54.805  1.00  0.00     0.052 A 
HETATM   27  C   UNL     1      29.699  44.185  55.196  1.00  0.00     0.050 A 
HETATM   28  C   UNL     1      30.642  43.416  54.497  1.00  0.00     0.016 A 
HETATM   29  C   UNL     1      30.243  42.613  53.431  1.00  0.00     0.004 A 
HETATM   30  C   UNL     1      28.901  42.572  53.057  1.00  0.00     0.037 A 
BRANCH  27  31
HETATM   31  C   UNL     1      30.146  45.050  56.349  1.00  0.00     0.417 C 
HETATM   32  F   UNL     1      30.817  46.170  55.956  1.00  0.00    -0.166 F 
HETATM   33  F   UNL     1      29.103  45.488  57.107  1.00  0.00    -0.166 F 
HETATM   34  F   UNL     1      30.981  44.394  57.200  1.00  0.00    -0.166 F 
ENDBRANCH  27  31
ENDBRANCH  24  25
ENDBRANCH  23  24
ENDBRANCH  20  23
ENDBRANCH   9  18
BRANCH   1  35
HETATM   35  C   UNL     1      18.656  51.218  47.333  1.00  0.00     0.231 C 
HETATM   36  C   UNL     1      18.770  52.427  48.243  1.00  0.00     0.034 C 
ENDBRANCH   1  35
TORSDOF 6
ENDMDL
MODEL 4
REMARK VINA RESULT:      -9.6      5.642     10.829
REMARK  6 active torsions:
REMARK  status: ('A' for Active; 'I' for Inactive)
REMARK    1  A    between atoms: C_2  and  N_3 
REMARK    2  A    between atoms: C_11  and  C_12 
REMARK    3  A    between atoms: C_14  and  C_15 
REMARK    4  A    between atoms: C_15  and  O_16 
REMARK    5  A    between atoms: O_16  and  C_17 
REMARK    6  A    between atoms: C_19  and  C_20 
ROOT
HETATM    1  N   UNL     1      20.044  49.485  47.948  1.00  0.00    -0.067 N 
HETATM    2  H   UNL     1      20.307  49.193  46.998  1.00  0.00     0.280 HD
HETATM    3  C   UNL     1      21.352  49.833  48.659  1.00  0.00     0.281 C 
HETATM    4  C   UNL     1      22.172  48.605  48.860  1.00  0.00     0.018 A 
HETATM    5  C   UNL     1      21.696  47.309  48.790  1.00  0.00    -0.023 A 
HETATM    6  C   UNL     1      22.750  46.359  48.985  1.00  0.00     0.073 A 
HETATM    7  C   UNL     1      23.962  46.977  49.184  1.00  0.00     0.088 A 
HETATM    8  N   UNL     1      25.122  46.306  49.322  1.00  0.00    -0.357 N 
HETATM    9  C   UNL     1      25.102  44.886  49.613  1.00  0.00     0.243 C 
HETATM   10  N   UNL     1      23.891  44.271  49.127  1.00  0.00    -0.330 N 
HETATM   11  C   UNL     1      22.698  44.911  48.950  1.00  0.00     0.256 C 
HETATM   12  O   UNL     1      21.659  44.292  48.747  1.00  0.00    -0.267 OA
HETATM   13  S   UNL     1      23.839  48.673  49.196  1.00  0.00    -0.074 SA
HETATM   14  C   UNL     1      20.259  47.016  48.475  1.00  0.00     0.068 C 
HETATM   15  C   UNL     1      19.377  48.271  48.605  1.00  0.00     0.240 C 
HETATM   16  H   UNL     1      25.931  46.785  49.713  1.00  0.00     0.162 HD
HETATM   17  H   UNL     1      23.841  43.263  49.131  1.00  0.00     0.165 HD
ENDROOT
BRANCH   9  18
HETATM   18  C   UNL     1      25.320  44.546  51.053  1.00  0.00     0.095 A 
HETATM   19  O   UNL     1      26.421  43.775  51.313  1.00  0.00    -0.313 OA
HETATM   20  C   UNL     1      26.465  43.561  52.658  1.00  0.00     0.077 A 
HETATM   21  C   UNL     1      25.398  44.188  53.267  1.00  0.00     0.037 A 
HETATM   22  C   UNL     1      24.664  44.826  52.237  1.00  0.00     0.039 A 
BRANCH  20  23
HETATM   23  C   UNL     1      27.594  42.736  53.168  1.00  0.00     0.240 C 
BRANCH  23  24
HETATM   24  O   UNL     1      28.760  43.553  53.075  1.00  0.00    -0.345 OA
BRANCH  24  25
HETATM   25  C   UNL     1      29.217  44.125  54.229  1.00  0.00     0.070 A 
HETATM   26  C   UNL     1      30.106  43.552  55.140  1.00  0.00     0.052 A 
HETATM   27  C   UNL     1      30.500  44.253  56.296  1.00  0.00     0.050 A 
HETATM   28  C   UNL     1      29.983  45.538  56.526  1.00  0.00     0.016 A 
HETATM   29  C   UNL     1      29.094  46.111  55.620  1.00  0.00     0.004 A 
HETATM   30  C   UNL     1      28.715  45.405  54.479  1.00  0.00     0.037 A 
BRANCH  27  31
HETATM   31  C   UNL     1      31.463  43.647  57.287  1.00  0.00     0.417 C 
HETATM   32  F   UNL     1      31.183  42.347  57.587  1.00  0.00    -0.166 F 
HETATM   33  F   UNL     1      32.748  43.657  56.837  1.00  0.00    -0.166 F 
HETATM   34  F   UNL     1      31.474  44.310  58.476  1.00  0.00    -0.166 F 
ENDBRANCH  27  31
ENDBRANCH  24  25
ENDBRANCH  23  24
ENDBRANCH  20  23
ENDBRANCH   9  18
BRANCH   1  35
HETATM   35  C   UNL     1      19.094  50.650  47.832  1.00  0.00     0.231 C 
HETATM   36  C   UNL     1      19.695  51.907  48.433  1.00  0.00     0.034 C 
ENDBRANCH   1  35
TORSDOF 6
ENDMDL
MODEL 5
REMARK VINA RESULT:      -9.3      5.334     11.414
REMARK  6 active torsions:
REMARK  status: ('A' for Active; 'I' for Inactive)
REMARK    1  A    between atoms: C_2  and  N_3 
REMARK    2  A    between atoms: C_11  and  C_12 
REMARK    3  A    between atoms: C_14  and  C_15 
REMARK    4  A    between atoms: C_15  and  O_16 
REMARK    5  A    between atoms: O_16  and  C_17 
REMARK    6  A    between atoms: C_19  and  C_20 
ROOT
HETATM    1  N   UNL     1      15.429  52.755  48.011  1.00  0.00    -0.067 N 
HETATM    2  H   UNL     1      14.855  51.913  48.152  1.00  0.00     0.280 HD
HETATM    3  C   UNL     1      16.434  52.400  46.916  1.00  0.00     0.281 C 
HETATM    4  C   UNL     1      17.395  51.373  47.411  1.00  0.00     0.018 A 
HETATM    5  C   UNL     1      17.617  51.067  48.741  1.00  0.00    -0.023 A 
HETATM    6  C   UNL     1      18.567  50.003  48.874  1.00  0.00     0.073 A 
HETATM    7  C   UNL     1      19.007  49.556  47.652  1.00  0.00     0.088 A 
HETATM    8  N   UNL     1      19.850  48.516  47.501  1.00  0.00    -0.357 N 
HETATM    9  C   UNL     1      20.608  48.034  48.640  1.00  0.00     0.243 C 
HETATM   10  N   UNL     1      19.928  48.323  49.879  1.00  0.00    -0.330 N 
HETATM   11  C   UNL     1      19.050  49.350  50.075  1.00  0.00     0.256 C 
HETATM   12  O   UNL     1      18.678  49.673  51.198  1.00  0.00    -0.267 OA
HETATM   13  S   UNL     1      18.341  50.432  46.355  1.00  0.00    -0.074 SA
HETATM   14  C   UNL     1      16.867  51.755  49.841  1.00  0.00     0.068 C 
HETATM   15  C   UNL     1      16.146  53.020  49.340  1.00  0.00     0.240 C 
HETATM   16  H   UNL     1      20.335  48.392  46.615  1.00  0.00     0.162 HD
HETATM   17  H   UNL     1      20.282  47.894  50.720  1.00  0.00     0.165 HD
ENDROOT
BRANCH   9  18
HETATM   18  C   UNL     1      22.021  48.519  48.694  1.00  0.00     0.095 A 
HETATM   19  O   UNL     1      22.896  47.703  49.360  1.00  0.00    -0.313 OA
HETATM   20  C   UNL     1      24.125  48.292  49.314  1.00  0.00     0.077 A 
HETATM   21  C   UNL     1      24.047  49.485  48.624  1.00  0.00     0.037 A 
HETATM   22  C   UNL     1      22.696  49.629  48.221  1.00  0.00     0.039 A 
BRANCH  20  23
HETATM   23  C   UNL     1      25.239  47.569  49.984  1.00  0.00     0.240 C 
BRANCH  23  24
HETATM   24  O   UNL     1      24.634  46.704  50.944  1.00  0.00    -0.345 OA
BRANCH  24  25
HETATM   25  C   UNL     1      25.392  46.336  52.020  1.00  0.00     0.070 A 
HETATM   26  C   UNL     1      25.983  47.196  52.947  1.00  0.00     0.052 A 
HETATM   27  C   UNL     1      26.743  46.684  54.017  1.00  0.00     0.050 A 
HETATM   28  C   UNL     1      26.902  45.295  54.141  1.00  0.00     0.016 A 
HETATM   29  C   UNL     1      26.314  44.435  53.216  1.00  0.00     0.004 A 
HETATM   30  C   UNL     1      25.564  44.957  52.163  1.00  0.00     0.037 A 
BRANCH  27  31
HETATM   31  C   UNL     1      27.385  47.603  55.027  1.00  0.00     0.417 C 
HETATM   32  F   UNL     1      28.546  48.165  54.586  1.00  0.00    -0.166 F 
HETATM   33  F   UNL     1      26.577  48.642  55.374  1.00  0.00    -0.166 F 
HETATM   34  F   UNL     1      27.698  46.965  56.188  1.00  0.00    -0.166 F 
ENDBRANCH  27  31
ENDBRANCH  24  25
ENDBRANCH  23  24
ENDBRANCH  20  23
ENDBRANCH   9  18
BRANCH   1  35
HETATM   35  C   UNL     1      14.509  53.890  47.637  1.00  0.00     0.231 C 
HETATM   36  C   UNL     1      14.243  54.793  48.827  1.00  0.00     0.034 C 
ENDBRANCH   1  35
TORSDOF 6
ENDMDL
MODEL 6
REMARK VINA RESULT:      -9.1      5.443     11.395
REMARK  6 active torsions:
REMARK  status: ('A' for Active; 'I' for Inactive)
REMARK    1  A    between atoms: C_2  and  N_3 
REMARK    2  A    between atoms: C_11  and  C_12 
REMARK    3  A    between atoms: C_14  and  C_15 
REMARK    4  A    between atoms: C_15  and  O_16 
REMARK    5  A    between atoms: O_16  and  C_17 
REMARK    6  A    between atoms: C_19  and  C_20 
ROOT
HETATM    1  N   UNL     1      15.513  52.484  47.910  1.00  0.00    -0.067 N 
HETATM    2  H   UNL     1      14.994  51.613  48.086  1.00  0.00     0.280 HD
HETATM    3  C   UNL     1      16.516  52.159  46.803  1.00  0.00     0.281 C 
HETATM    4  C   UNL     1      17.547  51.208  47.306  1.00  0.00     0.018 A 
HETATM    5  C   UNL     1      17.815  50.954  48.638  1.00  0.00    -0.023 A 
HETATM    6  C   UNL     1      18.831  49.954  48.780  1.00  0.00     0.073 A 
HETATM    7  C   UNL     1      19.273  49.500  47.560  1.00  0.00     0.088 A 
HETATM    8  N   UNL     1      20.176  48.510  47.420  1.00  0.00    -0.357 N 
HETATM    9  C   UNL     1      20.984  48.108  48.555  1.00  0.00     0.243 C 
HETATM   10  N   UNL     1      20.312  48.390  49.800  1.00  0.00    -0.330 N 
HETATM   11  C   UNL     1      19.376  49.366  49.987  1.00  0.00     0.256 C 
HETATM   12  O   UNL     1      19.008  49.698  51.109  1.00  0.00    -0.267 OA
HETATM   13  S   UNL     1      18.529  50.296  46.255  1.00  0.00    -0.074 SA
HETATM   14  C   UNL     1      17.046  51.626  49.735  1.00  0.00     0.068 C 
HETATM   15  C   UNL     1      16.238  52.830  49.215  1.00  0.00     0.240 C 
HETATM   16  H   UNL     1      20.649  48.390  46.527  1.00  0.00     0.162 HD
HETATM   17  H   UNL     1      20.709  48.008  50.645  1.00  0.00     0.165 HD
ENDROOT
BRANCH   9  18
HETATM   18  C   UNL     1      22.366  48.680  48.565  1.00  0.00     0.095 A 
HETATM   19  O   UNL     1      23.302  47.938  49.235  1.00  0.00    -0.313 OA
HETATM   20  C   UNL     1      24.491  48.599  49.146  1.00  0.00     0.077 A 
HETATM   21  C   UNL     1      24.326  49.764  48.425  1.00  0.00     0.037 A 
HETATM   22  C   UNL     1      22.962  49.814  48.047  1.00  0.00     0.039 A 
BRANCH  20  23
HETATM   23  C   UNL     1      25.660  47.966  49.812  1.00  0.00     0.240 C 
BRANCH  23  24
HETATM   24  O   UNL     1      25.187  46.741  50.371  1.00  0.00    -0.345 OA
BRANCH  24  25
HETATM   25  C   UNL     1      25.754  46.329  51.545  1.00  0.00     0.070 A 
HETATM   26  C   UNL     1      26.491  45.159  51.740  1.00  0.00     0.052 A 
HETATM   27  C   UNL     1      27.025  44.851  53.006  1.00  0.00     0.050 A 
HETATM   28  C   UNL     1      26.805  45.734  54.075  1.00  0.00     0.016 A 
HETATM   29  C   UNL     1      26.067  46.900  53.883  1.00  0.00     0.004 A 
HETATM   30  C   UNL     1      25.547  47.192  52.623  1.00  0.00     0.037 A 
BRANCH  27  31
HETATM   31  C   UNL     1      27.827  43.592  53.230  1.00  0.00     0.417 C 
HETATM   32  F   UNL     1      27.307  42.501  52.599  1.00  0.00    -0.166 F 
HETATM   33  F   UNL     1      29.108  43.705  52.784  1.00  0.00    -0.166 F 
HETATM   34  F   UNL     1      27.914  43.257  54.546  1.00  0.00    -0.166 F 
ENDBRANCH  27  31
ENDBRANCH  24  25
ENDBRANCH  23  24
ENDBRANCH  20  23
ENDBRANCH   9  18
BRANCH   1  35
HETATM   35  C   UNL     1      14.517  53.549  47.525  1.00  0.00     0.231 C 
HETATM   36  C   UNL     1      14.362  53.634  46.018  1.00  0.00     0.034 C 
ENDBRANCH   1  35
TORSDOF 6
ENDMDL
MODEL 7
REMARK VINA RESULT:      -9.0      2.637      3.843
REMARK  6 active torsions:
REMARK  status: ('A' for Active; 'I' for Inactive)
REMARK    1  A    between atoms: C_2  and  N_3 
REMARK    2  A    between atoms: C_11  and  C_12 
REMARK    3  A    between atoms: C_14  and  C_15 
REMARK    4  A    between atoms: C_15  and  O_16 
REMARK    5  A    between atoms: O_16  and  C_17 
REMARK    6  A    between atoms: C_19  and  C_20 
ROOT
HETATM    1  N   UNL     1      29.238  44.071  54.411  1.00  0.00    -0.067 N 
HETATM    2  H   UNL     1      29.772  44.894  54.101  1.00  0.00     0.280 HD
HETATM    3  C   UNL     1      28.865  43.309  53.140  1.00  0.00     0.281 C 
HETATM    4  C   UNL     1      27.894  44.099  52.331  1.00  0.00     0.018 A 
HETATM    5  C   UNL     1      27.137  45.155  52.804  1.00  0.00    -0.023 A 
HETATM    6  C   UNL     1      26.340  45.728  51.760  1.00  0.00     0.073 A 
HETATM    7  C   UNL     1      26.536  45.088  50.560  1.00  0.00     0.088 A 
HETATM    8  N   UNL     1      25.957  45.479  49.408  1.00  0.00    -0.357 N 
HETATM    9  C   UNL     1      24.826  46.386  49.442  1.00  0.00     0.243 C 
HETATM   10  N   UNL     1      24.853  47.207  50.629  1.00  0.00    -0.330 N 
HETATM   11  C   UNL     1      25.444  46.866  51.811  1.00  0.00     0.256 C 
HETATM   12  O   UNL     1      25.243  47.504  52.839  1.00  0.00    -0.267 OA
HETATM   13  S   UNL     1      27.615  43.780  50.683  1.00  0.00    -0.074 SA
HETATM   14  C   UNL     1      27.247  45.626  54.222  1.00  0.00     0.068 C 
HETATM   15  C   UNL     1      27.983  44.606  55.110  1.00  0.00     0.240 C 
HETATM   16  H   UNL     1      25.932  44.836  48.619  1.00  0.00     0.162 HD
HETATM   17  H   UNL     1      24.207  47.981  50.678  1.00  0.00     0.165 HD
ENDROOT
BRANCH   9  18
HETATM   18  C   UNL     1      23.495  45.722  49.297  1.00  0.00     0.095 A 
HETATM   19  O   UNL     1      22.551  46.444  48.617  1.00  0.00    -0.313 OA
HETATM   20  C   UNL     1      21.411  45.698  48.579  1.00  0.00     0.077 A 
HETATM   21  C   UNL     1      21.612  44.500  49.232  1.00  0.00     0.037 A 
HETATM   22  C   UNL     1      22.953  44.512  49.689  1.00  0.00     0.039 A 
BRANCH  20  23
HETATM   23  C   UNL     1      20.242  46.298  47.881  1.00  0.00     0.240 C 
BRANCH  23  24
HETATM   24  O   UNL     1      19.307  46.654  48.899  1.00  0.00    -0.345 OA
BRANCH  24  25
HETATM   25  C   UNL     1      18.776  47.913  48.849  1.00  0.00     0.070 A 
HETATM   26  C   UNL     1      19.423  49.097  49.207  1.00  0.00     0.052 A 
HETATM   27  C   UNL     1      18.759  50.335  49.106  1.00  0.00     0.050 A 
HETATM   28  C   UNL     1      17.434  50.365  48.642  1.00  0.00     0.016 A 
HETATM   29  C   UNL     1      16.787  49.185  48.285  1.00  0.00     0.004 A 
HETATM   30  C   UNL     1      17.458  47.967  48.390  1.00  0.00     0.037 A 
BRANCH  27  31
HETATM   31  C   UNL     1      19.447  51.623  49.487  1.00  0.00     0.417 C 
HETATM   32  F   UNL     1      20.592  51.434  50.201  1.00  0.00    -0.166 F 
HETATM   33  F   UNL     1      19.804  52.364  48.402  1.00  0.00    -0.166 F 
HETATM   34  F   UNL     1      18.659  52.429  50.251  1.00  0.00    -0.166 F 
ENDBRANCH  27  31
ENDBRANCH  24  25
ENDBRANCH  23  24
ENDBRANCH  20  23
ENDBRANCH   9  18
BRANCH   1  35
HETATM   35  C   UNL     1      30.108  43.279  55.354  1.00  0.00     0.231 C 
HETATM   36  C   UNL     1      30.999  44.193  56.174  1.00  0.00     0.034 C 
ENDBRANCH   1  35
TORSDOF 6
ENDMDL
MODEL 8
REMARK VINA RESULT:      -8.9      5.085     10.651
REMARK  6 active torsions:
REMARK  status: ('A' for Active; 'I' for Inactive)
REMARK    1  A    between atoms: C_2  and  N_3 
REMARK    2  A    between atoms: C_11  and  C_12 
REMARK    3  A    between atoms: C_14  and  C_15 
REMARK    4  A    between atoms: C_15  and  O_16 
REMARK    5  A    between atoms: O_16  and  C_17 
REMARK    6  A    between atoms: C_19  and  C_20 
ROOT
HETATM    1  N   UNL     1      18.150  49.917  48.876  1.00  0.00    -0.067 N 
HETATM    2  H   UNL     1      18.056  49.823  47.856  1.00  0.00     0.280 HD
HETATM    3  C   UNL     1      19.651  49.989  49.155  1.00  0.00     0.281 C 
HETATM    4  C   UNL     1      20.296  48.683  48.841  1.00  0.00     0.018 A 
HETATM    5  C   UNL     1      19.631  47.479  48.702  1.00  0.00    -0.023 A 
HETATM    6  C   UNL     1      20.537  46.424  48.354  1.00  0.00     0.073 A 
HETATM    7  C   UNL     1      21.829  46.879  48.240  1.00  0.00     0.088 A 
HETATM    8  N   UNL     1      22.858  46.100  47.855  1.00  0.00    -0.357 N 
HETATM    9  C   UNL     1      22.714  44.657  47.873  1.00  0.00     0.243 C 
HETATM   10  N   UNL     1      21.333  44.269  47.721  1.00  0.00    -0.330 N 
HETATM   11  C   UNL     1      20.256  45.030  48.075  1.00  0.00     0.256 C 
HETATM   12  O   UNL     1      19.125  44.560  48.126  1.00  0.00    -0.267 OA
HETATM   13  S   UNL     1      21.975  48.534  48.601  1.00  0.00    -0.074 SA
HETATM   14  C   UNL     1      18.141  47.384  48.842  1.00  0.00     0.068 C 
HETATM   15  C   UNL     1      17.545  48.648  49.488  1.00  0.00     0.240 C 
HETATM   16  H   UNL     1      23.811  46.411  48.030  1.00  0.00     0.162 HD
HETATM   17  H   UNL     1      21.135  43.293  47.558  1.00  0.00     0.165 HD
ENDROOT
BRANCH   9  18
HETATM   18  C   UNL     1      23.316  43.989  49.067  1.00  0.00     0.095 A 
HETATM   19  O   UNL     1      24.206  44.750  49.777  1.00  0.00    -0.313 OA
HETATM   20  C   UNL     1      24.654  43.995  50.819  1.00  0.00     0.077 A 
HETATM   21  C   UNL     1      24.060  42.750  50.785  1.00  0.00     0.037 A 
HETATM   22  C   UNL     1      23.196  42.748  49.662  1.00  0.00     0.039 A 
BRANCH  20  23
HETATM   23  C   UNL     1      25.642  44.632  51.731  1.00  0.00     0.240 C 
BRANCH  23  24
HETATM   24  O   UNL     1      25.872  43.699  52.786  1.00  0.00    -0.345 OA
BRANCH  24  25
HETATM   25  C   UNL     1      27.044  43.816  53.480  1.00  0.00     0.070 A 
HETATM   26  C   UNL     1      27.418  44.885  54.297  1.00  0.00     0.052 A 
HETATM   27  C   UNL     1      28.660  44.880  54.960  1.00  0.00     0.050 A 
HETATM   28  C   UNL     1      29.523  43.787  54.788  1.00  0.00     0.016 A 
HETATM   29  C   UNL     1      29.154  42.720  53.972  1.00  0.00     0.004 A 
HETATM   30  C   UNL     1      27.920  42.739  53.323  1.00  0.00     0.037 A 
BRANCH  27  31
HETATM   31  C   UNL     1      29.075  46.027  55.849  1.00  0.00     0.417 C 
HETATM   32  F   UNL     1      28.627  45.908  57.130  1.00  0.00    -0.166 F 
HETATM   33  F   UNL     1      30.428  46.155  55.937  1.00  0.00    -0.166 F 
HETATM   34  F   UNL     1      28.612  47.227  55.401  1.00  0.00    -0.166 F 
ENDBRANCH  27  31
ENDBRANCH  24  25
ENDBRANCH  23  24
ENDBRANCH  20  23
ENDBRANCH   9  18
BRANCH   1  35
HETATM   35  C   UNL     1      17.400  51.154  49.301  1.00  0.00     0.231 C 
HETATM   36  C   UNL     1      18.354  52.244  49.753  1.00  0.00     0.034 C 
ENDBRANCH   1  35
TORSDOF 6
ENDMDL
MODEL 9
REMARK VINA RESULT:      -8.9     13.351     16.618
REMARK  6 active torsions:
REMARK  status: ('A' for Active; 'I' for Inactive)
REMARK    1  A    between atoms: C_2  and  N_3 
REMARK    2  A    between atoms: C_11  and  C_12 
REMARK    3  A    between atoms: C_14  and  C_15 
REMARK    4  A    between atoms: C_15  and  O_16 
REMARK    5  A    between atoms: O_16  and  C_17 
REMARK    6  A    between atoms: C_19  and  C_20 
ROOT
HETATM    1  N   UNL     1      26.834  50.266  39.324  1.00  0.00    -0.067 N 
HETATM    2  H   UNL     1      26.398  50.665  40.166  1.00  0.00     0.280 HD
HETATM    3  C   UNL     1      27.752  49.147  39.817  1.00  0.00     0.281 C 
HETATM    4  C   UNL     1      28.890  49.717  40.591  1.00  0.00     0.018 A 
HETATM    5  C   UNL     1      29.297  51.038  40.554  1.00  0.00    -0.023 A 
HETATM    6  C   UNL     1      30.390  51.268  41.450  1.00  0.00     0.073 A 
HETATM    7  C   UNL     1      30.750  50.124  42.120  1.00  0.00     0.088 A 
HETATM    8  N   UNL     1      31.704  50.089  43.071  1.00  0.00    -0.357 N 
HETATM    9  C   UNL     1      32.640  51.190  43.190  1.00  0.00     0.243 C 
HETATM   10  N   UNL     1      32.067  52.417  42.694  1.00  0.00    -0.330 N 
HETATM   11  C   UNL     1      31.085  52.504  41.750  1.00  0.00     0.256 C 
HETATM   12  O   UNL     1      30.799  53.570  41.215  1.00  0.00    -0.267 OA
HETATM   13  S   UNL     1      29.833  48.772  41.646  1.00  0.00    -0.074 SA
HETATM   14  C   UNL     1      28.586  52.055  39.711  1.00  0.00     0.068 C 
HETATM   15  C   UNL     1      27.650  51.394  38.683  1.00  0.00     0.240 C 
HETATM   16  H   UNL     1      32.100  49.193  43.346  1.00  0.00     0.162 HD
HETATM   17  H   UNL     1      32.567  53.275  42.875  1.00  0.00     0.165 HD
ENDROOT
BRANCH   9  18
HETATM   18  C   UNL     1      33.972  50.942  42.558  1.00  0.00     0.095 A 
HETATM   19  O   UNL     1      34.957  51.830  42.899  1.00  0.00    -0.313 OA
HETATM   20  C   UNL     1      36.091  51.460  42.239  1.00  0.00     0.077 A 
HETATM   21  C   UNL     1      35.843  50.340  41.473  1.00  0.00     0.037 A 
HETATM   22  C   UNL     1      34.483  50.003  41.682  1.00  0.00     0.039 A 
BRANCH  20  23
HETATM   23  C   UNL     1      37.299  52.298  42.464  1.00  0.00     0.240 C 
BRANCH  23  24
HETATM   24  O   UNL     1      36.828  53.569  42.908  1.00  0.00    -0.345 OA
BRANCH  24  25
HETATM   25  C   UNL     1      37.508  54.166  43.932  1.00  0.00     0.070 A 
HETATM   26  C   UNL     1      37.813  53.591  45.167  1.00  0.00     0.052 A 
HETATM   27  C   UNL     1      38.525  54.318  46.141  1.00  0.00     0.050 A 
HETATM   28  C   UNL     1      38.924  55.634  45.856  1.00  0.00     0.016 A 
HETATM   29  C   UNL     1      38.618  56.210  44.626  1.00  0.00     0.004 A 
HETATM   30  C   UNL     1      37.914  55.477  43.671  1.00  0.00     0.037 A 
BRANCH  27  31
HETATM   31  C   UNL     1      38.864  53.707  47.478  1.00  0.00     0.417 C 
HETATM   32  F   UNL     1      39.286  52.414  47.391  1.00  0.00    -0.166 F 
HETATM   33  F   UNL     1      39.859  54.380  48.121  1.00  0.00    -0.166 F 
HETATM   34  F   UNL     1      37.804  53.698  48.331  1.00  0.00    -0.166 F 
ENDBRANCH  27  31
ENDBRANCH  24  25
ENDBRANCH  23  24
ENDBRANCH  20  23
ENDBRANCH   9  18
BRANCH   1  35
HETATM   35  C   UNL     1      25.734  49.785  38.413  1.00  0.00     0.231 C 
HETATM   36  C   UNL     1      26.284  48.897  37.313  1.00  0.00     0.034 C 
ENDBRANCH   1  35
TORSDOF 6
ENDMDL
MODEL 10
REMARK VINA RESULT:      -8.6      7.444     11.392
REMARK  6 active torsions:
REMARK  status: ('A' for Active; 'I' for Inactive)
REMARK    1  A    between atoms: C_2  and  N_3 
REMARK    2  A    between atoms: C_11  and  C_12 
REMARK    3  A    between atoms: C_14  and  C_15 
REMARK    4  A    between atoms: C_15  and  O_16 
REMARK    5  A    between atoms: O_16  and  C_17 
REMARK    6  A    between atoms: C_19  and  C_20 
ROOT
HETATM    1  N   UNL     1      15.000  51.516  46.192  1.00  0.00    -0.067 N 
HETATM    2  H   UNL     1      14.121  51.023  46.395  1.00  0.00     0.280 HD
HETATM    3  C   UNL     1      15.699  50.699  45.106  1.00  0.00     0.281 C 
HETATM    4  C   UNL     1      16.131  49.381  45.651  1.00  0.00     0.018 A 
HETATM    5  C   UNL     1      16.251  49.075  46.994  1.00  0.00    -0.023 A 
HETATM    6  C   UNL     1      16.641  47.709  47.181  1.00  0.00     0.073 A 
HETATM    7  C   UNL     1      16.789  47.053  45.982  1.00  0.00     0.088 A 
HETATM    8  N   UNL     1      17.082  45.741  45.885  1.00  0.00    -0.357 N 
HETATM    9  C   UNL     1      17.598  45.033  47.041  1.00  0.00     0.243 C 
HETATM   10  N   UNL     1      17.166  45.655  48.269  1.00  0.00    -0.330 N 
HETATM   11  C   UNL     1      16.838  46.972  48.413  1.00  0.00     0.256 C 
HETATM   12  O   UNL     1      16.694  47.482  49.519  1.00  0.00    -0.267 OA
HETATM   13  S   UNL     1      16.522  48.066  44.643  1.00  0.00    -0.074 SA
HETATM   14  C   UNL     1      15.927  50.078  48.060  1.00  0.00     0.068 C 
HETATM   15  C   UNL     1      15.815  51.504  47.490  1.00  0.00     0.240 C 
HETATM   16  H   UNL     1      17.424  45.371  45.001  1.00  0.00     0.162 HD
HETATM   17  H   UNL     1      17.331  45.156  49.131  1.00  0.00     0.165 HD
ENDROOT
BRANCH   9  18
HETATM   18  C   UNL     1      19.081  44.847  47.042  1.00  0.00     0.095 A 
HETATM   19  O   UNL     1      19.782  45.734  47.814  1.00  0.00    -0.313 OA
HETATM   20  C   UNL     1      21.105  45.424  47.699  1.00  0.00     0.077 A 
HETATM   21  C   UNL     1      21.261  44.344  46.855  1.00  0.00     0.037 A 
HETATM   22  C   UNL     1      19.961  43.969  46.437  1.00  0.00     0.039 A 
BRANCH  20  23
HETATM   23  C   UNL     1      22.059  46.272  48.463  1.00  0.00     0.240 C 
BRANCH  23  24
HETATM   24  O   UNL     1      22.547  47.250  47.547  1.00  0.00    -0.345 OA
BRANCH  24  25
HETATM   25  C   UNL     1      22.332  48.563  47.860  1.00  0.00     0.070 A 
HETATM   26  C   UNL     1      21.098  49.218  47.873  1.00  0.00     0.052 A 
HETATM   27  C   UNL     1      21.014  50.581  48.218  1.00  0.00     0.050 A 
HETATM   28  C   UNL     1      22.187  51.277  48.547  1.00  0.00     0.016 A 
HETATM   29  C   UNL     1      23.418  50.627  48.533  1.00  0.00     0.004 A 
HETATM   30  C   UNL     1      23.486  49.277  48.191  1.00  0.00     0.037 A 
BRANCH  27  31
HETATM   31  C   UNL     1      19.687  51.299  48.239  1.00  0.00     0.417 C 
HETATM   32  F   UNL     1      18.857  50.874  49.233  1.00  0.00    -0.166 F 
HETATM   33  F   UNL     1      19.825  52.642  48.418  1.00  0.00    -0.166 F 
HETATM   34  F   UNL     1      18.991  51.143  47.079  1.00  0.00    -0.166 F 
ENDBRANCH  27  31
ENDBRANCH  24  25
ENDBRANCH  23  24
ENDBRANCH  20  23
ENDBRANCH   9  18
BRANCH   1  35
HETATM   35  C   UNL     1      14.657  52.920  45.760  1.00  0.00     0.231 C 
HETATM   36  C   UNL     1      14.280  53.781  46.951  1.00  0.00     0.034 C 
ENDBRANCH   1  35
TORSDOF 6
ENDMDL
