MODEL 1
REMARK VINA RESULT:      -9.8      0.000      0.000
REMARK  6 active torsions:
REMARK  status: ('A' for Active; 'I' for Inactive)
REMARK    1  A    between atoms: C_2  and  C_3 
REMARK       I    between atoms: C_3  and  N_4 
REMARK    2  A    between atoms: N_4  and  C_5 
REMARK    3  A    between atoms: N_6  and  C_7 
REMARK    4  A    between atoms: C_7  and  C_8 
REMARK    5  A    between atoms: C_11  and  O_12 
REMARK    6  A    between atoms: C_20  and  C_21 
ROOT
HETATM    1  C   UNL     1      27.058  44.097  52.727  1.00  0.00     0.125 A 
HETATM    2  N   UNL     1      26.415  43.388  51.726  1.00  0.00    -0.332 N 
HETATM    3  C   UNL     1      27.042  42.147  51.581  1.00  0.00     0.017 A 
HETATM    4  C   UNL     1      26.660  41.138  50.543  1.00  0.00     0.069 C 
HETATM    5  C   UNL     1      28.050  42.047  52.532  1.00  0.00    -0.022 A 
HETATM    6  C   UNL     1      28.955  40.879  52.717  1.00  0.00     0.051 C 
HETATM    7  C   UNL     1      28.052  43.276  53.247  1.00  0.00     0.062 A 
ENDROOT
BRANCH   7   8
HETATM    8  C   UNL     1      28.926  43.703  54.393  1.00  0.00     0.143 A 
HETATM    9  N   UNL     1      28.729  44.813  55.087  1.00  0.00    -0.228 NA
HETATM   10  C   UNL     1      29.678  44.807  56.078  1.00  0.00     0.086 A 
HETATM   11  C   UNL     1      30.490  43.685  55.979  1.00  0.00     0.062 A 
HETATM   12  C   UNL     1      29.903  45.729  57.111  1.00  0.00     0.034 A 
HETATM   13  N   UNL     1      30.001  43.012  54.891  1.00  0.00    -0.338 N 
HETATM   14  C   UNL     1      31.536  43.413  56.864  1.00  0.00     0.032 A 
HETATM   15  H   UNL     1      30.344  42.132  54.545  1.00  0.00     0.167 HD
HETATM   16  C   UNL     1      31.743  44.341  57.892  1.00  0.00     0.002 A 
HETATM   17  C   UNL     1      30.943  45.480  58.016  1.00  0.00     0.002 A 
ENDBRANCH   7   8
BRANCH   1  18
HETATM   18  N   UNL     1      26.859  45.409  53.150  1.00  0.00    -0.312 N 
HETATM   19  C   UNL     1      25.840  45.913  53.923  1.00  0.00     0.222 C 
HETATM   20  O   UNL     1      24.929  45.278  54.442  1.00  0.00    -0.273 OA
HETATM   21  H   UNL     1      27.717  45.964  53.113  1.00  0.00     0.170 HD
BRANCH  19  22
HETATM   22  C   UNL     1      25.889  47.428  54.066  1.00  0.00     0.099 C 
HETATM   23  C   UNL     1      26.828  47.926  55.149  1.00  0.00     0.014 C 
ENDBRANCH  19  22
ENDBRANCH   1  18
BRANCH   2  24
HETATM   24  C   UNL     1      25.391  43.880  50.797  1.00  0.00     0.169 C 
BRANCH  24  25
HETATM   25  C   UNL     1      25.568  45.314  50.330  1.00  0.00    -0.040 A 
HETATM   26  C   UNL     1      24.478  46.189  50.459  1.00  0.00     0.011 A 
HETATM   27  C   UNL     1      24.590  47.536  50.097  1.00  0.00     0.037 A 
HETATM   28  C   UNL     1      25.795  48.044  49.614  1.00  0.00     0.068 A 
HETATM   29  C   UNL     1      26.880  47.185  49.464  1.00  0.00     0.037 A 
HETATM   30  C   UNL     1      26.765  45.833  49.814  1.00  0.00     0.011 A 
BRANCH  28  31
HETATM   31  O   UNL     1      25.781  49.381  49.320  1.00  0.00    -0.356 OA
HETATM   32  C   UNL     1      26.833  49.861  48.491  1.00  0.00     0.210 C 
ENDBRANCH  28  31
ENDBRANCH  24  25
ENDBRANCH   2  24
TORSDOF 6
ENDMDL
MODEL 2
REMARK VINA RESULT:      -9.2      4.183      9.528
REMARK  6 active torsions:
REMARK  status: ('A' for Active; 'I' for Inactive)
REMARK    1  A    between atoms: C_2  and  C_3 
REMARK       I    between atoms: C_3  and  N_4 
REMARK    2  A    between atoms: N_4  and  C_5 
REMARK    3  A    between atoms: N_6  and  C_7 
REMARK    4  A    between atoms: C_7  and  C_8 
REMARK    5  A    between atoms: C_11  and  O_12 
REMARK    6  A    between atoms: C_20  and  C_21 
ROOT
HETATM    1  C   UNL     1      23.811  47.254  49.462  1.00  0.00     0.125 A 
HETATM    2  N   UNL     1      25.070  47.829  49.423  1.00  0.00    -0.332 N 
HETATM    3  C   UNL     1      24.981  49.065  48.778  1.00  0.00     0.017 A 
HETATM    4  C   UNL     1      26.160  49.943  48.491  1.00  0.00     0.069 C 
HETATM    5  C   UNL     1      23.650  49.301  48.456  1.00  0.00    -0.022 A 
HETATM    6  C   UNL     1      23.126  50.510  47.762  1.00  0.00     0.051 C 
HETATM    7  C   UNL     1      22.923  48.158  48.889  1.00  0.00     0.062 A 
ENDROOT
BRANCH   7   8
HETATM    8  C   UNL     1      21.447  47.887  48.804  1.00  0.00     0.143 A 
HETATM    9  N   UNL     1      20.919  46.962  48.017  1.00  0.00    -0.228 NA
HETATM   10  C   UNL     1      19.571  46.975  48.278  1.00  0.00     0.086 A 
HETATM   11  C   UNL     1      19.260  47.940  49.226  1.00  0.00     0.062 A 
HETATM   12  C   UNL     1      18.547  46.178  47.746  1.00  0.00     0.034 A 
HETATM   13  N   UNL     1      20.467  48.515  49.529  1.00  0.00    -0.338 N 
HETATM   14  C   UNL     1      17.963  48.169  49.692  1.00  0.00     0.032 A 
HETATM   15  H   UNL     1      20.613  49.244  50.206  1.00  0.00     0.167 HD
HETATM   16  C   UNL     1      16.953  47.362  49.153  1.00  0.00     0.002 A 
HETATM   17  C   UNL     1      17.237  46.383  48.197  1.00  0.00     0.002 A 
ENDBRANCH   7   8
BRANCH   1  18
HETATM   18  N   UNL     1      23.427  45.992  49.905  1.00  0.00    -0.312 N 
HETATM   19  C   UNL     1      23.543  44.785  49.256  1.00  0.00     0.222 C 
HETATM   20  O   UNL     1      24.067  44.585  48.166  1.00  0.00    -0.273 OA
HETATM   21  H   UNL     1      23.325  45.951  50.922  1.00  0.00     0.170 HD
BRANCH  19  22
HETATM   22  C   UNL     1      22.887  43.635  50.007  1.00  0.00     0.099 C 
HETATM   23  C   UNL     1      23.859  42.606  50.553  1.00  0.00     0.014 C 
ENDBRANCH  19  22
ENDBRANCH   1  18
BRANCH   2  24
HETATM   24  C   UNL     1      26.349  47.207  49.785  1.00  0.00     0.169 C 
BRANCH  24  25
HETATM   25  C   UNL     1      26.364  46.468  51.112  1.00  0.00    -0.040 A 
HETATM   26  C   UNL     1      26.745  45.117  51.112  1.00  0.00     0.011 A 
HETATM   27  C   UNL     1      26.830  44.393  52.305  1.00  0.00     0.037 A 
HETATM   28  C   UNL     1      26.553  45.003  53.528  1.00  0.00     0.068 A 
HETATM   29  C   UNL     1      26.156  46.338  53.543  1.00  0.00     0.037 A 
HETATM   30  C   UNL     1      26.058  47.060  52.347  1.00  0.00     0.011 A 
BRANCH  28  31
HETATM   31  O   UNL     1      26.697  44.195  54.623  1.00  0.00    -0.356 OA
HETATM   32  C   UNL     1      27.333  42.941  54.408  1.00  0.00     0.210 C 
ENDBRANCH  28  31
ENDBRANCH  24  25
ENDBRANCH   2  24
TORSDOF 6
ENDMDL
MODEL 3
REMARK VINA RESULT:      -9.0      2.038      7.172
REMARK  6 active torsions:
REMARK  status: ('A' for Active; 'I' for Inactive)
REMARK    1  A    between atoms: C_2  and  C_3 
REMARK       I    between atoms: C_3  and  N_4 
REMARK    2  A    between atoms: N_4  and  C_5 
REMARK    3  A    between atoms: N_6  and  C_7 
REMARK    4  A    between atoms: C_7  and  C_8 
REMARK    5  A    between atoms: C_11  and  O_12 
REMARK    6  A    between atoms: C_20  and  C_21 
ROOT
HETATM    1  C   UNL     1      26.364  44.931  52.004  1.00  0.00     0.125 A 
HETATM    2  N   UNL     1      26.507  43.572  52.229  1.00  0.00    -0.332 N 
HETATM    3  C   UNL     1      26.091  42.880  51.089  1.00  0.00     0.017 A 
HETATM    4  C   UNL     1      26.040  41.387  50.992  1.00  0.00     0.069 C 
HETATM    5  C   UNL     1      25.735  43.806  50.115  1.00  0.00    -0.022 A 
HETATM    6  C   UNL     1      25.239  43.482  48.749  1.00  0.00     0.051 C 
HETATM    7  C   UNL     1      25.910  45.091  50.700  1.00  0.00     0.062 A 
ENDROOT
BRANCH   7   8
HETATM    8  C   UNL     1      25.686  46.447  50.089  1.00  0.00     0.143 A 
HETATM    9  N   UNL     1      26.670  47.253  49.724  1.00  0.00    -0.228 NA
HETATM   10  C   UNL     1      26.066  48.344  49.151  1.00  0.00     0.086 A 
HETATM   11  C   UNL     1      24.684  48.219  49.185  1.00  0.00     0.062 A 
HETATM   12  C   UNL     1      26.638  49.484  48.570  1.00  0.00     0.034 A 
HETATM   13  N   UNL     1      24.471  47.012  49.801  1.00  0.00    -0.338 N 
HETATM   14  C   UNL     1      23.812  49.177  48.662  1.00  0.00     0.032 A 
HETATM   15  H   UNL     1      23.572  46.593  49.969  1.00  0.00     0.167 HD
HETATM   16  C   UNL     1      24.400  50.307  48.081  1.00  0.00     0.002 A 
HETATM   17  C   UNL     1      25.788  50.461  48.034  1.00  0.00     0.002 A 
ENDBRANCH   7   8
BRANCH   1  18
HETATM   18  N   UNL     1      26.548  45.998  52.879  1.00  0.00    -0.312 N 
HETATM   19  C   UNL     1      25.867  46.279  54.040  1.00  0.00     0.222 C 
HETATM   20  O   UNL     1      24.991  45.599  54.561  1.00  0.00    -0.273 OA
HETATM   21  H   UNL     1      27.470  46.429  52.779  1.00  0.00     0.170 HD
BRANCH  19  22
HETATM   22  C   UNL     1      26.263  47.612  54.659  1.00  0.00     0.099 C 
HETATM   23  C   UNL     1      27.760  47.816  54.806  1.00  0.00     0.014 C 
ENDBRANCH  19  22
ENDBRANCH   1  18
BRANCH   2  24
HETATM   24  C   UNL     1      26.828  42.905  53.496  1.00  0.00     0.169 C 
BRANCH  24  25
HETATM   25  C   UNL     1      28.205  43.206  54.062  1.00  0.00    -0.040 A 
HETATM   26  C   UNL     1      28.301  44.150  55.097  1.00  0.00     0.011 A 
HETATM   27  C   UNL     1      29.532  44.435  55.698  1.00  0.00     0.037 A 
HETATM   28  C   UNL     1      30.691  43.775  55.293  1.00  0.00     0.068 A 
HETATM   29  C   UNL     1      30.615  42.850  54.256  1.00  0.00     0.037 A 
HETATM   30  C   UNL     1      29.385  42.573  53.644  1.00  0.00     0.011 A 
BRANCH  28  31
HETATM   31  O   UNL     1      31.824  44.125  55.976  1.00  0.00    -0.356 OA
HETATM   32  C   UNL     1      31.942  43.634  57.305  1.00  0.00     0.210 C 
ENDBRANCH  28  31
ENDBRANCH  24  25
ENDBRANCH   2  24
TORSDOF 6
ENDMDL
MODEL 4
REMARK VINA RESULT:      -9.0      2.170      3.060
REMARK  6 active torsions:
REMARK  status: ('A' for Active; 'I' for Inactive)
REMARK    1  A    between atoms: C_2  and  C_3 
REMARK       I    between atoms: C_3  and  N_4 
REMARK    2  A    between atoms: N_4  and  C_5 
REMARK    3  A    between atoms: N_6  and  C_7 
REMARK    4  A    between atoms: C_7  and  C_8 
REMARK    5  A    between atoms: C_11  and  O_12 
REMARK    6  A    between atoms: C_20  and  C_21 
ROOT
HETATM    1  C   UNL     1      27.406  43.711  51.431  1.00  0.00     0.125 A 
HETATM    2  N   UNL     1      27.053  42.785  50.463  1.00  0.00    -0.332 N 
HETATM    3  C   UNL     1      27.631  41.555  50.785  1.00  0.00     0.017 A 
HETATM    4  C   UNL     1      27.522  40.333  49.926  1.00  0.00     0.069 C 
HETATM    5  C   UNL     1      28.307  41.686  51.992  1.00  0.00    -0.022 A 
HETATM    6  C   UNL     1      29.057  40.605  52.688  1.00  0.00     0.051 C 
HETATM    7  C   UNL     1      28.160  43.044  52.389  1.00  0.00     0.062 A 
ENDROOT
BRANCH   7   8
HETATM    8  C   UNL     1      28.678  43.730  53.623  1.00  0.00     0.143 A 
HETATM    9  N   UNL     1      28.022  44.693  54.252  1.00  0.00    -0.228 NA
HETATM   10  C   UNL     1      28.778  45.001  55.354  1.00  0.00     0.086 A 
HETATM   11  C   UNL     1      29.933  44.231  55.394  1.00  0.00     0.062 A 
HETATM   12  C   UNL     1      28.536  45.929  56.378  1.00  0.00     0.034 A 
HETATM   13  N   UNL     1      29.851  43.445  54.274  1.00  0.00    -0.338 N 
HETATM   14  C   UNL     1      30.884  44.325  56.412  1.00  0.00     0.032 A 
HETATM   15  H   UNL     1      30.518  42.744  54.002  1.00  0.00     0.167 HD
HETATM   16  C   UNL     1      30.625  45.253  57.428  1.00  0.00     0.002 A 
HETATM   17  C   UNL     1      29.471  46.042  57.414  1.00  0.00     0.002 A 
ENDBRANCH   7   8
BRANCH   1  18
HETATM   18  N   UNL     1      27.157  45.080  51.479  1.00  0.00    -0.312 N 
HETATM   19  C   UNL     1      25.996  45.727  51.831  1.00  0.00     0.222 C 
HETATM   20  O   UNL     1      24.959  45.209  52.230  1.00  0.00    -0.273 OA
HETATM   21  H   UNL     1      28.018  45.630  51.538  1.00  0.00     0.170 HD
BRANCH  19  22
HETATM   22  C   UNL     1      26.066  47.234  51.634  1.00  0.00     0.099 C 
HETATM   23  C   UNL     1      26.097  47.677  50.182  1.00  0.00     0.014 C 
ENDBRANCH  19  22
ENDBRANCH   1  18
BRANCH   2  24
HETATM   24  C   UNL     1      26.374  43.040  49.187  1.00  0.00     0.169 C 
BRANCH  24  25
HETATM   25  C   UNL     1      24.904  43.409  49.291  1.00  0.00    -0.040 A 
HETATM   26  C   UNL     1      24.471  44.582  48.653  1.00  0.00     0.011 A 
HETATM   27  C   UNL     1      23.122  44.951  48.665  1.00  0.00     0.037 A 
HETATM   28  C   UNL     1      22.172  44.153  49.301  1.00  0.00     0.068 A 
HETATM   29  C   UNL     1      22.589  42.997  49.955  1.00  0.00     0.037 A 
HETATM   30  C   UNL     1      23.942  42.632  49.954  1.00  0.00     0.011 A 
BRANCH  28  31
HETATM   31  O   UNL     1      20.885  44.611  49.220  1.00  0.00    -0.356 OA
HETATM   32  C   UNL     1      20.568  45.421  48.096  1.00  0.00     0.210 C 
ENDBRANCH  28  31
ENDBRANCH  24  25
ENDBRANCH   2  24
TORSDOF 6
ENDMDL
MODEL 5
REMARK VINA RESULT:      -9.0      3.000      8.183
REMARK  6 active torsions:
REMARK  status: ('A' for Active; 'I' for Inactive)
REMARK    1  A    between atoms: C_2  and  C_3 
REMARK       I    between atoms: C_3  and  N_4 
REMARK    2  A    between atoms: N_4  and  C_5 
REMARK    3  A    between atoms: N_6  and  C_7 
REMARK    4  A    between atoms: C_7  and  C_8 
REMARK    5  A    between atoms: C_11  and  O_12 
REMARK    6  A    between atoms: C_20  and  C_21 
ROOT
HETATM    1  C   UNL     1      25.456  45.635  49.532  1.00  0.00     0.125 A 
HETATM    2  N   UNL     1      25.789  44.329  49.847  1.00  0.00    -0.332 N 
HETATM    3  C   UNL     1      24.617  43.614  50.101  1.00  0.00     0.017 A 
HETATM    4  C   UNL     1      24.591  42.183  50.541  1.00  0.00     0.069 C 
HETATM    5  C   UNL     1      23.531  44.455  49.891  1.00  0.00    -0.022 A 
HETATM    6  C   UNL     1      22.099  44.081  50.051  1.00  0.00     0.051 C 
HETATM    7  C   UNL     1      24.069  45.723  49.534  1.00  0.00     0.062 A 
ENDROOT
BRANCH   7   8
HETATM    8  C   UNL     1      23.345  46.994  49.184  1.00  0.00     0.143 A 
HETATM    9  N   UNL     1      22.541  47.111  48.139  1.00  0.00    -0.228 NA
HETATM   10  C   UNL     1      22.025  48.381  48.206  1.00  0.00     0.086 A 
HETATM   11  C   UNL     1      22.537  49.067  49.299  1.00  0.00     0.062 A 
HETATM   12  C   UNL     1      21.100  49.019  47.367  1.00  0.00     0.034 A 
HETATM   13  N   UNL     1      23.385  48.167  49.892  1.00  0.00    -0.338 N 
HETATM   14  C   UNL     1      22.179  50.378  49.621  1.00  0.00     0.032 A 
HETATM   15  H   UNL     1      23.912  48.329  50.734  1.00  0.00     0.167 HD
HETATM   16  C   UNL     1      21.251  50.998  48.775  1.00  0.00     0.002 A 
HETATM   17  C   UNL     1      20.719  50.333  47.667  1.00  0.00     0.002 A 
ENDBRANCH   7   8
BRANCH   1  18
HETATM   18  N   UNL     1      26.285  46.732  49.309  1.00  0.00    -0.312 N 
HETATM   19  C   UNL     1      26.617  47.743  50.179  1.00  0.00     0.222 C 
HETATM   20  O   UNL     1      26.283  47.840  51.354  1.00  0.00    -0.273 OA
HETATM   21  H   UNL     1      26.919  46.587  48.520  1.00  0.00     0.170 HD
BRANCH  19  22
HETATM   22  C   UNL     1      27.446  48.843  49.531  1.00  0.00     0.099 C 
HETATM   23  C   UNL     1      26.701  49.664  48.495  1.00  0.00     0.014 C 
ENDBRANCH  19  22
ENDBRANCH   1  18
BRANCH   2  24
HETATM   24  C   UNL     1      27.128  43.783  50.098  1.00  0.00     0.169 C 
BRANCH  24  25
HETATM   25  C   UNL     1      27.637  43.932  51.522  1.00  0.00    -0.040 A 
HETATM   26  C   UNL     1      28.823  43.267  51.872  1.00  0.00     0.011 A 
HETATM   27  C   UNL     1      29.374  43.404  53.151  1.00  0.00     0.037 A 
HETATM   28  C   UNL     1      28.764  44.219  54.104  1.00  0.00     0.068 A 
HETATM   29  C   UNL     1      27.578  44.870  53.777  1.00  0.00     0.037 A 
HETATM   30  C   UNL     1      27.018  44.724  52.501  1.00  0.00     0.011 A 
BRANCH  28  31
HETATM   31  O   UNL     1      29.415  44.289  55.305  1.00  0.00    -0.356 OA
HETATM   32  C   UNL     1      30.585  43.493  55.442  1.00  0.00     0.210 C 
ENDBRANCH  28  31
ENDBRANCH  24  25
ENDBRANCH   2  24
TORSDOF 6
ENDMDL
MODEL 6
REMARK VINA RESULT:      -8.9      2.360      5.430
REMARK  6 active torsions:
REMARK  status: ('A' for Active; 'I' for Inactive)
REMARK    1  A    between atoms: C_2  and  C_3 
REMARK       I    between atoms: C_3  and  N_4 
REMARK    2  A    between atoms: N_4  and  C_5 
REMARK    3  A    between atoms: N_6  and  C_7 
REMARK    4  A    between atoms: C_7  and  C_8 
REMARK    5  A    between atoms: C_11  and  O_12 
REMARK    6  A    between atoms: C_20  and  C_21 
ROOT
HETATM    1  C   UNL     1      26.702  43.781  51.592  1.00  0.00     0.125 A 
HETATM    2  N   UNL     1      26.667  44.856  52.464  1.00  0.00    -0.332 N 
HETATM    3  C   UNL     1      27.608  44.646  53.476  1.00  0.00     0.017 A 
HETATM    4  C   UNL     1      27.803  45.569  54.638  1.00  0.00     0.069 C 
HETATM    5  C   UNL     1      28.282  43.460  53.212  1.00  0.00    -0.022 A 
HETATM    6  C   UNL     1      29.368  42.875  54.047  1.00  0.00     0.051 C 
HETATM    7  C   UNL     1      27.706  42.924  52.027  1.00  0.00     0.062 A 
ENDROOT
BRANCH   7   8
HETATM    8  C   UNL     1      28.064  41.666  51.286  1.00  0.00     0.143 A 
HETATM    9  N   UNL     1      27.831  41.488  49.995  1.00  0.00    -0.228 NA
HETATM   10  C   UNL     1      28.361  40.261  49.686  1.00  0.00     0.086 A 
HETATM   11  C   UNL     1      28.909  39.660  50.811  1.00  0.00     0.062 A 
HETATM   12  C   UNL     1      28.419  39.594  48.454  1.00  0.00     0.034 A 
HETATM   13  N   UNL     1      28.691  40.567  51.815  1.00  0.00    -0.338 N 
HETATM   14  C   UNL     1      29.529  38.409  50.789  1.00  0.00     0.032 A 
HETATM   15  H   UNL     1      28.986  40.462  52.771  1.00  0.00     0.167 HD
HETATM   16  C   UNL     1      29.582  37.758  49.550  1.00  0.00     0.002 A 
HETATM   17  C   UNL     1      29.038  38.338  48.401  1.00  0.00     0.002 A 
ENDBRANCH   7   8
BRANCH   1  18
HETATM   18  N   UNL     1      25.881  43.497  50.504  1.00  0.00    -0.312 N 
HETATM   19  C   UNL     1      24.555  43.133  50.504  1.00  0.00     0.222 C 
HETATM   20  O   UNL     1      23.819  43.045  51.479  1.00  0.00    -0.273 OA
HETATM   21  H   UNL     1      26.244  43.887  49.630  1.00  0.00     0.170 HD
BRANCH  19  22
HETATM   22  C   UNL     1      24.033  42.773  49.120  1.00  0.00     0.099 C 
HETATM   23  C   UNL     1      23.631  43.965  48.271  1.00  0.00     0.014 C 
ENDBRANCH  19  22
ENDBRANCH   1  18
BRANCH   2  24
HETATM   24  C   UNL     1      25.688  45.949  52.498  1.00  0.00     0.169 C 
BRANCH  24  25
HETATM   25  C   UNL     1      25.708  46.881  51.299  1.00  0.00    -0.040 A 
HETATM   26  C   UNL     1      24.501  47.111  50.621  1.00  0.00     0.011 A 
HETATM   27  C   UNL     1      24.441  47.999  49.542  1.00  0.00     0.037 A 
HETATM   28  C   UNL     1      25.577  48.689  49.124  1.00  0.00     0.068 A 
HETATM   29  C   UNL     1      26.786  48.459  49.776  1.00  0.00     0.037 A 
HETATM   30  C   UNL     1      26.851  47.560  50.849  1.00  0.00     0.011 A 
BRANCH  28  31
HETATM   31  O   UNL     1      25.380  49.546  48.075  1.00  0.00    -0.356 OA
HETATM   32  C   UNL     1      24.091  50.136  47.970  1.00  0.00     0.210 C 
ENDBRANCH  28  31
ENDBRANCH  24  25
ENDBRANCH   2  24
TORSDOF 6
ENDMDL
MODEL 7
REMARK VINA RESULT:      -8.9      4.557      7.729
REMARK  6 active torsions:
REMARK  status: ('A' for Active; 'I' for Inactive)
REMARK    1  A    between atoms: C_2  and  C_3 
REMARK       I    between atoms: C_3  and  N_4 
REMARK    2  A    between atoms: N_4  and  C_5 
REMARK    3  A    between atoms: N_6  and  C_7 
REMARK    4  A    between atoms: C_7  and  C_8 
REMARK    5  A    between atoms: C_11  and  O_12 
REMARK    6  A    between atoms: C_20  and  C_21 
ROOT
HETATM    1  C   UNL     1      23.622  48.234  48.814  1.00  0.00     0.125 A 
HETATM    2  N   UNL     1      22.442  48.728  48.285  1.00  0.00    -0.332 N 
HETATM    3  C   UNL     1      21.567  47.661  48.062  1.00  0.00     0.017 A 
HETATM    4  C   UNL     1      20.217  47.808  47.430  1.00  0.00     0.069 C 
HETATM    5  C   UNL     1      22.174  46.492  48.504  1.00  0.00    -0.022 A 
HETATM    6  C   UNL     1      21.576  45.129  48.450  1.00  0.00     0.051 C 
HETATM    7  C   UNL     1      23.464  46.862  48.975  1.00  0.00     0.062 A 
ENDROOT
BRANCH   7   8
HETATM    8  C   UNL     1      24.537  45.997  49.576  1.00  0.00     0.143 A 
HETATM    9  N   UNL     1      25.030  46.183  50.790  1.00  0.00    -0.228 NA
HETATM   10  C   UNL     1      25.919  45.158  50.994  1.00  0.00     0.086 A 
HETATM   11  C   UNL     1      25.993  44.338  49.877  1.00  0.00     0.062 A 
HETATM   12  C   UNL     1      26.699  44.858  52.120  1.00  0.00     0.034 A 
HETATM   13  N   UNL     1      25.118  44.904  48.986  1.00  0.00    -0.338 N 
HETATM   14  C   UNL     1      26.812  43.208  49.806  1.00  0.00     0.032 A 
HETATM   15  H   UNL     1      24.904  44.546  48.071  1.00  0.00     0.167 HD
HETATM   16  C   UNL     1      27.580  42.920  50.940  1.00  0.00     0.002 A 
HETATM   17  C   UNL     1      27.527  43.729  52.079  1.00  0.00     0.002 A 
ENDBRANCH   7   8
BRANCH   1  18
HETATM   18  N   UNL     1      24.812  48.899  49.097  1.00  0.00    -0.312 N 
HETATM   19  C   UNL     1      25.583  49.667  48.256  1.00  0.00     0.222 C 
HETATM   20  O   UNL     1      25.332  49.961  47.094  1.00  0.00    -0.273 OA
HETATM   21  H   UNL     1      24.944  49.053  50.099  1.00  0.00     0.170 HD
BRANCH  19  22
HETATM   22  C   UNL     1      26.890  50.122  48.891  1.00  0.00     0.099 C 
HETATM   23  C   UNL     1      27.847  48.995  49.235  1.00  0.00     0.014 C 
ENDBRANCH  19  22
ENDBRANCH   1  18
BRANCH   2  24
HETATM   24  C   UNL     1      22.174  50.092  47.815  1.00  0.00     0.169 C 
BRANCH  24  25
HETATM   25  C   UNL     1      21.011  50.799  48.490  1.00  0.00    -0.040 A 
HETATM   26  C   UNL     1      20.080  51.463  47.676  1.00  0.00     0.011 A 
HETATM   27  C   UNL     1      18.958  52.089  48.230  1.00  0.00     0.037 A 
HETATM   28  C   UNL     1      18.730  52.054  49.605  1.00  0.00     0.068 A 
HETATM   29  C   UNL     1      19.654  51.414  50.427  1.00  0.00     0.037 A 
HETATM   30  C   UNL     1      20.785  50.798  49.875  1.00  0.00     0.011 A 
BRANCH  28  31
HETATM   31  O   UNL     1      17.586  52.681  50.017  1.00  0.00    -0.356 OA
HETATM   32  C   UNL     1      16.360  52.025  49.722  1.00  0.00     0.210 C 
ENDBRANCH  28  31
ENDBRANCH  24  25
ENDBRANCH   2  24
TORSDOF 6
ENDMDL
MODEL 8
REMARK VINA RESULT:      -8.8      4.257      9.645
REMARK  6 active torsions:
REMARK  status: ('A' for Active; 'I' for Inactive)
REMARK    1  A    between atoms: C_2  and  C_3 
REMARK       I    between atoms: C_3  and  N_4 
REMARK    2  A    between atoms: N_4  and  C_5 
REMARK    3  A    between atoms: N_6  and  C_7 
REMARK    4  A    between atoms: C_7  and  C_8 
REMARK    5  A    between atoms: C_11  and  O_12 
REMARK    6  A    between atoms: C_20  and  C_21 
ROOT
HETATM    1  C   UNL     1      24.031  47.474  49.326  1.00  0.00     0.125 A 
HETATM    2  N   UNL     1      25.357  47.181  49.595  1.00  0.00    -0.332 N 
HETATM    3  C   UNL     1      26.148  48.259  49.189  1.00  0.00     0.017 A 
HETATM    4  C   UNL     1      27.643  48.271  49.261  1.00  0.00     0.069 C 
HETATM    5  C   UNL     1      25.314  49.264  48.713  1.00  0.00    -0.022 A 
HETATM    6  C   UNL     1      25.758  50.585  48.187  1.00  0.00     0.051 C 
HETATM    7  C   UNL     1      23.986  48.761  48.803  1.00  0.00     0.062 A 
ENDROOT
BRANCH   7   8
HETATM    8  C   UNL     1      22.692  49.435  48.439  1.00  0.00     0.143 A 
HETATM    9  N   UNL     1      21.828  48.933  47.571  1.00  0.00    -0.228 NA
HETATM   10  C   UNL     1      20.758  49.793  47.570  1.00  0.00     0.086 A 
HETATM   11  C   UNL     1      20.977  50.856  48.435  1.00  0.00     0.062 A 
HETATM   12  C   UNL     1      19.553  49.724  46.856  1.00  0.00     0.034 A 
HETATM   13  N   UNL     1      22.220  50.611  48.960  1.00  0.00    -0.338 N 
HETATM   14  C   UNL     1      20.051  51.880  48.643  1.00  0.00     0.032 A 
HETATM   15  H   UNL     1      22.684  51.178  49.649  1.00  0.00     0.167 HD
HETATM   16  C   UNL     1      18.851  51.794  47.927  1.00  0.00     0.002 A 
HETATM   17  C   UNL     1      18.603  50.736  47.048  1.00  0.00     0.002 A 
ENDBRANCH   7   8
BRANCH   1  18
HETATM   18  N   UNL     1      22.902  46.669  49.458  1.00  0.00    -0.312 N 
HETATM   19  C   UNL     1      22.521  45.598  48.685  1.00  0.00     0.222 C 
HETATM   20  O   UNL     1      23.146  45.107  47.752  1.00  0.00    -0.273 OA
HETATM   21  H   UNL     1      22.495  46.720  50.394  1.00  0.00     0.170 HD
BRANCH  19  22
HETATM   22  C   UNL     1      21.151  45.049  49.055  1.00  0.00     0.099 C 
HETATM   23  C   UNL     1      19.987  45.765  48.394  1.00  0.00     0.014 C 
ENDBRANCH  19  22
ENDBRANCH   1  18
BRANCH   2  24
HETATM   24  C   UNL     1      25.920  45.896  50.027  1.00  0.00     0.169 C 
BRANCH  24  25
HETATM   25  C   UNL     1      26.290  45.807  51.498  1.00  0.00    -0.040 A 
HETATM   26  C   UNL     1      27.012  44.683  51.930  1.00  0.00     0.011 A 
HETATM   27  C   UNL     1      27.429  44.564  53.260  1.00  0.00     0.037 A 
HETATM   28  C   UNL     1      27.149  45.569  54.185  1.00  0.00     0.068 A 
HETATM   29  C   UNL     1      26.419  46.681  53.776  1.00  0.00     0.037 A 
HETATM   30  C   UNL     1      25.989  46.796  52.447  1.00  0.00     0.011 A 
BRANCH  28  31
HETATM   31  O   UNL     1      27.633  45.345  55.445  1.00  0.00    -0.356 OA
HETATM   32  C   UNL     1      28.745  46.134  55.850  1.00  0.00     0.210 C 
ENDBRANCH  28  31
ENDBRANCH  24  25
ENDBRANCH   2  24
TORSDOF 6
ENDMDL
MODEL 9
REMARK VINA RESULT:      -8.7      3.235      5.351
REMARK  6 active torsions:
REMARK  status: ('A' for Active; 'I' for Inactive)
REMARK    1  A    between atoms: C_2  and  C_3 
REMARK       I    between atoms: C_3  and  N_4 
REMARK    2  A    between atoms: N_4  and  C_5 
REMARK    3  A    between atoms: N_6  and  C_7 
REMARK    4  A    between atoms: C_7  and  C_8 
REMARK    5  A    between atoms: C_11  and  O_12 
REMARK    6  A    between atoms: C_20  and  C_21 
ROOT
HETATM    1  C   UNL     1      24.379  46.388  49.739  1.00  0.00     0.125 A 
HETATM    2  N   UNL     1      23.218  46.275  48.992  1.00  0.00    -0.332 N 
HETATM    3  C   UNL     1      22.695  44.991  49.163  1.00  0.00     0.017 A 
HETATM    4  C   UNL     1      21.479  44.484  48.452  1.00  0.00     0.069 C 
HETATM    5  C   UNL     1      23.497  44.305  50.068  1.00  0.00    -0.022 A 
HETATM    6  C   UNL     1      23.284  42.904  50.527  1.00  0.00     0.051 C 
HETATM    7  C   UNL     1      24.551  45.190  50.423  1.00  0.00     0.062 A 
ENDROOT
BRANCH   7   8
HETATM    8  C   UNL     1      25.692  44.969  51.377  1.00  0.00     0.143 A 
HETATM    9  N   UNL     1      25.781  45.563  52.557  1.00  0.00    -0.228 NA
HETATM   10  C   UNL     1      26.909  45.051  53.148  1.00  0.00     0.086 A 
HETATM   11  C   UNL     1      27.539  44.143  52.308  1.00  0.00     0.062 A 
HETATM   12  C   UNL     1      27.455  45.310  54.413  1.00  0.00     0.034 A 
HETATM   13  N   UNL     1      26.754  44.124  51.185  1.00  0.00    -0.338 N 
HETATM   14  C   UNL     1      28.706  43.458  52.655  1.00  0.00     0.032 A 
HETATM   15  H   UNL     1      26.908  43.548  50.375  1.00  0.00     0.167 HD
HETATM   16  C   UNL     1      29.236  43.725  53.923  1.00  0.00     0.002 A 
HETATM   17  C   UNL     1      28.624  44.635  54.789  1.00  0.00     0.002 A 
ENDBRANCH   7   8
BRANCH   1  18
HETATM   18  N   UNL     1      25.295  47.435  49.799  1.00  0.00    -0.312 N 
HETATM   19  C   UNL     1      26.640  47.411  49.515  1.00  0.00     0.222 C 
HETATM   20  O   UNL     1      27.285  46.459  49.092  1.00  0.00    -0.273 OA
HETATM   21  H   UNL     1      24.842  48.351  49.770  1.00  0.00     0.170 HD
BRANCH  19  22
HETATM   22  C   UNL     1      27.341  48.726  49.826  1.00  0.00     0.099 C 
HETATM   23  C   UNL     1      27.223  49.775  48.736  1.00  0.00     0.014 C 
ENDBRANCH  19  22
ENDBRANCH   1  18
BRANCH   2  24
HETATM   24  C   UNL     1      22.694  47.226  48.004  1.00  0.00     0.169 C 
BRANCH  24  25
HETATM   25  C   UNL     1      21.975  48.434  48.578  1.00  0.00    -0.040 A 
HETATM   26  C   UNL     1      20.645  48.273  48.996  1.00  0.00     0.011 A 
HETATM   27  C   UNL     1      19.942  49.332  49.581  1.00  0.00     0.037 A 
HETATM   28  C   UNL     1      20.553  50.569  49.777  1.00  0.00     0.068 A 
HETATM   29  C   UNL     1      21.866  50.749  49.351  1.00  0.00     0.037 A 
HETATM   30  C   UNL     1      22.567  49.694  48.753  1.00  0.00     0.011 A 
BRANCH  28  31
HETATM   31  O   UNL     1      19.767  51.512  50.382  1.00  0.00    -0.356 OA
HETATM   32  C   UNL     1      18.648  51.979  49.640  1.00  0.00     0.210 C 
ENDBRANCH  28  31
ENDBRANCH  24  25
ENDBRANCH   2  24
TORSDOF 6
ENDMDL
MODEL 10
REMARK VINA RESULT:      -8.7      7.138     10.295
REMARK  6 active torsions:
REMARK  status: ('A' for Active; 'I' for Inactive)
REMARK    1  A    between atoms: C_2  and  C_3 
REMARK       I    between atoms: C_3  and  N_4 
REMARK    2  A    between atoms: N_4  and  C_5 
REMARK    3  A    between atoms: N_6  and  C_7 
REMARK    4  A    between atoms: C_7  and  C_8 
REMARK    5  A    between atoms: C_11  and  O_12 
REMARK    6  A    between atoms: C_20  and  C_21 
ROOT
HETATM    1  C   UNL     1      19.405  48.218  48.580  1.00  0.00     0.125 A 
HETATM    2  N   UNL     1      18.237  47.495  48.404  1.00  0.00    -0.332 N 
HETATM    3  C   UNL     1      18.564  46.207  47.974  1.00  0.00     0.017 A 
HETATM    4  C   UNL     1      17.551  45.164  47.616  1.00  0.00     0.069 C 
HETATM    5  C   UNL     1      19.949  46.094  47.931  1.00  0.00    -0.022 A 
HETATM    6  C   UNL     1      20.709  44.878  47.527  1.00  0.00     0.051 C 
HETATM    7  C   UNL     1      20.468  47.362  48.313  1.00  0.00     0.062 A 
ENDROOT
BRANCH   7   8
HETATM    8  C   UNL     1      21.901  47.796  48.451  1.00  0.00     0.143 A 
HETATM    9  N   UNL     1      22.406  48.852  47.835  1.00  0.00    -0.228 NA
HETATM   10  C   UNL     1      23.703  48.954  48.270  1.00  0.00     0.086 A 
HETATM   11  C   UNL     1      24.011  47.928  49.153  1.00  0.00     0.062 A 
HETATM   12  C   UNL     1      24.682  49.908  47.958  1.00  0.00     0.034 A 
HETATM   13  N   UNL     1      22.853  47.198  49.236  1.00  0.00    -0.338 N 
HETATM   14  C   UNL     1      25.259  47.787  49.763  1.00  0.00     0.032 A 
HETATM   15  H   UNL     1      22.714  46.388  49.815  1.00  0.00     0.167 HD
HETATM   16  C   UNL     1      26.223  48.751  49.445  1.00  0.00     0.002 A 
HETATM   17  C   UNL     1      25.943  49.795  48.558  1.00  0.00     0.002 A 
ENDBRANCH   7   8
BRANCH   1  18
HETATM   18  N   UNL     1      19.575  49.563  48.893  1.00  0.00    -0.312 N 
HETATM   19  C   UNL     1      19.194  50.231  50.033  1.00  0.00     0.222 C 
HETATM   20  O   UNL     1      18.674  49.744  51.030  1.00  0.00    -0.273 OA
HETATM   21  H   UNL     1      20.311  50.003  48.335  1.00  0.00     0.170 HD
BRANCH  19  22
HETATM   22  C   UNL     1      19.431  51.733  49.956  1.00  0.00     0.099 C 
HETATM   23  C   UNL     1      19.291  52.320  48.563  1.00  0.00     0.014 C 
ENDBRANCH  19  22
ENDBRANCH   1  18
BRANCH   2  24
HETATM   24  C   UNL     1      16.859  48.000  48.438  1.00  0.00     0.169 C 
BRANCH  24  25
HETATM   25  C   UNL     1      16.598  49.240  47.601  1.00  0.00    -0.040 A 
HETATM   26  C   UNL     1      15.978  50.337  48.221  1.00  0.00     0.011 A 
HETATM   27  C   UNL     1      15.756  51.528  47.522  1.00  0.00     0.037 A 
HETATM   28  C   UNL     1      16.161  51.658  46.194  1.00  0.00     0.068 A 
HETATM   29  C   UNL     1      16.760  50.573  45.560  1.00  0.00     0.037 A 
HETATM   30  C   UNL     1      16.971  49.376  46.255  1.00  0.00     0.011 A 
BRANCH  28  31
HETATM   31  O   UNL     1      15.909  52.880  45.631  1.00  0.00    -0.356 OA
HETATM   32  C   UNL     1      16.765  53.279  44.568  1.00  0.00     0.210 C 
ENDBRANCH  28  31
ENDBRANCH  24  25
ENDBRANCH   2  24
TORSDOF 6
ENDMDL
