MODEL 1
REMARK VINA RESULT:      -9.7      0.000      0.000
REMARK  7 active torsions:
REMARK  status: ('A' for Active; 'I' for Inactive)
REMARK    1  A    between atoms: O_2  and  C_3 
REMARK    2  A    between atoms: C_6  and  C_7 
REMARK    3  A    between atoms: C_11  and  C_12 
REMARK       I    between atoms: C_12  and  N_13 
REMARK    4  A    between atoms: N_13  and  N_14 
REMARK       I    between atoms: N_14  and  C_15 
REMARK    5  A    between atoms: C_15  and  C_16 
REMARK    6  A    between atoms: C_16  and  C_17 
REMARK    7  A    between atoms: C_17  and  C_18 
ROOT
HETATM    1  C   UNL     1      24.247  44.713  51.051  1.00  0.00     0.288 C 
HETATM    2  N   UNL     1      24.308  46.021  50.621  1.00  0.00    -0.262 N 
HETATM    3  O   UNL     1      23.299  43.978  50.773  1.00  0.00    -0.264 OA
HETATM    4  H   UNL     1      25.167  46.565  50.675  1.00  0.00     0.190 HD
ENDROOT
BRANCH   1   5
HETATM    5  C   UNL     1      25.372  44.274  51.831  1.00  0.00     0.121 A 
HETATM    6  N   UNL     1      25.828  42.987  51.791  1.00  0.00    -0.272 N 
HETATM    7  N   UNL     1      26.903  42.759  52.560  1.00  0.00    -0.174 NA
HETATM    8  H   UNL     1      25.446  42.221  51.244  1.00  0.00     0.189 HD
HETATM    9  C   UNL     1      27.157  43.938  53.150  1.00  0.00     0.089 A 
HETATM   10  C   UNL     1      26.214  44.913  52.718  1.00  0.00     0.071 A 
BRANCH   9  11
HETATM   11  C   UNL     1      28.279  44.120  54.077  1.00  0.00    -0.005 A 
HETATM   12  C   UNL     1      28.395  45.294  54.834  1.00  0.00     0.016 A 
HETATM   13  C   UNL     1      29.444  45.466  55.748  1.00  0.00     0.037 A 
HETATM   14  C   UNL     1      30.397  44.462  55.917  1.00  0.00     0.068 A 
HETATM   15  C   UNL     1      30.300  43.299  55.152  1.00  0.00     0.037 A 
HETATM   16  C   UNL     1      29.252  43.126  54.242  1.00  0.00     0.016 A 
BRANCH  14  17
HETATM   17  O   UNL     1      31.459  44.496  56.776  1.00  0.00    -0.356 OA
HETATM   18  C   UNL     1      31.952  43.243  57.233  1.00  0.00     0.210 C 
ENDBRANCH  14  17
ENDBRANCH   9  11
ENDBRANCH   1   5
BRANCH   2  19
HETATM   19  N   UNL     1      23.371  46.476  49.679  1.00  0.00    -0.267 N 
HETATM   20  C   UNL     1      23.421  47.819  49.357  1.00  0.00     0.236 C 
HETATM   21  O   UNL     1      24.137  48.611  49.967  1.00  0.00    -0.272 OA
HETATM   22  H   UNL     1      23.000  45.776  49.037  1.00  0.00     0.190 HD
BRANCH  20  23
HETATM   23  C   UNL     1      22.481  48.208  48.238  1.00  0.00     0.109 C 
BRANCH  23  24
HETATM   24  C   UNL     1      21.021  48.071  48.672  1.00  0.00     0.051 C 
BRANCH  24  25
HETATM   25  C   UNL     1      20.368  49.400  48.953  1.00  0.00    -0.019 A 
HETATM   26  C   UNL     1      19.368  49.520  49.921  1.00  0.00     0.122 A 
HETATM   27  F   UNL     1      18.984  48.442  50.621  1.00  0.00    -0.206 F 
HETATM   28  C   UNL     1      18.752  50.742  50.181  1.00  0.00     0.043 A 
HETATM   29  C   UNL     1      19.132  51.872  49.461  1.00  0.00     0.003 A 
HETATM   30  C   UNL     1      20.126  51.772  48.487  1.00  0.00     0.001 A 
HETATM   31  C   UNL     1      20.742  50.544  48.234  1.00  0.00     0.010 A 
ENDBRANCH  24  25
ENDBRANCH  23  24
ENDBRANCH  20  23
ENDBRANCH   2  19
TORSDOF 7
ENDMDL
MODEL 2
REMARK VINA RESULT:      -9.6      3.293     11.468
REMARK  7 active torsions:
REMARK  status: ('A' for Active; 'I' for Inactive)
REMARK    1  A    between atoms: O_2  and  C_3 
REMARK    2  A    between atoms: C_6  and  C_7 
REMARK    3  A    between atoms: C_11  and  C_12 
REMARK       I    between atoms: C_12  and  N_13 
REMARK    4  A    between atoms: N_13  and  N_14 
REMARK       I    between atoms: N_14  and  C_15 
REMARK    5  A    between atoms: C_15  and  C_16 
REMARK    6  A    between atoms: C_16  and  C_17 
REMARK    7  A    between atoms: C_17  and  C_18 
ROOT
HETATM    1  C   UNL     1      25.086  48.158  49.619  1.00  0.00     0.288 C 
HETATM    2  N   UNL     1      24.594  47.290  50.571  1.00  0.00    -0.262 N 
HETATM    3  O   UNL     1      26.285  48.220  49.351  1.00  0.00    -0.264 OA
HETATM    4  H   UNL     1      23.598  47.092  50.654  1.00  0.00     0.190 HD
ENDROOT
BRANCH   1   5
HETATM    5  C   UNL     1      24.095  48.966  48.961  1.00  0.00     0.121 A 
HETATM    6  N   UNL     1      24.391  49.737  47.873  1.00  0.00    -0.272 N 
HETATM    7  N   UNL     1      23.342  50.404  47.369  1.00  0.00    -0.174 NA
HETATM    8  H   UNL     1      25.297  49.837  47.424  1.00  0.00     0.189 HD
HETATM    9  C   UNL     1      22.314  50.079  48.169  1.00  0.00     0.089 A 
HETATM   10  C   UNL     1      22.750  49.179  49.183  1.00  0.00     0.071 A 
BRANCH   9  11
HETATM   11  C   UNL     1      20.960  50.600  47.949  1.00  0.00    -0.005 A 
HETATM   12  C   UNL     1      20.499  51.710  48.671  1.00  0.00     0.016 A 
HETATM   13  C   UNL     1      19.219  52.239  48.447  1.00  0.00     0.037 A 
HETATM   14  C   UNL     1      18.380  51.660  47.496  1.00  0.00     0.068 A 
HETATM   15  C   UNL     1      18.825  50.542  46.789  1.00  0.00     0.037 A 
HETATM   16  C   UNL     1      20.102  50.016  47.009  1.00  0.00     0.016 A 
BRANCH  14  17
HETATM   17  O   UNL     1      17.120  52.078  47.173  1.00  0.00    -0.356 OA
HETATM   18  C   UNL     1      16.137  51.998  48.197  1.00  0.00     0.210 C 
ENDBRANCH  14  17
ENDBRANCH   9  11
ENDBRANCH   1   5
BRANCH   2  19
HETATM   19  N   UNL     1      25.446  46.313  51.110  1.00  0.00    -0.267 N 
HETATM   20  C   UNL     1      25.853  46.502  52.417  1.00  0.00     0.236 C 
HETATM   21  O   UNL     1      25.616  47.540  53.032  1.00  0.00    -0.272 OA
HETATM   22  H   UNL     1      25.399  45.388  50.684  1.00  0.00     0.190 HD
BRANCH  20  23
HETATM   23  C   UNL     1      26.651  45.345  52.976  1.00  0.00     0.109 C 
BRANCH  23  24
HETATM   24  C   UNL     1      27.167  45.659  54.380  1.00  0.00     0.051 C 
BRANCH  24  25
HETATM   25  C   UNL     1      28.396  44.865  54.741  1.00  0.00    -0.019 A 
HETATM   26  C   UNL     1      29.318  45.350  55.673  1.00  0.00     0.122 A 
HETATM   27  F   UNL     1      29.108  46.535  56.265  1.00  0.00    -0.206 F 
HETATM   28  C   UNL     1      30.461  44.628  56.006  1.00  0.00     0.043 A 
HETATM   29  C   UNL     1      30.701  43.397  55.398  1.00  0.00     0.003 A 
HETATM   30  C   UNL     1      29.795  42.898  54.463  1.00  0.00     0.001 A 
HETATM   31  C   UNL     1      28.648  43.625  54.136  1.00  0.00     0.010 A 
ENDBRANCH  24  25
ENDBRANCH  23  24
ENDBRANCH  20  23
ENDBRANCH   2  19
TORSDOF 7
ENDMDL
MODEL 3
REMARK VINA RESULT:      -9.1      3.174     11.079
REMARK  7 active torsions:
REMARK  status: ('A' for Active; 'I' for Inactive)
REMARK    1  A    between atoms: O_2  and  C_3 
REMARK    2  A    between atoms: C_6  and  C_7 
REMARK    3  A    between atoms: C_11  and  C_12 
REMARK       I    between atoms: C_12  and  N_13 
REMARK    4  A    between atoms: N_13  and  N_14 
REMARK       I    between atoms: N_14  and  C_15 
REMARK    5  A    between atoms: C_15  and  C_16 
REMARK    6  A    between atoms: C_16  and  C_17 
REMARK    7  A    between atoms: C_17  and  C_18 
ROOT
HETATM    1  C   UNL     1      25.989  46.967  50.200  1.00  0.00     0.288 C 
HETATM    2  N   UNL     1      25.938  46.878  51.575  1.00  0.00    -0.262 N 
HETATM    3  O   UNL     1      26.745  46.265  49.529  1.00  0.00    -0.264 OA
HETATM    4  H   UNL     1      25.186  47.302  52.113  1.00  0.00     0.190 HD
ENDROOT
BRANCH   1   5
HETATM    5  C   UNL     1      25.089  47.925  49.617  1.00  0.00     0.121 A 
HETATM    6  N   UNL     1      25.536  49.045  48.975  1.00  0.00    -0.272 N 
HETATM    7  N   UNL     1      24.560  49.814  48.468  1.00  0.00    -0.174 NA
HETATM    8  H   UNL     1      26.502  49.330  48.844  1.00  0.00     0.189 HD
HETATM    9  C   UNL     1      23.421  49.189  48.806  1.00  0.00     0.089 A 
HETATM   10  C   UNL     1      23.714  48.000  49.531  1.00  0.00     0.071 A 
BRANCH   9  11
HETATM   11  C   UNL     1      22.104  49.709  48.425  1.00  0.00    -0.005 A 
HETATM   12  C   UNL     1      21.727  51.016  48.768  1.00  0.00     0.016 A 
HETATM   13  C   UNL     1      20.484  51.536  48.381  1.00  0.00     0.037 A 
HETATM   14  C   UNL     1      19.596  50.754  47.645  1.00  0.00     0.068 A 
HETATM   15  C   UNL     1      19.955  49.446  47.318  1.00  0.00     0.037 A 
HETATM   16  C   UNL     1      21.197  48.926  47.700  1.00  0.00     0.016 A 
BRANCH  14  17
HETATM   17  O   UNL     1      18.363  51.138  47.198  1.00  0.00    -0.356 OA
HETATM   18  C   UNL     1      17.239  50.636  47.909  1.00  0.00     0.210 C 
ENDBRANCH  14  17
ENDBRANCH   9  11
ENDBRANCH   1   5
BRANCH   2  19
HETATM   19  N   UNL     1      26.615  45.828  52.217  1.00  0.00    -0.267 N 
HETATM   20  C   UNL     1      26.273  45.589  53.535  1.00  0.00     0.236 C 
HETATM   21  O   UNL     1      25.534  46.341  54.166  1.00  0.00    -0.272 OA
HETATM   22  H   UNL     1      26.997  45.101  51.614  1.00  0.00     0.190 HD
BRANCH  20  23
HETATM   23  C   UNL     1      26.936  44.361  54.118  1.00  0.00     0.109 C 
BRANCH  23  24
HETATM   24  C   UNL     1      28.399  44.266  53.685  1.00  0.00     0.051 C 
BRANCH  24  25
HETATM   25  C   UNL     1      29.355  44.282  54.850  1.00  0.00    -0.019 A 
HETATM   26  C   UNL     1      29.484  45.413  55.661  1.00  0.00     0.122 A 
HETATM   27  F   UNL     1      28.742  46.502  55.409  1.00  0.00    -0.206 F 
HETATM   28  C   UNL     1      30.371  45.441  56.734  1.00  0.00     0.043 A 
HETATM   29  C   UNL     1      31.155  44.322  57.009  1.00  0.00     0.003 A 
HETATM   30  C   UNL     1      31.044  43.185  56.209  1.00  0.00     0.001 A 
HETATM   31  C   UNL     1      30.150  43.162  55.136  1.00  0.00     0.010 A 
ENDBRANCH  24  25
ENDBRANCH  23  24
ENDBRANCH  20  23
ENDBRANCH   2  19
TORSDOF 7
ENDMDL
MODEL 4
REMARK VINA RESULT:      -8.8      3.056     10.910
REMARK  7 active torsions:
REMARK  status: ('A' for Active; 'I' for Inactive)
REMARK    1  A    between atoms: O_2  and  C_3 
REMARK    2  A    between atoms: C_6  and  C_7 
REMARK    3  A    between atoms: C_11  and  C_12 
REMARK       I    between atoms: C_12  and  N_13 
REMARK    4  A    between atoms: N_13  and  N_14 
REMARK       I    between atoms: N_14  and  C_15 
REMARK    5  A    between atoms: C_15  and  C_16 
REMARK    6  A    between atoms: C_16  and  C_17 
REMARK    7  A    between atoms: C_17  and  C_18 
ROOT
HETATM    1  C   UNL     1      25.085  47.030  50.344  1.00  0.00     0.288 C 
HETATM    2  N   UNL     1      25.222  47.456  51.648  1.00  0.00    -0.262 N 
HETATM    3  O   UNL     1      25.952  46.363  49.780  1.00  0.00    -0.264 OA
HETATM    4  H   UNL     1      24.437  47.828  52.177  1.00  0.00     0.190 HD
ENDROOT
BRANCH   1   5
HETATM    5  C   UNL     1      23.855  47.411  49.704  1.00  0.00     0.121 A 
HETATM    6  N   UNL     1      22.988  46.491  49.186  1.00  0.00    -0.272 N 
HETATM    7  N   UNL     1      21.878  47.020  48.651  1.00  0.00    -0.174 NA
HETATM    8  H   UNL     1      23.102  45.481  49.179  1.00  0.00     0.189 HD
HETATM    9  C   UNL     1      22.023  48.346  48.804  1.00  0.00     0.089 A 
HETATM   10  C   UNL     1      23.255  48.630  49.459  1.00  0.00     0.071 A 
BRANCH   9  11
HETATM   11  C   UNL     1      21.004  49.299  48.353  1.00  0.00    -0.005 A 
HETATM   12  C   UNL     1      20.961  50.599  48.878  1.00  0.00     0.016 A 
HETATM   13  C   UNL     1      20.012  51.529  48.431  1.00  0.00     0.037 A 
HETATM   14  C   UNL     1      19.088  51.171  47.450  1.00  0.00     0.068 A 
HETATM   15  C   UNL     1      19.111  49.873  46.938  1.00  0.00     0.037 A 
HETATM   16  C   UNL     1      20.060  48.945  47.381  1.00  0.00     0.016 A 
BRANCH  14  17
HETATM   17  O   UNL     1      18.121  51.978  46.920  1.00  0.00    -0.356 OA
HETATM   18  C   UNL     1      16.857  51.974  47.571  1.00  0.00     0.210 C 
ENDBRANCH  14  17
ENDBRANCH   9  11
ENDBRANCH   1   5
BRANCH   2  19
HETATM   19  N   UNL     1      26.282  46.955  52.422  1.00  0.00    -0.267 N 
HETATM   20  C   UNL     1      26.278  47.290  53.763  1.00  0.00     0.236 C 
HETATM   21  O   UNL     1      25.485  48.105  54.231  1.00  0.00    -0.272 OA
HETATM   22  H   UNL     1      26.737  46.112  52.073  1.00  0.00     0.190 HD
BRANCH  20  23
HETATM   23  C   UNL     1      27.365  46.603  54.560  1.00  0.00     0.109 C 
BRANCH  23  24
HETATM   24  C   UNL     1      27.098  45.103  54.677  1.00  0.00     0.051 C 
BRANCH  24  25
HETATM   25  C   UNL     1      28.253  44.265  54.193  1.00  0.00    -0.019 A 
HETATM   26  C   UNL     1      28.259  43.721  52.905  1.00  0.00     0.122 A 
HETATM   27  F   UNL     1      27.227  43.952  52.079  1.00  0.00    -0.206 F 
HETATM   28  C   UNL     1      29.317  42.938  52.452  1.00  0.00     0.043 A 
HETATM   29  C   UNL     1      30.396  42.682  53.296  1.00  0.00     0.003 A 
HETATM   30  C   UNL     1      30.407  43.212  54.586  1.00  0.00     0.001 A 
HETATM   31  C   UNL     1      29.344  44.000  55.034  1.00  0.00     0.010 A 
ENDBRANCH  24  25
ENDBRANCH  23  24
ENDBRANCH  20  23
ENDBRANCH   2  19
TORSDOF 7
ENDMDL
MODEL 5
REMARK VINA RESULT:      -8.6      3.293     10.972
REMARK  7 active torsions:
REMARK  status: ('A' for Active; 'I' for Inactive)
REMARK    1  A    between atoms: O_2  and  C_3 
REMARK    2  A    between atoms: C_6  and  C_7 
REMARK    3  A    between atoms: C_11  and  C_12 
REMARK       I    between atoms: C_12  and  N_13 
REMARK    4  A    between atoms: N_13  and  N_14 
REMARK       I    between atoms: N_14  and  C_15 
REMARK    5  A    between atoms: C_15  and  C_16 
REMARK    6  A    between atoms: C_16  and  C_17 
REMARK    7  A    between atoms: C_17  and  C_18 
ROOT
HETATM    1  C   UNL     1      25.098  45.594  50.051  1.00  0.00     0.288 C 
HETATM    2  N   UNL     1      25.182  45.638  51.427  1.00  0.00    -0.262 N 
HETATM    3  O   UNL     1      25.883  44.936  49.370  1.00  0.00    -0.264 OA
HETATM    4  H   UNL     1      24.428  46.011  52.000  1.00  0.00     0.190 HD
ENDROOT
BRANCH   1   5
HETATM    5  C   UNL     1      24.023  46.361  49.482  1.00  0.00     0.121 A 
HETATM    6  N   UNL     1      23.119  45.814  48.615  1.00  0.00    -0.272 N 
HETATM    7  N   UNL     1      22.167  46.665  48.204  1.00  0.00    -0.174 NA
HETATM    8  H   UNL     1      23.100  44.856  48.277  1.00  0.00     0.189 HD
HETATM    9  C   UNL     1      22.464  47.828  48.806  1.00  0.00     0.089 A 
HETATM   10  C   UNL     1      23.626  47.676  49.614  1.00  0.00     0.071 A 
BRANCH   9  11
HETATM   11  C   UNL     1      21.647  49.032  48.622  1.00  0.00    -0.005 A 
HETATM   12  C   UNL     1      20.515  49.005  47.793  1.00  0.00     0.016 A 
HETATM   13  C   UNL     1      19.707  50.140  47.636  1.00  0.00     0.037 A 
HETATM   14  C   UNL     1      20.021  51.321  48.305  1.00  0.00     0.068 A 
HETATM   15  C   UNL     1      21.157  51.362  49.115  1.00  0.00     0.037 A 
HETATM   16  C   UNL     1      21.962  50.229  49.275  1.00  0.00     0.016 A 
BRANCH  14  17
HETATM   17  O   UNL     1      19.317  52.492  48.248  1.00  0.00    -0.356 OA
HETATM   18  C   UNL     1      18.112  52.550  49.000  1.00  0.00     0.210 C 
ENDBRANCH  14  17
ENDBRANCH   9  11
ENDBRANCH   1   5
BRANCH   2  19
HETATM   19  N   UNL     1      26.056  44.758  52.086  1.00  0.00    -0.267 N 
HETATM   20  C   UNL     1      26.403  45.089  53.382  1.00  0.00     0.236 C 
HETATM   21  O   UNL     1      26.096  46.168  53.887  1.00  0.00    -0.272 OA
HETATM   22  H   UNL     1      26.066  43.796  51.750  1.00  0.00     0.190 HD
BRANCH  20  23
HETATM   23  C   UNL     1      27.229  44.030  54.077  1.00  0.00     0.109 C 
BRANCH  23  24
HETATM   24  C   UNL     1      28.725  44.291  53.898  1.00  0.00     0.051 C 
BRANCH  24  25
HETATM   25  C   UNL     1      29.428  44.575  55.200  1.00  0.00    -0.019 A 
HETATM   26  C   UNL     1      30.533  43.818  55.601  1.00  0.00     0.122 A 
HETATM   27  F   UNL     1      30.985  42.830  54.816  1.00  0.00    -0.206 F 
HETATM   28  C   UNL     1      31.183  44.067  56.807  1.00  0.00     0.043 A 
HETATM   29  C   UNL     1      30.726  45.085  57.640  1.00  0.00     0.003 A 
HETATM   30  C   UNL     1      29.622  45.849  57.260  1.00  0.00     0.001 A 
HETATM   31  C   UNL     1      28.976  45.598  56.047  1.00  0.00     0.010 A 
ENDBRANCH  24  25
ENDBRANCH  23  24
ENDBRANCH  20  23
ENDBRANCH   2  19
TORSDOF 7
ENDMDL
MODEL 6
REMARK VINA RESULT:      -8.6      1.941      2.824
REMARK  7 active torsions:
REMARK  status: ('A' for Active; 'I' for Inactive)
REMARK    1  A    between atoms: O_2  and  C_3 
REMARK    2  A    between atoms: C_6  and  C_7 
REMARK    3  A    between atoms: C_11  and  C_12 
REMARK       I    between atoms: C_12  and  N_13 
REMARK    4  A    between atoms: N_13  and  N_14 
REMARK       I    between atoms: N_14  and  C_15 
REMARK    5  A    between atoms: C_15  and  C_16 
REMARK    6  A    between atoms: C_16  and  C_17 
REMARK    7  A    between atoms: C_17  and  C_18 
ROOT
HETATM    1  C   UNL     1      24.294  47.894  49.697  1.00  0.00     0.288 C 
HETATM    2  N   UNL     1      22.933  48.090  49.791  1.00  0.00    -0.262 N 
HETATM    3  O   UNL     1      24.954  48.339  48.758  1.00  0.00    -0.264 OA
HETATM    4  H   UNL     1      22.421  47.903  50.651  1.00  0.00     0.190 HD
ENDROOT
BRANCH   1   5
HETATM    5  C   UNL     1      24.878  47.148  50.778  1.00  0.00     0.121 A 
HETATM    6  N   UNL     1      24.386  45.938  51.177  1.00  0.00    -0.272 N 
HETATM    7  N   UNL     1      25.069  45.369  52.181  1.00  0.00    -0.174 NA
HETATM    8  H   UNL     1      23.586  45.446  50.788  1.00  0.00     0.189 HD
HETATM    9  C   UNL     1      26.042  46.248  52.474  1.00  0.00     0.089 A 
HETATM   10  C   UNL     1      25.951  47.379  51.615  1.00  0.00     0.071 A 
BRANCH   9  11
HETATM   11  C   UNL     1      27.030  45.994  53.527  1.00  0.00    -0.005 A 
HETATM   12  C   UNL     1      27.338  46.986  54.469  1.00  0.00     0.016 A 
HETATM   13  C   UNL     1      28.256  46.745  55.501  1.00  0.00     0.037 A 
HETATM   14  C   UNL     1      28.883  45.504  55.604  1.00  0.00     0.068 A 
HETATM   15  C   UNL     1      28.597  44.519  54.658  1.00  0.00     0.037 A 
HETATM   16  C   UNL     1      27.679  44.758  53.631  1.00  0.00     0.016 A 
BRANCH  14  17
HETATM   17  O   UNL     1      29.786  45.134  56.561  1.00  0.00    -0.356 OA
HETATM   18  C   UNL     1      30.882  44.337  56.132  1.00  0.00     0.210 C 
ENDBRANCH  14  17
ENDBRANCH   9  11
ENDBRANCH   1   5
BRANCH   2  19
HETATM   19  N   UNL     1      22.308  48.984  48.905  1.00  0.00    -0.267 N 
HETATM   20  C   UNL     1      22.181  50.291  49.335  1.00  0.00     0.236 C 
HETATM   21  O   UNL     1      22.455  50.631  50.485  1.00  0.00    -0.272 OA
HETATM   22  H   UNL     1      22.342  48.737  47.916  1.00  0.00     0.190 HD
BRANCH  20  23
HETATM   23  C   UNL     1      21.630  51.224  48.280  1.00  0.00     0.109 C 
BRANCH  23  24
HETATM   24  C   UNL     1      20.234  51.720  48.658  1.00  0.00     0.051 C 
BRANCH  24  25
HETATM   25  C   UNL     1      19.137  50.814  48.162  1.00  0.00    -0.019 A 
HETATM   26  C   UNL     1      18.214  50.250  49.046  1.00  0.00     0.122 A 
HETATM   27  F   UNL     1      18.293  50.523  50.357  1.00  0.00    -0.206 F 
HETATM   28  C   UNL     1      17.203  49.404  48.599  1.00  0.00     0.043 A 
HETATM   29  C   UNL     1      17.106  49.103  47.242  1.00  0.00     0.003 A 
HETATM   30  C   UNL     1      18.021  49.652  46.343  1.00  0.00     0.001 A 
HETATM   31  C   UNL     1      19.030  50.503  46.798  1.00  0.00     0.010 A 
ENDBRANCH  24  25
ENDBRANCH  23  24
ENDBRANCH  20  23
ENDBRANCH   2  19
TORSDOF 7
ENDMDL
MODEL 7
REMARK VINA RESULT:      -8.4      2.246      3.621
REMARK  7 active torsions:
REMARK  status: ('A' for Active; 'I' for Inactive)
REMARK    1  A    between atoms: O_2  and  C_3 
REMARK    2  A    between atoms: C_6  and  C_7 
REMARK    3  A    between atoms: C_11  and  C_12 
REMARK       I    between atoms: C_12  and  N_13 
REMARK    4  A    between atoms: N_13  and  N_14 
REMARK       I    between atoms: N_14  and  C_15 
REMARK    5  A    between atoms: C_15  and  C_16 
REMARK    6  A    between atoms: C_16  and  C_17 
REMARK    7  A    between atoms: C_17  and  C_18 
ROOT
HETATM    1  C   UNL     1      24.237  48.458  49.667  1.00  0.00     0.288 C 
HETATM    2  N   UNL     1      22.867  48.601  49.610  1.00  0.00    -0.262 N 
HETATM    3  O   UNL     1      25.000  49.282  49.163  1.00  0.00    -0.264 OA
HETATM    4  H   UNL     1      22.244  48.041  50.189  1.00  0.00     0.190 HD
ENDROOT
BRANCH   1   5
HETATM    5  C   UNL     1      24.700  47.291  50.367  1.00  0.00     0.121 A 
HETATM    6  N   UNL     1      24.018  46.107  50.339  1.00  0.00    -0.272 N 
HETATM    7  N   UNL     1      24.608  45.116  51.024  1.00  0.00    -0.174 NA
HETATM    8  H   UNL     1      23.145  45.918  49.856  1.00  0.00     0.189 HD
HETATM    9  C   UNL     1      25.715  45.671  51.544  1.00  0.00     0.089 A 
HETATM   10  C   UNL     1      25.805  47.037  51.155  1.00  0.00     0.071 A 
BRANCH   9  11
HETATM   11  C   UNL     1      26.657  44.905  52.366  1.00  0.00    -0.005 A 
HETATM   12  C   UNL     1      27.278  43.755  51.856  1.00  0.00     0.016 A 
HETATM   13  C   UNL     1      28.206  43.034  52.621  1.00  0.00     0.037 A 
HETATM   14  C   UNL     1      28.525  43.452  53.911  1.00  0.00     0.068 A 
HETATM   15  C   UNL     1      27.895  44.582  54.434  1.00  0.00     0.037 A 
HETATM   16  C   UNL     1      26.972  45.305  53.671  1.00  0.00     0.016 A 
BRANCH  14  17
HETATM   17  O   UNL     1      29.414  42.849  54.757  1.00  0.00    -0.356 OA
HETATM   18  C   UNL     1      30.436  43.673  55.303  1.00  0.00     0.210 C 
ENDBRANCH  14  17
ENDBRANCH   9  11
ENDBRANCH   1   5
BRANCH   2  19
HETATM   19  N   UNL     1      22.324  49.808  49.142  1.00  0.00    -0.267 N 
HETATM   20  C   UNL     1      20.990  50.035  49.422  1.00  0.00     0.236 C 
HETATM   21  O   UNL     1      20.269  49.169  49.917  1.00  0.00    -0.272 OA
HETATM   22  H   UNL     1      22.984  50.570  48.987  1.00  0.00     0.190 HD
BRANCH  20  23
HETATM   23  C   UNL     1      20.511  51.410  49.013  1.00  0.00     0.109 C 
BRANCH  23  24
HETATM   24  C   UNL     1      19.458  51.321  47.909  1.00  0.00     0.051 C 
BRANCH  24  25
HETATM   25  C   UNL     1      18.077  51.691  48.387  1.00  0.00    -0.019 A 
HETATM   26  C   UNL     1      16.939  51.277  47.690  1.00  0.00     0.122 A 
HETATM   27  F   UNL     1      17.069  50.531  46.583  1.00  0.00    -0.206 F 
HETATM   28  C   UNL     1      15.660  51.621  48.119  1.00  0.00     0.043 A 
HETATM   29  C   UNL     1      15.503  52.400  49.264  1.00  0.00     0.003 A 
HETATM   30  C   UNL     1      16.627  52.827  49.971  1.00  0.00     0.001 A 
HETATM   31  C   UNL     1      17.907  52.475  49.538  1.00  0.00     0.010 A 
ENDBRANCH  24  25
ENDBRANCH  23  24
ENDBRANCH  20  23
ENDBRANCH   2  19
TORSDOF 7
ENDMDL
MODEL 8
REMARK VINA RESULT:      -8.4      6.761     10.348
REMARK  7 active torsions:
REMARK  status: ('A' for Active; 'I' for Inactive)
REMARK    1  A    between atoms: O_2  and  C_3 
REMARK    2  A    between atoms: C_6  and  C_7 
REMARK    3  A    between atoms: C_11  and  C_12 
REMARK       I    between atoms: C_12  and  N_13 
REMARK    4  A    between atoms: N_13  and  N_14 
REMARK       I    between atoms: N_14  and  C_15 
REMARK    5  A    between atoms: C_15  and  C_16 
REMARK    6  A    between atoms: C_16  and  C_17 
REMARK    7  A    between atoms: C_17  and  C_18 
ROOT
HETATM    1  C   UNL     1      28.071  42.917  52.023  1.00  0.00     0.288 C 
HETATM    2  N   UNL     1      27.140  43.852  52.424  1.00  0.00    -0.262 N 
HETATM    3  O   UNL     1      29.266  43.030  52.293  1.00  0.00    -0.264 OA
HETATM    4  H   UNL     1      26.140  43.668  52.380  1.00  0.00     0.190 HD
ENDROOT
BRANCH   1   5
HETATM    5  C   UNL     1      27.538  41.805  51.283  1.00  0.00     0.121 A 
HETATM    6  N   UNL     1      26.208  41.492  51.297  1.00  0.00    -0.272 N 
HETATM    7  N   UNL     1      25.882  40.442  50.529  1.00  0.00    -0.174 NA
HETATM    8  H   UNL     1      25.474  41.973  51.808  1.00  0.00     0.189 HD
HETATM    9  C   UNL     1      27.046  40.029  50.002  1.00  0.00     0.089 A 
HETATM   10  C   UNL     1      28.109  40.860  50.456  1.00  0.00     0.071 A 
BRANCH   9  11
HETATM   11  C   UNL     1      27.124  38.890  49.081  1.00  0.00    -0.005 A 
HETATM   12  C   UNL     1      27.562  39.070  47.760  1.00  0.00     0.016 A 
HETATM   13  C   UNL     1      27.672  37.984  46.880  1.00  0.00     0.037 A 
HETATM   14  C   UNL     1      27.343  36.700  47.309  1.00  0.00     0.068 A 
HETATM   15  C   UNL     1      26.886  36.516  48.615  1.00  0.00     0.037 A 
HETATM   16  C   UNL     1      26.779  37.598  49.495  1.00  0.00     0.016 A 
BRANCH  14  17
HETATM   17  O   UNL     1      27.413  35.557  46.561  1.00  0.00    -0.356 OA
HETATM   18  C   UNL     1      26.388  34.594  46.767  1.00  0.00     0.210 C 
ENDBRANCH  14  17
ENDBRANCH   9  11
ENDBRANCH   1   5
BRANCH   2  19
HETATM   19  N   UNL     1      27.524  44.854  53.329  1.00  0.00    -0.267 N 
HETATM   20  C   UNL     1      26.987  44.776  54.600  1.00  0.00     0.236 C 
HETATM   21  O   UNL     1      26.104  43.970  54.889  1.00  0.00    -0.272 OA
HETATM   22  H   UNL     1      28.414  45.315  53.143  1.00  0.00     0.190 HD
BRANCH  20  23
HETATM   23  C   UNL     1      27.551  45.801  55.559  1.00  0.00     0.109 C 
BRANCH  23  24
HETATM   24  C   UNL     1      29.028  46.072  55.270  1.00  0.00     0.051 C 
BRANCH  24  25
HETATM   25  C   UNL     1      29.950  45.160  56.035  1.00  0.00    -0.019 A 
HETATM   26  C   UNL     1      30.315  45.445  57.354  1.00  0.00     0.122 A 
HETATM   27  F   UNL     1      29.833  46.542  57.957  1.00  0.00    -0.206 F 
HETATM   28  C   UNL     1      31.174  44.612  58.066  1.00  0.00     0.043 A 
HETATM   29  C   UNL     1      31.691  43.471  57.457  1.00  0.00     0.003 A 
HETATM   30  C   UNL     1      31.343  43.171  56.140  1.00  0.00     0.001 A 
HETATM   31  C   UNL     1      30.477  44.008  55.432  1.00  0.00     0.010 A 
ENDBRANCH  24  25
ENDBRANCH  23  24
ENDBRANCH  20  23
ENDBRANCH   2  19
TORSDOF 7
ENDMDL
MODEL 9
REMARK VINA RESULT:      -8.3      2.014      2.934
REMARK  7 active torsions:
REMARK  status: ('A' for Active; 'I' for Inactive)
REMARK    1  A    between atoms: O_2  and  C_3 
REMARK    2  A    between atoms: C_6  and  C_7 
REMARK    3  A    between atoms: C_11  and  C_12 
REMARK       I    between atoms: C_12  and  N_13 
REMARK    4  A    between atoms: N_13  and  N_14 
REMARK       I    between atoms: N_14  and  C_15 
REMARK    5  A    between atoms: C_15  and  C_16 
REMARK    6  A    between atoms: C_16  and  C_17 
REMARK    7  A    between atoms: C_17  and  C_18 
ROOT
HETATM    1  C   UNL     1      23.954  47.776  50.017  1.00  0.00     0.288 C 
HETATM    2  N   UNL     1      22.739  47.248  49.633  1.00  0.00    -0.262 N 
HETATM    3  O   UNL     1      24.353  48.863  49.603  1.00  0.00    -0.264 OA
HETATM    4  H   UNL     1      22.319  46.458  50.119  1.00  0.00     0.190 HD
ENDROOT
BRANCH   1   5
HETATM    5  C   UNL     1      24.705  46.968  50.940  1.00  0.00     0.121 A 
HETATM    6  N   UNL     1      24.510  45.621  51.053  1.00  0.00    -0.272 N 
HETATM    7  N   UNL     1      25.315  45.021  51.942  1.00  0.00    -0.174 NA
HETATM    8  H   UNL     1      23.843  45.055  50.536  1.00  0.00     0.189 HD
HETATM    9  C   UNL     1      26.060  46.014  52.454  1.00  0.00     0.089 A 
HETATM   10  C   UNL     1      25.702  47.253  51.851  1.00  0.00     0.071 A 
BRANCH   9  11
HETATM   11  C   UNL     1      27.089  45.772  53.471  1.00  0.00    -0.005 A 
HETATM   12  C   UNL     1      27.758  44.541  53.529  1.00  0.00     0.016 A 
HETATM   13  C   UNL     1      28.767  44.309  54.475  1.00  0.00     0.037 A 
HETATM   14  C   UNL     1      29.119  45.308  55.381  1.00  0.00     0.068 A 
HETATM   15  C   UNL     1      28.443  46.528  55.343  1.00  0.00     0.037 A 
HETATM   16  C   UNL     1      27.439  46.762  54.397  1.00  0.00     0.016 A 
BRANCH  14  17
HETATM   17  O   UNL     1      30.085  45.219  56.343  1.00  0.00    -0.356 OA
HETATM   18  C   UNL     1      29.812  45.855  57.585  1.00  0.00     0.210 C 
ENDBRANCH  14  17
ENDBRANCH   9  11
ENDBRANCH   1   5
BRANCH   2  19
HETATM   19  N   UNL     1      21.843  48.053  48.911  1.00  0.00    -0.267 N 
HETATM   20  C   UNL     1      21.550  47.648  47.623  1.00  0.00     0.236 C 
HETATM   21  O   UNL     1      22.151  46.725  47.075  1.00  0.00    -0.272 OA
HETATM   22  H   UNL     1      21.198  48.618  49.463  1.00  0.00     0.190 HD
BRANCH  20  23
HETATM   23  C   UNL     1      20.475  48.477  46.957  1.00  0.00     0.109 C 
BRANCH  23  24
HETATM   24  C   UNL     1      20.558  49.940  47.394  1.00  0.00     0.051 C 
BRANCH  24  25
HETATM   25  C   UNL     1      19.264  50.451  47.974  1.00  0.00    -0.019 A 
HETATM   26  C   UNL     1      19.162  51.754  48.470  1.00  0.00     0.122 A 
HETATM   27  F   UNL     1      20.225  52.571  48.423  1.00  0.00    -0.206 F 
HETATM   28  C   UNL     1      17.974  52.231  49.016  1.00  0.00     0.043 A 
HETATM   29  C   UNL     1      16.859  51.397  49.079  1.00  0.00     0.003 A 
HETATM   30  C   UNL     1      16.942  50.092  48.594  1.00  0.00     0.001 A 
HETATM   31  C   UNL     1      18.136  49.620  48.044  1.00  0.00     0.010 A 
ENDBRANCH  24  25
ENDBRANCH  23  24
ENDBRANCH  20  23
ENDBRANCH   2  19
TORSDOF 7
ENDMDL
MODEL 10
REMARK VINA RESULT:      -8.3      7.488     11.118
REMARK  7 active torsions:
REMARK  status: ('A' for Active; 'I' for Inactive)
REMARK    1  A    between atoms: O_2  and  C_3 
REMARK    2  A    between atoms: C_6  and  C_7 
REMARK    3  A    between atoms: C_11  and  C_12 
REMARK       I    between atoms: C_12  and  N_13 
REMARK    4  A    between atoms: N_13  and  N_14 
REMARK       I    between atoms: N_14  and  C_15 
REMARK    5  A    between atoms: C_15  and  C_16 
REMARK    6  A    between atoms: C_16  and  C_17 
REMARK    7  A    between atoms: C_17  and  C_18 
ROOT
HETATM    1  C   UNL     1      27.036  40.801  51.183  1.00  0.00     0.288 C 
HETATM    2  N   UNL     1      27.673  40.647  52.396  1.00  0.00    -0.262 N 
HETATM    3  O   UNL     1      26.154  41.640  51.011  1.00  0.00    -0.264 OA
HETATM    4  H   UNL     1      28.528  40.103  52.489  1.00  0.00     0.190 HD
ENDROOT
BRANCH   1   5
HETATM    5  C   UNL     1      27.489  39.919  50.141  1.00  0.00     0.121 A 
HETATM    6  N   UNL     1      28.011  38.685  50.408  1.00  0.00    -0.272 N 
HETATM    7  N   UNL     1      28.357  37.986  49.316  1.00  0.00    -0.174 NA
HETATM    8  H   UNL     1      28.144  38.263  51.322  1.00  0.00     0.189 HD
HETATM    9  C   UNL     1      28.072  38.798  48.286  1.00  0.00     0.089 A 
HETATM   10  C   UNL     1      27.529  40.023  48.765  1.00  0.00     0.071 A 
BRANCH   9  11
HETATM   11  C   UNL     1      28.298  38.398  46.893  1.00  0.00    -0.005 A 
HETATM   12  C   UNL     1      27.963  39.261  45.840  1.00  0.00     0.016 A 
HETATM   13  C   UNL     1      28.205  38.904  44.506  1.00  0.00     0.037 A 
HETATM   14  C   UNL     1      28.785  37.672  44.205  1.00  0.00     0.068 A 
HETATM   15  C   UNL     1      29.102  36.799  45.247  1.00  0.00     0.037 A 
HETATM   16  C   UNL     1      28.864  37.156  46.578  1.00  0.00     0.016 A 
BRANCH  14  17
HETATM   17  O   UNL     1      29.082  37.205  42.956  1.00  0.00    -0.356 OA
HETATM   18  C   UNL     1      28.065  37.324  41.969  1.00  0.00     0.210 C 
ENDBRANCH  14  17
ENDBRANCH   9  11
ENDBRANCH   1   5
BRANCH   2  19
HETATM   19  N   UNL     1      27.456  41.598  53.407  1.00  0.00    -0.267 N 
HETATM   20  C   UNL     1      28.376  42.625  53.495  1.00  0.00     0.236 C 
HETATM   21  O   UNL     1      29.414  42.633  52.834  1.00  0.00    -0.272 OA
HETATM   22  H   UNL     1      26.496  41.699  53.733  1.00  0.00     0.190 HD
BRANCH  20  23
HETATM   23  C   UNL     1      28.005  43.684  54.509  1.00  0.00     0.109 C 
BRANCH  23  24
HETATM   24  C   UNL     1      29.053  44.796  54.554  1.00  0.00     0.051 C 
BRANCH  24  25
HETATM   25  C   UNL     1      29.762  44.877  55.881  1.00  0.00    -0.019 A 
HETATM   26  C   UNL     1      30.785  43.983  56.207  1.00  0.00     0.122 A 
HETATM   27  F   UNL     1      31.154  43.041  55.326  1.00  0.00    -0.206 F 
HETATM   28  C   UNL     1      31.439  44.044  57.435  1.00  0.00     0.043 A 
HETATM   29  C   UNL     1      31.068  45.011  58.366  1.00  0.00     0.003 A 
HETATM   30  C   UNL     1      30.046  45.911  58.062  1.00  0.00     0.001 A 
HETATM   31  C   UNL     1      29.396  45.846  56.827  1.00  0.00     0.010 A 
ENDBRANCH  24  25
ENDBRANCH  23  24
ENDBRANCH  20  23
ENDBRANCH   2  19
TORSDOF 7
ENDMDL
