MODEL 1
REMARK VINA RESULT:      -9.0      0.000      0.000
REMARK  6 active torsions:
REMARK  status: ('A' for Active; 'I' for Inactive)
REMARK    1  A    between atoms: C_2  and  C_3 
REMARK    2  A    between atoms: C_2  and  C_9 
REMARK    3  A    between atoms: C_9  and  N_10 
REMARK       I    between atoms: N_10  and  C_11 
REMARK       I    between atoms: C_11  and  N_12 
REMARK    4  A    between atoms: N_12  and  C_13 
REMARK    5  A    between atoms: C_16  and  N_17 
REMARK       I    between atoms: N_17  and  C_18 
REMARK    6  A    between atoms: C_18  and  C_19 
ROOT
HETATM    1  N   UNL     1      23.150  47.872  49.590  1.00  0.00    -0.342 N 
HETATM    2  C   UNL     1      24.385  47.581  50.133  1.00  0.00     0.320 C 
HETATM    3  N   UNL     1      24.303  46.520  51.007  1.00  0.00    -0.309 N 
HETATM    4  O   UNL     1      25.396  48.200  49.829  1.00  0.00    -0.247 OA
HETATM    5  H   UNL     1      22.336  47.595  50.120  1.00  0.00     0.164 HD
HETATM    6  H   UNL     1      23.482  45.943  50.910  1.00  0.00     0.170 HD
ENDROOT
BRANCH   3   7
HETATM    7  C   UNL     1      25.337  46.023  51.827  1.00  0.00     0.036 A 
HETATM    8  C   UNL     1      26.117  44.915  51.497  1.00  0.00     0.032 A 
HETATM    9  C   UNL     1      27.133  44.471  52.354  1.00  0.00     0.032 A 
HETATM   10  C   UNL     1      27.386  45.127  53.557  1.00  0.00     0.035 A 
HETATM   11  C   UNL     1      26.614  46.247  53.883  1.00  0.00     0.032 A 
HETATM   12  C   UNL     1      25.604  46.697  53.022  1.00  0.00     0.032 A 
BRANCH  10  13
HETATM   13  N   UNL     1      28.368  44.725  54.481  1.00  0.00    -0.321 N 
HETATM   14  C   UNL     1      29.181  45.522  55.268  1.00  0.00     0.279 C 
HETATM   15  O   UNL     1      29.139  46.746  55.330  1.00  0.00    -0.265 OA
HETATM   16  H   UNL     1      28.520  43.728  54.592  1.00  0.00     0.169 HD
BRANCH  14  17
HETATM   17  C   UNL     1      30.127  44.750  56.056  1.00  0.00     0.142 A 
HETATM   18  O   UNL     1      30.484  45.187  57.307  1.00  0.00    -0.317 OA
HETATM   19  C   UNL     1      31.356  44.277  57.813  1.00  0.00     0.143 A 
HETATM   20  C   UNL     1      31.575  43.262  56.913  1.00  0.00     0.027 A 
HETATM   21  C   UNL     1      30.783  43.565  55.780  1.00  0.00     0.045 A 
ENDBRANCH  14  17
ENDBRANCH  10  13
ENDBRANCH   3   7
BRANCH   1  22
HETATM   22  C   UNL     1      22.979  48.968  48.647  1.00  0.00     0.138 C 
BRANCH  22  23
HETATM   23  C   UNL     1      21.712  49.843  48.898  1.00  0.00    -0.004 C 
HETATM   24  C   UNL     1      21.618  50.888  47.757  1.00  0.00     0.021 C 
HETATM   25  C   UNL     1      21.888  50.649  50.206  1.00  0.00     0.021 C 
BRANCH  23  26
HETATM   26  C   UNL     1      20.444  48.966  48.881  1.00  0.00    -0.046 A 
HETATM   27  C   UNL     1      19.533  49.008  49.950  1.00  0.00     0.027 A 
HETATM   28  C   UNL     1      18.394  48.215  49.914  1.00  0.00     0.116 A 
HETATM   29  N   UNL     1      18.087  47.391  48.895  1.00  0.00    -0.273 NA
HETATM   30  C   UNL     1      18.966  47.350  47.875  1.00  0.00     0.116 A 
HETATM   31  C   UNL     1      20.132  48.104  47.822  1.00  0.00     0.027 A 
ENDBRANCH  23  26
ENDBRANCH  22  23
ENDBRANCH   1  22
TORSDOF 6
ENDMDL
MODEL 2
REMARK VINA RESULT:      -8.9      1.342      2.203
REMARK  6 active torsions:
REMARK  status: ('A' for Active; 'I' for Inactive)
REMARK    1  A    between atoms: C_2  and  C_3 
REMARK    2  A    between atoms: C_2  and  C_9 
REMARK    3  A    between atoms: C_9  and  N_10 
REMARK       I    between atoms: N_10  and  C_11 
REMARK       I    between atoms: C_11  and  N_12 
REMARK    4  A    between atoms: N_12  and  C_13 
REMARK    5  A    between atoms: C_16  and  N_17 
REMARK       I    between atoms: N_17  and  C_18 
REMARK    6  A    between atoms: C_18  and  C_19 
ROOT
HETATM    1  N   UNL     1      23.146  46.092  49.085  1.00  0.00    -0.342 N 
HETATM    2  C   UNL     1      24.138  46.267  50.028  1.00  0.00     0.320 C 
HETATM    3  N   UNL     1      24.563  45.057  50.530  1.00  0.00    -0.309 N 
HETATM    4  O   UNL     1      24.567  47.373  50.329  1.00  0.00    -0.247 OA
HETATM    5  H   UNL     1      22.602  45.243  49.140  1.00  0.00     0.164 HD
HETATM    6  H   UNL     1      24.333  44.252  49.968  1.00  0.00     0.170 HD
ENDROOT
BRANCH   3   7
HETATM    7  C   UNL     1      25.476  44.857  51.586  1.00  0.00     0.036 A 
HETATM    8  C   UNL     1      25.147  45.026  52.930  1.00  0.00     0.032 A 
HETATM    9  C   UNL     1      26.099  44.809  53.936  1.00  0.00     0.032 A 
HETATM   10  C   UNL     1      27.398  44.421  53.613  1.00  0.00     0.035 A 
HETATM   11  C   UNL     1      27.725  44.237  52.265  1.00  0.00     0.032 A 
HETATM   12  C   UNL     1      26.771  44.444  51.261  1.00  0.00     0.032 A 
BRANCH  10  13
HETATM   13  N   UNL     1      28.415  44.212  54.562  1.00  0.00    -0.321 N 
HETATM   14  C   UNL     1      29.169  45.158  55.233  1.00  0.00     0.279 C 
HETATM   15  O   UNL     1      29.031  46.374  55.148  1.00  0.00    -0.265 OA
HETATM   16  H   UNL     1      28.647  43.251  54.789  1.00  0.00     0.169 HD
BRANCH  14  17
HETATM   17  C   UNL     1      30.179  44.563  56.092  1.00  0.00     0.142 A 
HETATM   18  O   UNL     1      30.481  45.154  57.294  1.00  0.00    -0.317 OA
HETATM   19  C   UNL     1      31.433  44.387  57.886  1.00  0.00     0.143 A 
HETATM   20  C   UNL     1      31.757  43.315  57.089  1.00  0.00     0.027 A 
HETATM   21  C   UNL     1      30.950  43.427  55.932  1.00  0.00     0.045 A 
ENDBRANCH  14  17
ENDBRANCH  10  13
ENDBRANCH   3   7
BRANCH   1  22
HETATM   22  C   UNL     1      22.527  47.229  48.421  1.00  0.00     0.138 C 
BRANCH  22  23
HETATM   23  C   UNL     1      20.983  47.101  48.229  1.00  0.00    -0.004 C 
HETATM   24  C   UNL     1      20.561  45.681  48.681  1.00  0.00     0.021 C 
HETATM   25  C   UNL     1      20.637  47.194  46.724  1.00  0.00     0.021 C 
BRANCH  23  26
HETATM   26  C   UNL     1      20.248  48.143  49.095  1.00  0.00    -0.046 A 
HETATM   27  C   UNL     1      19.029  47.822  49.716  1.00  0.00     0.027 A 
HETATM   28  C   UNL     1      18.385  48.772  50.498  1.00  0.00     0.116 A 
HETATM   29  N   UNL     1      18.862  50.012  50.716  1.00  0.00    -0.273 NA
HETATM   30  C   UNL     1      20.029  50.316  50.114  1.00  0.00     0.116 A 
HETATM   31  C   UNL     1      20.744  49.434  49.313  1.00  0.00     0.027 A 
ENDBRANCH  23  26
ENDBRANCH  22  23
ENDBRANCH   1  22
TORSDOF 6
ENDMDL
MODEL 3
REMARK VINA RESULT:      -8.7      2.800     11.233
REMARK  6 active torsions:
REMARK  status: ('A' for Active; 'I' for Inactive)
REMARK    1  A    between atoms: C_2  and  C_3 
REMARK    2  A    between atoms: C_2  and  C_9 
REMARK    3  A    between atoms: C_9  and  N_10 
REMARK       I    between atoms: N_10  and  C_11 
REMARK       I    between atoms: C_11  and  N_12 
REMARK    4  A    between atoms: N_12  and  C_13 
REMARK    5  A    between atoms: C_16  and  N_17 
REMARK       I    between atoms: N_17  and  C_18 
REMARK    6  A    between atoms: C_18  and  C_19 
ROOT
HETATM    1  N   UNL     1      26.859  44.427  52.174  1.00  0.00    -0.342 N 
HETATM    2  C   UNL     1      25.595  44.811  51.774  1.00  0.00     0.320 C 
HETATM    3  N   UNL     1      25.636  45.462  50.561  1.00  0.00    -0.309 N 
HETATM    4  O   UNL     1      24.596  44.561  52.435  1.00  0.00    -0.247 OA
HETATM    5  H   UNL     1      27.639  44.950  51.802  1.00  0.00     0.164 HD
HETATM    6  H   UNL     1      26.474  45.313  50.020  1.00  0.00     0.170 HD
ENDROOT
BRANCH   3   7
HETATM    7  C   UNL     1      24.558  46.091  49.907  1.00  0.00     0.036 A 
HETATM    8  C   UNL     1      23.613  45.403  49.145  1.00  0.00     0.032 A 
HETATM    9  C   UNL     1      22.560  46.086  48.520  1.00  0.00     0.032 A 
HETATM   10  C   UNL     1      22.435  47.468  48.644  1.00  0.00     0.035 A 
HETATM   11  C   UNL     1      23.374  48.157  49.419  1.00  0.00     0.032 A 
HETATM   12  C   UNL     1      24.421  47.474  50.052  1.00  0.00     0.032 A 
BRANCH  10  13
HETATM   13  N   UNL     1      21.425  48.225  48.025  1.00  0.00    -0.321 N 
HETATM   14  C   UNL     1      20.194  48.596  48.540  1.00  0.00     0.279 C 
HETATM   15  O   UNL     1      19.794  48.362  49.675  1.00  0.00    -0.265 OA
HETATM   16  H   UNL     1      21.597  48.542  47.077  1.00  0.00     0.169 HD
BRANCH  14  17
HETATM   17  C   UNL     1      19.382  49.324  47.579  1.00  0.00     0.142 A 
HETATM   18  O   UNL     1      18.235  48.751  47.089  1.00  0.00    -0.317 OA
HETATM   19  C   UNL     1      17.676  49.648  46.235  1.00  0.00     0.143 A 
HETATM   20  C   UNL     1      18.442  50.787  46.158  1.00  0.00     0.027 A 
HETATM   21  C   UNL     1      19.542  50.579  47.024  1.00  0.00     0.045 A 
ENDBRANCH  14  17
ENDBRANCH  10  13
ENDBRANCH   3   7
BRANCH   1  22
HETATM   22  C   UNL     1      27.074  43.732  53.435  1.00  0.00     0.138 C 
BRANCH  22  23
HETATM   23  C   UNL     1      28.498  43.113  53.596  1.00  0.00    -0.004 C 
HETATM   24  C   UNL     1      29.252  43.294  52.254  1.00  0.00     0.021 C 
HETATM   25  C   UNL     1      28.378  41.587  53.819  1.00  0.00     0.021 C 
BRANCH  23  26
HETATM   26  C   UNL     1      29.274  43.840  54.711  1.00  0.00    -0.046 A 
HETATM   27  C   UNL     1      28.808  45.061  55.225  1.00  0.00     0.027 A 
HETATM   28  C   UNL     1      29.519  45.698  56.234  1.00  0.00     0.116 A 
HETATM   29  N   UNL     1      30.651  45.211  56.775  1.00  0.00    -0.273 NA
HETATM   30  C   UNL     1      31.097  44.043  56.274  1.00  0.00     0.116 A 
HETATM   31  C   UNL     1      30.457  43.333  55.266  1.00  0.00     0.027 A 
ENDBRANCH  23  26
ENDBRANCH  22  23
ENDBRANCH   1  22
TORSDOF 6
ENDMDL
MODEL 4
REMARK VINA RESULT:      -8.4      2.438      3.489
REMARK  6 active torsions:
REMARK  status: ('A' for Active; 'I' for Inactive)
REMARK    1  A    between atoms: C_2  and  C_3 
REMARK    2  A    between atoms: C_2  and  C_9 
REMARK    3  A    between atoms: C_9  and  N_10 
REMARK       I    between atoms: N_10  and  C_11 
REMARK       I    between atoms: C_11  and  N_12 
REMARK    4  A    between atoms: N_12  and  C_13 
REMARK    5  A    between atoms: C_16  and  N_17 
REMARK       I    between atoms: N_17  and  C_18 
REMARK    6  A    between atoms: C_18  and  C_19 
ROOT
HETATM    1  N   UNL     1      21.982  50.425  48.049  1.00  0.00    -0.342 N 
HETATM    2  C   UNL     1      22.782  49.881  49.033  1.00  0.00     0.320 C 
HETATM    3  N   UNL     1      23.526  48.832  48.541  1.00  0.00    -0.309 N 
HETATM    4  O   UNL     1      22.810  50.324  50.173  1.00  0.00    -0.247 OA
HETATM    5  H   UNL     1      21.733  49.828  47.274  1.00  0.00     0.164 HD
HETATM    6  H   UNL     1      23.613  48.798  47.537  1.00  0.00     0.170 HD
ENDROOT
BRANCH   3   7
HETATM    7  C   UNL     1      24.362  47.972  49.282  1.00  0.00     0.036 A 
HETATM    8  C   UNL     1      25.687  48.271  49.599  1.00  0.00     0.032 A 
HETATM    9  C   UNL     1      26.467  47.375  50.343  1.00  0.00     0.032 A 
HETATM   10  C   UNL     1      25.936  46.163  50.781  1.00  0.00     0.035 A 
HETATM   11  C   UNL     1      24.603  45.868  50.475  1.00  0.00     0.032 A 
HETATM   12  C   UNL     1      23.820  46.768  49.740  1.00  0.00     0.032 A 
BRANCH  10  13
HETATM   13  N   UNL     1      26.663  45.202  51.506  1.00  0.00    -0.321 N 
HETATM   14  C   UNL     1      26.714  45.021  52.877  1.00  0.00     0.279 C 
HETATM   15  O   UNL     1      26.071  45.655  53.707  1.00  0.00    -0.265 OA
HETATM   16  H   UNL     1      27.236  44.556  50.975  1.00  0.00     0.169 HD
BRANCH  14  17
HETATM   17  C   UNL     1      27.631  43.963  53.268  1.00  0.00     0.142 A 
HETATM   18  O   UNL     1      27.253  42.651  53.125  1.00  0.00    -0.317 OA
HETATM   19  C   UNL     1      28.295  41.889  53.547  1.00  0.00     0.143 A 
HETATM   20  C   UNL     1      29.337  42.681  53.967  1.00  0.00     0.027 A 
HETATM   21  C   UNL     1      28.910  44.018  53.788  1.00  0.00     0.045 A 
ENDBRANCH  14  17
ENDBRANCH  10  13
ENDBRANCH   3   7
BRANCH   1  22
HETATM   22  C   UNL     1      21.091  51.541  48.332  1.00  0.00     0.138 C 
BRANCH  22  23
HETATM   23  C   UNL     1      19.577  51.229  48.116  1.00  0.00    -0.004 C 
HETATM   24  C   UNL     1      19.387  50.775  46.647  1.00  0.00     0.021 C 
HETATM   25  C   UNL     1      18.750  52.526  48.276  1.00  0.00     0.021 C 
BRANCH  23  26
HETATM   26  C   UNL     1      19.126  50.092  49.055  1.00  0.00    -0.046 A 
HETATM   27  C   UNL     1      18.569  48.913  48.531  1.00  0.00     0.027 A 
HETATM   28  C   UNL     1      18.175  47.897  49.392  1.00  0.00     0.116 A 
HETATM   29  N   UNL     1      18.299  47.960  50.731  1.00  0.00    -0.273 NA
HETATM   30  C   UNL     1      18.828  49.095  51.229  1.00  0.00     0.116 A 
HETATM   31  C   UNL     1      19.249  50.165  50.448  1.00  0.00     0.027 A 
ENDBRANCH  23  26
ENDBRANCH  22  23
ENDBRANCH   1  22
TORSDOF 6
ENDMDL
MODEL 5
REMARK VINA RESULT:      -8.3      2.992      3.960
REMARK  6 active torsions:
REMARK  status: ('A' for Active; 'I' for Inactive)
REMARK    1  A    between atoms: C_2  and  C_3 
REMARK    2  A    between atoms: C_2  and  C_9 
REMARK    3  A    between atoms: C_9  and  N_10 
REMARK       I    between atoms: N_10  and  C_11 
REMARK       I    between atoms: C_11  and  N_12 
REMARK    4  A    between atoms: N_12  and  C_13 
REMARK    5  A    between atoms: C_16  and  N_17 
REMARK       I    between atoms: N_17  and  C_18 
REMARK    6  A    between atoms: C_18  and  C_19 
ROOT
HETATM    1  N   UNL     1      21.778  50.382  48.117  1.00  0.00    -0.342 N 
HETATM    2  C   UNL     1      22.692  49.887  49.024  1.00  0.00     0.320 C 
HETATM    3  N   UNL     1      23.343  48.784  48.518  1.00  0.00    -0.309 N 
HETATM    4  O   UNL     1      22.880  50.409  50.115  1.00  0.00    -0.247 OA
HETATM    5  H   UNL     1      21.417  49.739  47.427  1.00  0.00     0.164 HD
HETATM    6  H   UNL     1      23.295  48.676  47.516  1.00  0.00     0.170 HD
ENDROOT
BRANCH   3   7
HETATM    7  C   UNL     1      24.254  47.955  49.205  1.00  0.00     0.036 A 
HETATM    8  C   UNL     1      25.577  48.313  49.463  1.00  0.00     0.032 A 
HETATM    9  C   UNL     1      26.434  47.445  50.154  1.00  0.00     0.032 A 
HETATM   10  C   UNL     1      25.983  46.203  50.597  1.00  0.00     0.035 A 
HETATM   11  C   UNL     1      24.652  45.849  50.350  1.00  0.00     0.032 A 
HETATM   12  C   UNL     1      23.792  46.720  49.668  1.00  0.00     0.032 A 
BRANCH  10  13
HETATM   13  N   UNL     1      26.788  45.268  51.271  1.00  0.00    -0.321 N 
HETATM   14  C   UNL     1      27.320  44.086  50.785  1.00  0.00     0.279 C 
HETATM   15  O   UNL     1      27.216  43.676  49.634  1.00  0.00    -0.265 OA
HETATM   16  H   UNL     1      27.012  45.462  52.241  1.00  0.00     0.169 HD
BRANCH  14  17
HETATM   17  C   UNL     1      28.050  43.342  51.797  1.00  0.00     0.142 A 
HETATM   18  O   UNL     1      28.250  41.994  51.636  1.00  0.00    -0.317 OA
HETATM   19  C   UNL     1      28.965  41.567  52.709  1.00  0.00     0.143 A 
HETATM   20  C   UNL     1      29.226  42.610  53.565  1.00  0.00     0.027 A 
HETATM   21  C   UNL     1      28.637  43.755  52.979  1.00  0.00     0.045 A 
ENDBRANCH  14  17
ENDBRANCH  10  13
ENDBRANCH   3   7
BRANCH   1  22
HETATM   22  C   UNL     1      20.955  51.541  48.431  1.00  0.00     0.138 C 
BRANCH  22  23
HETATM   23  C   UNL     1      19.447  51.216  48.667  1.00  0.00    -0.004 C 
HETATM   24  C   UNL     1      18.641  52.527  48.489  1.00  0.00     0.021 C 
HETATM   25  C   UNL     1      19.233  50.775  50.134  1.00  0.00     0.021 C 
BRANCH  23  26
HETATM   26  C   UNL     1      18.955  50.181  47.636  1.00  0.00    -0.046 A 
HETATM   27  C   UNL     1      18.657  48.866  48.031  1.00  0.00     0.027 A 
HETATM   28  C   UNL     1      18.210  47.950  47.089  1.00  0.00     0.116 A 
HETATM   29  N   UNL     1      18.030  48.241  45.786  1.00  0.00    -0.273 NA
HETATM   30  C   UNL     1      18.324  49.501  45.411  1.00  0.00     0.116 A 
HETATM   31  C   UNL     1      18.778  50.486  46.280  1.00  0.00     0.027 A 
ENDBRANCH  23  26
ENDBRANCH  22  23
ENDBRANCH   1  22
TORSDOF 6
ENDMDL
MODEL 6
REMARK VINA RESULT:      -8.2      4.641      5.215
REMARK  6 active torsions:
REMARK  status: ('A' for Active; 'I' for Inactive)
REMARK    1  A    between atoms: C_2  and  C_3 
REMARK    2  A    between atoms: C_2  and  C_9 
REMARK    3  A    between atoms: C_9  and  N_10 
REMARK       I    between atoms: N_10  and  C_11 
REMARK       I    between atoms: C_11  and  N_12 
REMARK    4  A    between atoms: N_12  and  C_13 
REMARK    5  A    between atoms: C_16  and  N_17 
REMARK       I    between atoms: N_17  and  C_18 
REMARK    6  A    between atoms: C_18  and  C_19 
ROOT
HETATM    1  N   UNL     1      22.509  48.021  49.458  1.00  0.00    -0.342 N 
HETATM    2  C   UNL     1      23.100  46.816  49.138  1.00  0.00     0.320 C 
HETATM    3  N   UNL     1      23.938  46.393  50.145  1.00  0.00    -0.309 N 
HETATM    4  O   UNL     1      22.860  46.228  48.092  1.00  0.00    -0.247 OA
HETATM    5  H   UNL     1      22.992  48.610  50.121  1.00  0.00     0.164 HD
HETATM    6  H   UNL     1      23.787  46.827  51.042  1.00  0.00     0.170 HD
ENDROOT
BRANCH   3   7
HETATM    7  C   UNL     1      24.791  45.270  50.114  1.00  0.00     0.036 A 
HETATM    8  C   UNL     1      26.135  45.335  49.750  1.00  0.00     0.032 A 
HETATM    9  C   UNL     1      26.933  44.182  49.742  1.00  0.00     0.032 A 
HETATM   10  C   UNL     1      26.399  42.945  50.097  1.00  0.00     0.035 A 
HETATM   11  C   UNL     1      25.054  42.882  50.476  1.00  0.00     0.032 A 
HETATM   12  C   UNL     1      24.259  44.035  50.494  1.00  0.00     0.032 A 
BRANCH  10  13
HETATM   13  N   UNL     1      27.127  41.741  50.087  1.00  0.00    -0.321 N 
HETATM   14  C   UNL     1      27.729  41.113  49.011  1.00  0.00     0.279 C 
HETATM   15  O   UNL     1      27.772  41.544  47.864  1.00  0.00    -0.265 OA
HETATM   16  H   UNL     1      27.227  41.252  50.970  1.00  0.00     0.169 HD
BRANCH  14  17
HETATM   17  C   UNL     1      28.337  39.844  49.373  1.00  0.00     0.142 A 
HETATM   18  O   UNL     1      28.915  39.697  50.609  1.00  0.00    -0.317 OA
HETATM   19  C   UNL     1      29.384  38.424  50.682  1.00  0.00     0.143 A 
HETATM   20  C   UNL     1      29.126  37.746  49.515  1.00  0.00     0.027 A 
HETATM   21  C   UNL     1      28.452  38.659  48.670  1.00  0.00     0.045 A 
ENDBRANCH  14  17
ENDBRANCH  10  13
ENDBRANCH   3   7
BRANCH   1  22
HETATM   22  C   UNL     1      21.590  48.680  48.540  1.00  0.00     0.138 C 
BRANCH  22  23
HETATM   23  C   UNL     1      21.688  50.237  48.536  1.00  0.00    -0.004 C 
HETATM   24  C   UNL     1      22.841  50.641  47.583  1.00  0.00     0.021 C 
HETATM   25  C   UNL     1      22.097  50.736  49.942  1.00  0.00     0.021 C 
BRANCH  23  26
HETATM   26  C   UNL     1      20.372  50.855  48.023  1.00  0.00    -0.046 A 
HETATM   27  C   UNL     1      19.827  51.991  48.644  1.00  0.00     0.027 A 
HETATM   28  C   UNL     1      18.645  52.536  48.163  1.00  0.00     0.116 A 
HETATM   29  N   UNL     1      17.966  52.044  47.109  1.00  0.00    -0.273 NA
HETATM   30  C   UNL     1      18.490  50.951  46.521  1.00  0.00     0.116 A 
HETATM   31  C   UNL     1      19.666  50.334  46.931  1.00  0.00     0.027 A 
ENDBRANCH  23  26
ENDBRANCH  22  23
ENDBRANCH   1  22
TORSDOF 6
ENDMDL
MODEL 7
REMARK VINA RESULT:      -8.2      5.071     12.236
REMARK  6 active torsions:
REMARK  status: ('A' for Active; 'I' for Inactive)
REMARK    1  A    between atoms: C_2  and  C_3 
REMARK    2  A    between atoms: C_2  and  C_9 
REMARK    3  A    between atoms: C_9  and  N_10 
REMARK       I    between atoms: N_10  and  C_11 
REMARK       I    between atoms: C_11  and  N_12 
REMARK    4  A    between atoms: N_12  and  C_13 
REMARK    5  A    between atoms: C_16  and  N_17 
REMARK       I    between atoms: N_17  and  C_18 
REMARK    6  A    between atoms: C_18  and  C_19 
ROOT
HETATM    1  N   UNL     1      23.355  48.207  49.933  1.00  0.00    -0.342 N 
HETATM    2  C   UNL     1      22.283  48.767  49.269  1.00  0.00     0.320 C 
HETATM    3  N   UNL     1      21.798  49.862  49.948  1.00  0.00    -0.309 N 
HETATM    4  O   UNL     1      21.869  48.325  48.205  1.00  0.00    -0.247 OA
HETATM    5  H   UNL     1      23.418  48.370  50.928  1.00  0.00     0.164 HD
HETATM    6  H   UNL     1      22.428  50.265  50.623  1.00  0.00     0.170 HD
ENDROOT
BRANCH   3   7
HETATM    7  C   UNL     1      20.645  50.608  49.628  1.00  0.00     0.036 A 
HETATM    8  C   UNL     1      20.612  51.586  48.635  1.00  0.00     0.032 A 
HETATM    9  C   UNL     1      19.433  52.293  48.361  1.00  0.00     0.032 A 
HETATM   10  C   UNL     1      18.267  52.034  49.078  1.00  0.00     0.035 A 
HETATM   11  C   UNL     1      18.294  51.043  50.065  1.00  0.00     0.032 A 
HETATM   12  C   UNL     1      19.470  50.330  50.332  1.00  0.00     0.032 A 
BRANCH  10  13
HETATM   13  N   UNL     1      17.054  52.719  48.881  1.00  0.00    -0.321 N 
HETATM   14  C   UNL     1      15.956  52.323  48.136  1.00  0.00     0.279 C 
HETATM   15  O   UNL     1      15.839  51.252  47.551  1.00  0.00    -0.265 OA
HETATM   16  H   UNL     1      16.955  53.625  49.326  1.00  0.00     0.169 HD
BRANCH  14  17
HETATM   17  C   UNL     1      14.906  53.327  48.109  1.00  0.00     0.142 A 
HETATM   18  O   UNL     1      14.370  53.716  46.907  1.00  0.00    -0.317 OA
HETATM   19  C   UNL     1      13.413  54.641  47.178  1.00  0.00     0.143 A 
HETATM   20  C   UNL     1      13.322  54.862  48.532  1.00  0.00     0.027 A 
HETATM   21  C   UNL     1      14.284  54.016  49.133  1.00  0.00     0.045 A 
ENDBRANCH  14  17
ENDBRANCH  10  13
ENDBRANCH   3   7
BRANCH   1  22
HETATM   22  C   UNL     1      24.031  47.026  49.415  1.00  0.00     0.138 C 
BRANCH  22  23
HETATM   23  C   UNL     1      25.278  46.582  50.243  1.00  0.00    -0.004 C 
HETATM   24  C   UNL     1      25.099  47.098  51.693  1.00  0.00     0.021 C 
HETATM   25  C   UNL     1      26.543  47.281  49.691  1.00  0.00     0.021 C 
BRANCH  23  26
HETATM   26  C   UNL     1      25.385  45.045  50.266  1.00  0.00    -0.046 A 
HETATM   27  C   UNL     1      26.451  44.394  49.623  1.00  0.00     0.027 A 
HETATM   28  C   UNL     1      26.534  43.008  49.661  1.00  0.00     0.116 A 
HETATM   29  N   UNL     1      25.643  42.221  50.293  1.00  0.00    -0.273 NA
HETATM   30  C   UNL     1      24.619  42.850  50.903  1.00  0.00     0.116 A 
HETATM   31  C   UNL     1      24.452  44.230  50.919  1.00  0.00     0.027 A 
ENDBRANCH  23  26
ENDBRANCH  22  23
ENDBRANCH   1  22
TORSDOF 6
ENDMDL
MODEL 8
REMARK VINA RESULT:      -8.2      4.508      5.152
REMARK  6 active torsions:
REMARK  status: ('A' for Active; 'I' for Inactive)
REMARK    1  A    between atoms: C_2  and  C_3 
REMARK    2  A    between atoms: C_2  and  C_9 
REMARK    3  A    between atoms: C_9  and  N_10 
REMARK       I    between atoms: N_10  and  C_11 
REMARK       I    between atoms: C_11  and  N_12 
REMARK    4  A    between atoms: N_12  and  C_13 
REMARK    5  A    between atoms: C_16  and  N_17 
REMARK       I    between atoms: N_17  and  C_18 
REMARK    6  A    between atoms: C_18  and  C_19 
ROOT
HETATM    1  N   UNL     1      22.168  49.937  49.512  1.00  0.00    -0.342 N 
HETATM    2  C   UNL     1      22.817  48.844  48.975  1.00  0.00     0.320 C 
HETATM    3  N   UNL     1      23.366  48.059  49.964  1.00  0.00    -0.309 N 
HETATM    4  O   UNL     1      22.852  48.632  47.770  1.00  0.00    -0.247 OA
HETATM    5  H   UNL     1      22.467  50.248  50.425  1.00  0.00     0.164 HD
HETATM    6  H   UNL     1      22.990  48.205  50.889  1.00  0.00     0.170 HD
ENDROOT
BRANCH   3   7
HETATM    7  C   UNL     1      24.193  46.932  49.783  1.00  0.00     0.036 A 
HETATM    8  C   UNL     1      25.570  46.945  50.003  1.00  0.00     0.032 A 
HETATM    9  C   UNL     1      26.339  45.789  49.807  1.00  0.00     0.032 A 
HETATM   10  C   UNL     1      25.744  44.602  49.386  1.00  0.00     0.035 A 
HETATM   11  C   UNL     1      24.361  44.584  49.178  1.00  0.00     0.032 A 
HETATM   12  C   UNL     1      23.590  45.736  49.383  1.00  0.00     0.032 A 
BRANCH  10  13
HETATM   13  N   UNL     1      26.451  43.411  49.141  1.00  0.00    -0.321 N 
HETATM   14  C   UNL     1      26.551  42.291  49.949  1.00  0.00     0.279 C 
HETATM   15  O   UNL     1      25.977  42.130  51.021  1.00  0.00    -0.265 OA
HETATM   16  H   UNL     1      26.968  43.348  48.270  1.00  0.00     0.169 HD
BRANCH  14  17
HETATM   17  C   UNL     1      27.429  41.276  49.392  1.00  0.00     0.142 A 
HETATM   18  O   UNL     1      28.072  40.401  50.232  1.00  0.00    -0.317 OA
HETATM   19  C   UNL     1      28.802  39.563  49.451  1.00  0.00     0.143 A 
HETATM   20  C   UNL     1      28.650  39.883  48.123  1.00  0.00     0.027 A 
HETATM   21  C   UNL     1      27.765  40.986  48.084  1.00  0.00     0.045 A 
ENDBRANCH  14  17
ENDBRANCH  10  13
ENDBRANCH   3   7
BRANCH   1  22
HETATM   22  C   UNL     1      21.519  50.924  48.661  1.00  0.00     0.138 C 
BRANCH  22  23
HETATM   23  C   UNL     1      19.959  50.880  48.697  1.00  0.00    -0.004 C 
HETATM   24  C   UNL     1      19.436  52.331  48.540  1.00  0.00     0.021 C 
HETATM   25  C   UNL     1      19.485  50.401  50.089  1.00  0.00     0.021 C 
BRANCH  23  26
HETATM   26  C   UNL     1      19.421  50.024  47.534  1.00  0.00    -0.046 A 
HETATM   27  C   UNL     1      18.937  50.633  46.364  1.00  0.00     0.027 A 
HETATM   28  C   UNL     1      18.462  49.844  45.325  1.00  0.00     0.116 A 
HETATM   29  N   UNL     1      18.437  48.499  45.356  1.00  0.00    -0.273 NA
HETATM   30  C   UNL     1      18.896  47.920  46.483  1.00  0.00     0.116 A 
HETATM   31  C   UNL     1      19.389  48.624  47.574  1.00  0.00     0.027 A 
ENDBRANCH  23  26
ENDBRANCH  22  23
ENDBRANCH   1  22
TORSDOF 6
ENDMDL
MODEL 9
REMARK VINA RESULT:      -8.1      2.798     10.753
REMARK  6 active torsions:
REMARK  status: ('A' for Active; 'I' for Inactive)
REMARK    1  A    between atoms: C_2  and  C_3 
REMARK    2  A    between atoms: C_2  and  C_9 
REMARK    3  A    between atoms: C_9  and  N_10 
REMARK       I    between atoms: N_10  and  C_11 
REMARK       I    between atoms: C_11  and  N_12 
REMARK    4  A    between atoms: N_12  and  C_13 
REMARK    5  A    between atoms: C_16  and  N_17 
REMARK       I    between atoms: N_17  and  C_18 
REMARK    6  A    between atoms: C_18  and  C_19 
ROOT
HETATM    1  N   UNL     1      26.591  43.641  51.382  1.00  0.00    -0.342 N 
HETATM    2  C   UNL     1      25.430  44.377  51.261  1.00  0.00     0.320 C 
HETATM    3  N   UNL     1      25.429  45.110  50.095  1.00  0.00    -0.309 N 
HETATM    4  O   UNL     1      24.537  44.332  52.097  1.00  0.00    -0.247 OA
HETATM    5  H   UNL     1      27.404  43.976  50.886  1.00  0.00     0.164 HD
HETATM    6  H   UNL     1      26.082  44.802  49.392  1.00  0.00     0.170 HD
ENDROOT
BRANCH   3   7
HETATM    7  C   UNL     1      24.464  46.059  49.699  1.00  0.00     0.036 A 
HETATM    8  C   UNL     1      23.408  45.768  48.836  1.00  0.00     0.032 A 
HETATM    9  C   UNL     1      22.478  46.756  48.481  1.00  0.00     0.032 A 
HETATM   10  C   UNL     1      22.590  48.051  48.981  1.00  0.00     0.035 A 
HETATM   11  C   UNL     1      23.642  48.340  49.858  1.00  0.00     0.032 A 
HETATM   12  C   UNL     1      24.565  47.352  50.221  1.00  0.00     0.032 A 
BRANCH  10  13
HETATM   13  N   UNL     1      21.715  49.101  48.650  1.00  0.00    -0.321 N 
HETATM   14  C   UNL     1      20.390  49.261  49.018  1.00  0.00     0.279 C 
HETATM   15  O   UNL     1      19.760  48.517  49.761  1.00  0.00    -0.265 OA
HETATM   16  H   UNL     1      22.080  49.840  48.059  1.00  0.00     0.169 HD
BRANCH  14  17
HETATM   17  C   UNL     1      19.784  50.443  48.428  1.00  0.00     0.142 A 
HETATM   18  O   UNL     1      18.913  50.305  47.376  1.00  0.00    -0.317 OA
HETATM   19  C   UNL     1      18.494  51.552  47.040  1.00  0.00     0.143 A 
HETATM   20  C   UNL     1      19.082  52.495  47.849  1.00  0.00     0.027 A 
HETATM   21  C   UNL     1      19.914  51.782  48.744  1.00  0.00     0.045 A 
ENDBRANCH  14  17
ENDBRANCH  10  13
ENDBRANCH   3   7
BRANCH   1  22
HETATM   22  C   UNL     1      26.831  42.794  52.542  1.00  0.00     0.138 C 
BRANCH  22  23
HETATM   23  C   UNL     1      28.308  42.795  53.047  1.00  0.00    -0.004 C 
HETATM   24  C   UNL     1      29.222  43.162  51.851  1.00  0.00     0.021 C 
HETATM   25  C   UNL     1      28.712  41.365  53.474  1.00  0.00     0.021 C 
BRANCH  23  26
HETATM   26  C   UNL     1      28.491  43.845  54.160  1.00  0.00    -0.046 A 
HETATM   27  C   UNL     1      27.406  44.629  54.588  1.00  0.00     0.027 A 
HETATM   28  C   UNL     1      27.590  45.565  55.596  1.00  0.00     0.116 A 
HETATM   29  N   UNL     1      28.766  45.778  56.216  1.00  0.00    -0.273 NA
HETATM   30  C   UNL     1      29.805  45.029  55.798  1.00  0.00     0.116 A 
HETATM   31  C   UNL     1      29.719  44.069  54.797  1.00  0.00     0.027 A 
ENDBRANCH  23  26
ENDBRANCH  22  23
ENDBRANCH   1  22
TORSDOF 6
ENDMDL
MODEL 10
REMARK VINA RESULT:      -8.1      4.586     12.305
REMARK  6 active torsions:
REMARK  status: ('A' for Active; 'I' for Inactive)
REMARK    1  A    between atoms: C_2  and  C_3 
REMARK    2  A    between atoms: C_2  and  C_9 
REMARK    3  A    between atoms: C_9  and  N_10 
REMARK       I    between atoms: N_10  and  C_11 
REMARK       I    between atoms: C_11  and  N_12 
REMARK    4  A    between atoms: N_12  and  C_13 
REMARK    5  A    between atoms: C_16  and  N_17 
REMARK       I    between atoms: N_17  and  C_18 
REMARK    6  A    between atoms: C_18  and  C_19 
ROOT
HETATM    1  N   UNL     1      23.594  47.899  50.001  1.00  0.00    -0.342 N 
HETATM    2  C   UNL     1      22.990  48.919  49.296  1.00  0.00     0.320 C 
HETATM    3  N   UNL     1      21.649  49.004  49.599  1.00  0.00    -0.309 N 
HETATM    4  O   UNL     1      23.612  49.642  48.529  1.00  0.00    -0.247 OA
HETATM    5  H   UNL     1      23.004  47.143  50.317  1.00  0.00     0.164 HD
HETATM    6  H   UNL     1      21.372  48.550  50.456  1.00  0.00     0.170 HD
ENDROOT
BRANCH   3   7
HETATM    7  C   UNL     1      20.699  49.847  48.987  1.00  0.00     0.036 A 
HETATM    8  C   UNL     1      20.379  51.118  49.463  1.00  0.00     0.032 A 
HETATM    9  C   UNL     1      19.426  51.911  48.808  1.00  0.00     0.032 A 
HETATM   10  C   UNL     1      18.777  51.445  47.667  1.00  0.00     0.035 A 
HETATM   11  C   UNL     1      19.107  50.175  47.181  1.00  0.00     0.032 A 
HETATM   12  C   UNL     1      20.066  49.387  47.830  1.00  0.00     0.032 A 
BRANCH  10  13
HETATM   13  N   UNL     1      17.791  52.168  46.972  1.00  0.00    -0.321 N 
HETATM   14  C   UNL     1      16.416  52.022  47.035  1.00  0.00     0.279 C 
HETATM   15  O   UNL     1      15.812  51.250  47.771  1.00  0.00    -0.265 OA
HETATM   16  H   UNL     1      18.109  52.887  46.331  1.00  0.00     0.169 HD
BRANCH  14  17
HETATM   17  C   UNL     1      15.717  52.907  46.118  1.00  0.00     0.142 A 
HETATM   18  O   UNL     1      16.315  53.269  44.937  1.00  0.00    -0.317 OA
HETATM   19  C   UNL     1      15.442  54.076  44.279  1.00  0.00     0.143 A 
HETATM   20  C   UNL     1      14.293  54.247  45.014  1.00  0.00     0.027 A 
HETATM   21  C   UNL     1      14.469  53.495  46.199  1.00  0.00     0.045 A 
ENDBRANCH  14  17
ENDBRANCH  10  13
ENDBRANCH   3   7
BRANCH   1  22
HETATM   22  C   UNL     1      25.011  47.603  49.838  1.00  0.00     0.138 C 
BRANCH  22  23
HETATM   23  C   UNL     1      25.429  46.173  50.303  1.00  0.00    -0.004 C 
HETATM   24  C   UNL     1      26.815  45.856  49.688  1.00  0.00     0.021 C 
HETATM   25  C   UNL     1      24.450  45.129  49.716  1.00  0.00     0.021 C 
BRANCH  23  26
HETATM   26  C   UNL     1      25.537  46.120  51.839  1.00  0.00    -0.046 A 
HETATM   27  C   UNL     1      25.172  44.959  52.541  1.00  0.00     0.027 A 
HETATM   28  C   UNL     1      25.282  44.929  53.925  1.00  0.00     0.116 A 
HETATM   29  N   UNL     1      25.733  45.960  54.663  1.00  0.00    -0.273 NA
HETATM   30  C   UNL     1      26.076  47.073  53.986  1.00  0.00     0.116 A 
HETATM   31  C   UNL     1      25.999  47.199  52.605  1.00  0.00     0.027 A 
ENDBRANCH  23  26
ENDBRANCH  22  23
ENDBRANCH   1  22
TORSDOF 6
ENDMDL
