MODEL 1
REMARK VINA RESULT:     -11.1      0.000      0.000
REMARK  7 active torsions:
REMARK  status: ('A' for Active; 'I' for Inactive)
REMARK    1  A    between atoms: C_4  and  C_5 
REMARK    2  A    between atoms: C_5  and  C_6 
REMARK    3  A    between atoms: C_6  and  N_7 
REMARK       I    between atoms: N_7  and  C_8 
REMARK    4  A    between atoms: C_8  and  C_9 
REMARK    5  A    between atoms: C_10  and  N_11 
REMARK    6  A    between atoms: N_12  and  N_13 
REMARK    7  A    between atoms: C_14  and  C_15 
ROOT
HETATM    1  C   UNL     1      24.372  46.749  50.216  1.00  0.00     0.104 C 
HETATM    2  C   UNL     1      24.982  46.405  51.412  1.00  0.00     0.123 C 
HETATM    3  N   UNL     1      25.310  45.049  51.353  1.00  0.00    -0.202 N 
HETATM    4  C   UNL     1      24.574  44.492  50.324  1.00  0.00     0.183 A 
HETATM    5  C   UNL     1      24.052  45.536  49.564  1.00  0.00     0.124 A 
HETATM    6  N   UNL     1      23.337  45.303  48.434  1.00  0.00    -0.242 NA
HETATM    7  C   UNL     1      23.108  44.000  48.179  1.00  0.00     0.086 A 
HETATM    8  C   UNL     1      23.636  42.952  48.980  1.00  0.00     0.088 A 
HETATM    9  N   UNL     1      24.418  43.177  50.047  1.00  0.00    -0.225 NA
HETATM   10  C   UNL     1      22.303  43.666  47.095  1.00  0.00     0.034 A 
HETATM   11  C   UNL     1      21.991  42.338  46.794  1.00  0.00     0.002 A 
HETATM   12  C   UNL     1      22.503  41.319  47.583  1.00  0.00     0.002 A 
HETATM   13  C   UNL     1      23.325  41.636  48.664  1.00  0.00     0.034 A 
ENDROOT
BRANCH   1  14
HETATM   14  C   UNL     1      24.087  48.117  49.845  1.00  0.00     0.257 C 
HETATM   15  N   UNL     1      22.736  48.378  49.672  1.00  0.00    -0.356 N 
HETATM   16  H   UNL     1      22.115  47.592  49.813  1.00  0.00     0.162 HD
HETATM   17  O   UNL     1      24.974  48.895  49.511  1.00  0.00    -0.267 OA
BRANCH  15  18
HETATM   18  C   UNL     1      22.377  49.334  48.641  1.00  0.00     0.127 C 
BRANCH  18  19
HETATM   19  C   UNL     1      22.115  50.745  49.168  1.00  0.00     0.058 C 
BRANCH  19  20
HETATM   20  C   UNL     1      20.629  51.024  49.235  1.00  0.00    -0.057 A 
HETATM   21  C   UNL     1      20.062  52.058  48.476  1.00  0.00     0.007 A 
HETATM   22  C   UNL     1      18.702  52.354  48.588  1.00  0.00     0.001 A 
HETATM   23  C   UNL     1      17.896  51.622  49.458  1.00  0.00     0.000 A 
HETATM   24  C   UNL     1      18.448  50.588  50.212  1.00  0.00     0.001 A 
HETATM   25  C   UNL     1      19.806  50.287  50.098  1.00  0.00     0.007 A 
ENDBRANCH  19  20
ENDBRANCH  18  19
ENDBRANCH  15  18
ENDBRANCH   1  14
BRANCH   2  26
HETATM   26  N   UNL     1      25.275  47.196  52.487  1.00  0.00    -0.286 NA
HETATM   27  H   UNL     1      24.661  48.005  52.632  1.00  0.00     0.125 HD
HETATM   28  H   UNL     1      25.444  46.728  53.381  1.00  0.00     0.125 HD
ENDBRANCH   2  26
BRANCH   3  29
HETATM   29  N   UNL     1      26.172  44.347  52.162  1.00  0.00    -0.176 NA
HETATM   30  C   UNL     1      27.389  44.314  51.729  1.00  0.00     0.153 C 
BRANCH  30  31
HETATM   31  C   UNL     1      28.420  43.644  52.487  1.00  0.00     0.011 A 
HETATM   32  C   UNL     1      28.983  44.088  53.725  1.00  0.00     0.004 A 
HETATM   33  C   UNL     1      29.972  43.174  54.084  1.00  0.00     0.043 A 
HETATM   34  C   UNL     1      28.729  45.180  54.584  1.00  0.00     0.014 A 
HETATM   35  C   UNL     1      30.733  43.305  55.252  1.00  0.00     0.030 A 
HETATM   36  N   UNL     1      30.005  42.208  53.104  1.00  0.00    -0.364 N 
HETATM   37  C   UNL     1      30.459  44.393  56.087  1.00  0.00     0.002 A 
HETATM   38  C   UNL     1      29.470  45.316  55.762  1.00  0.00     0.001 A 
HETATM   39  H   UNL     1      30.635  41.418  53.098  1.00  0.00     0.165 HD
HETATM   40  C   UNL     1      29.061  42.469  52.149  1.00  0.00     0.102 A 
ENDBRANCH  30  31
ENDBRANCH   3  29
TORSDOF 7
ENDMDL
MODEL 2
REMARK VINA RESULT:     -11.1      2.203      3.160
REMARK  7 active torsions:
REMARK  status: ('A' for Active; 'I' for Inactive)
REMARK    1  A    between atoms: C_4  and  C_5 
REMARK    2  A    between atoms: C_5  and  C_6 
REMARK    3  A    between atoms: C_6  and  N_7 
REMARK       I    between atoms: N_7  and  C_8 
REMARK    4  A    between atoms: C_8  and  C_9 
REMARK    5  A    between atoms: C_10  and  N_11 
REMARK    6  A    between atoms: N_12  and  N_13 
REMARK    7  A    between atoms: C_14  and  C_15 
ROOT
HETATM    1  C   UNL     1      25.833  46.366  51.045  1.00  0.00     0.104 C 
HETATM    2  C   UNL     1      25.852  46.569  52.416  1.00  0.00     0.123 C 
HETATM    3  N   UNL     1      26.453  45.457  53.008  1.00  0.00    -0.202 N 
HETATM    4  C   UNL     1      26.442  44.438  52.072  1.00  0.00     0.183 A 
HETATM    5  C   UNL     1      26.137  45.002  50.836  1.00  0.00     0.124 A 
HETATM    6  N   UNL     1      26.121  44.257  49.701  1.00  0.00    -0.242 NA
HETATM    7  C   UNL     1      26.332  42.941  49.896  1.00  0.00     0.086 A 
HETATM    8  C   UNL     1      26.623  42.386  51.171  1.00  0.00     0.088 A 
HETATM    9  N   UNL     1      26.727  43.131  52.281  1.00  0.00    -0.225 NA
HETATM   10  C   UNL     1      26.239  42.084  48.804  1.00  0.00     0.034 A 
HETATM   11  C   UNL     1      26.407  40.704  48.937  1.00  0.00     0.002 A 
HETATM   12  C   UNL     1      26.684  40.166  50.185  1.00  0.00     0.002 A 
HETATM   13  C   UNL     1      26.796  41.013  51.287  1.00  0.00     0.034 A 
ENDROOT
BRANCH   1  14
HETATM   14  C   UNL     1      25.472  47.402  50.104  1.00  0.00     0.257 C 
HETATM   15  N   UNL     1      24.162  47.841  50.232  1.00  0.00    -0.356 N 
HETATM   16  H   UNL     1      23.615  47.386  50.952  1.00  0.00     0.162 HD
HETATM   17  O   UNL     1      26.192  47.695  49.156  1.00  0.00    -0.267 OA
BRANCH  15  18
HETATM   18  C   UNL     1      23.473  48.223  49.014  1.00  0.00     0.127 C 
BRANCH  18  19
HETATM   19  C   UNL     1      23.484  49.727  48.741  1.00  0.00     0.058 C 
BRANCH  19  20
HETATM   20  C   UNL     1      22.089  50.302  48.855  1.00  0.00    -0.057 A 
HETATM   21  C   UNL     1      21.324  50.551  47.706  1.00  0.00     0.007 A 
HETATM   22  C   UNL     1      20.062  51.139  47.811  1.00  0.00     0.001 A 
HETATM   23  C   UNL     1      19.553  51.487  49.061  1.00  0.00     0.000 A 
HETATM   24  C   UNL     1      20.303  51.238  50.210  1.00  0.00     0.001 A 
HETATM   25  C   UNL     1      21.562  50.645  50.108  1.00  0.00     0.007 A 
ENDBRANCH  19  20
ENDBRANCH  18  19
ENDBRANCH  15  18
ENDBRANCH   1  14
BRANCH   2  26
HETATM   26  N   UNL     1      25.414  47.647  53.133  1.00  0.00    -0.286 NA
HETATM   27  H   UNL     1      24.630  48.171  52.726  1.00  0.00     0.125 HD
HETATM   28  H   UNL     1      25.253  47.511  54.133  1.00  0.00     0.125 HD
ENDBRANCH   2  26
BRANCH   3  29
HETATM   29  N   UNL     1      26.950  45.336  54.284  1.00  0.00    -0.176 NA
HETATM   30  C   UNL     1      28.159  45.771  54.420  1.00  0.00     0.153 C 
BRANCH  30  31
HETATM   31  C   UNL     1      28.808  45.746  55.711  1.00  0.00     0.011 A 
HETATM   32  C   UNL     1      29.882  44.885  56.100  1.00  0.00     0.004 A 
HETATM   33  C   UNL     1      30.173  45.160  57.435  1.00  0.00     0.043 A 
HETATM   34  C   UNL     1      30.647  43.905  55.431  1.00  0.00     0.014 A 
HETATM   35  C   UNL     1      31.180  44.493  58.142  1.00  0.00     0.030 A 
HETATM   36  N   UNL     1      29.310  46.155  57.840  1.00  0.00    -0.364 N 
HETATM   37  C   UNL     1      31.925  43.529  57.455  1.00  0.00     0.002 A 
HETATM   38  C   UNL     1      31.667  43.240  56.118  1.00  0.00     0.001 A 
HETATM   39  H   UNL     1      29.288  46.551  58.769  1.00  0.00     0.165 HD
HETATM   40  C   UNL     1      28.499  46.530  56.804  1.00  0.00     0.102 A 
ENDBRANCH  30  31
ENDBRANCH   3  29
TORSDOF 7
ENDMDL
MODEL 3
REMARK VINA RESULT:     -11.1      3.286      5.313
REMARK  7 active torsions:
REMARK  status: ('A' for Active; 'I' for Inactive)
REMARK    1  A    between atoms: C_4  and  C_5 
REMARK    2  A    between atoms: C_5  and  C_6 
REMARK    3  A    between atoms: C_6  and  N_7 
REMARK       I    between atoms: N_7  and  C_8 
REMARK    4  A    between atoms: C_8  and  C_9 
REMARK    5  A    between atoms: C_10  and  N_11 
REMARK    6  A    between atoms: N_12  and  N_13 
REMARK    7  A    between atoms: C_14  and  C_15 
ROOT
HETATM    1  C   UNL     1      25.723  43.148  50.693  1.00  0.00     0.104 C 
HETATM    2  C   UNL     1      25.700  43.546  52.021  1.00  0.00     0.123 C 
HETATM    3  N   UNL     1      26.826  43.009  52.650  1.00  0.00    -0.202 N 
HETATM    4  C   UNL     1      27.305  41.995  51.840  1.00  0.00     0.183 A 
HETATM    5  C   UNL     1      26.688  42.119  50.597  1.00  0.00     0.124 A 
HETATM    6  N   UNL     1      27.009  41.303  49.561  1.00  0.00    -0.242 NA
HETATM    7  C   UNL     1      27.889  40.331  49.869  1.00  0.00     0.086 A 
HETATM    8  C   UNL     1      28.492  40.214  51.151  1.00  0.00     0.088 A 
HETATM    9  N   UNL     1      28.244  41.072  52.151  1.00  0.00    -0.225 NA
HETATM   10  C   UNL     1      28.206  39.389  48.898  1.00  0.00     0.034 A 
HETATM   11  C   UNL     1      29.080  38.330  49.158  1.00  0.00     0.002 A 
HETATM   12  C   UNL     1      29.661  38.216  50.413  1.00  0.00     0.002 A 
HETATM   13  C   UNL     1      29.365  39.162  51.394  1.00  0.00     0.034 A 
ENDROOT
BRANCH   1  14
HETATM   14  C   UNL     1      24.825  43.688  49.698  1.00  0.00     0.257 C 
HETATM   15  N   UNL     1      25.125  44.989  49.322  1.00  0.00    -0.356 N 
HETATM   16  H   UNL     1      25.920  45.408  49.789  1.00  0.00     0.162 HD
HETATM   17  O   UNL     1      23.783  43.120  49.388  1.00  0.00    -0.267 OA
BRANCH  15  18
HETATM   18  C   UNL     1      24.008  45.857  49.001  1.00  0.00     0.127 C 
BRANCH  18  19
HETATM   19  C   UNL     1      23.973  47.150  49.817  1.00  0.00     0.058 C 
BRANCH  19  20
HETATM   20  C   UNL     1      24.992  48.138  49.297  1.00  0.00    -0.057 A 
HETATM   21  C   UNL     1      26.340  48.038  49.670  1.00  0.00     0.007 A 
HETATM   22  C   UNL     1      27.267  48.989  49.238  1.00  0.00     0.001 A 
HETATM   23  C   UNL     1      26.857  50.050  48.434  1.00  0.00     0.000 A 
HETATM   24  C   UNL     1      25.521  50.157  48.052  1.00  0.00     0.001 A 
HETATM   25  C   UNL     1      24.594  49.204  48.478  1.00  0.00     0.007 A 
ENDBRANCH  19  20
ENDBRANCH  18  19
ENDBRANCH  15  18
ENDBRANCH   1  14
BRANCH   2  26
HETATM   26  N   UNL     1      24.798  44.344  52.665  1.00  0.00    -0.286 NA
HETATM   27  H   UNL     1      23.812  44.195  52.423  1.00  0.00     0.125 HD
HETATM   28  H   UNL     1      24.894  44.436  53.679  1.00  0.00     0.125 HD
ENDBRANCH   2  26
BRANCH   3  29
HETATM   29  N   UNL     1      27.375  43.363  53.859  1.00  0.00    -0.176 NA
HETATM   30  C   UNL     1      28.029  44.477  53.832  1.00  0.00     0.153 C 
BRANCH  30  31
HETATM   31  C   UNL     1      28.634  45.002  55.035  1.00  0.00     0.011 A 
HETATM   32  C   UNL     1      29.730  44.426  55.751  1.00  0.00     0.004 A 
HETATM   33  C   UNL     1      29.963  45.225  56.869  1.00  0.00     0.043 A 
HETATM   34  C   UNL     1      30.557  43.301  55.541  1.00  0.00     0.014 A 
HETATM   35  C   UNL     1      30.973  44.949  57.798  1.00  0.00     0.030 A 
HETATM   36  N   UNL     1      29.046  46.252  56.830  1.00  0.00    -0.364 N 
HETATM   37  C   UNL     1      31.781  43.832  57.565  1.00  0.00     0.002 A 
HETATM   38  C   UNL     1      31.581  43.020  56.451  1.00  0.00     0.001 A 
HETATM   39  H   UNL     1      28.976  46.985  57.522  1.00  0.00     0.165 HD
HETATM   40  C   UNL     1      28.256  46.140  55.719  1.00  0.00     0.102 A 
ENDBRANCH  30  31
ENDBRANCH   3  29
TORSDOF 7
ENDMDL
MODEL 4
REMARK VINA RESULT:     -10.8      2.107      4.023
REMARK  7 active torsions:
REMARK  status: ('A' for Active; 'I' for Inactive)
REMARK    1  A    between atoms: C_4  and  C_5 
REMARK    2  A    between atoms: C_5  and  C_6 
REMARK    3  A    between atoms: C_6  and  N_7 
REMARK       I    between atoms: N_7  and  C_8 
REMARK    4  A    between atoms: C_8  and  C_9 
REMARK    5  A    between atoms: C_10  and  N_11 
REMARK    6  A    between atoms: N_12  and  N_13 
REMARK    7  A    between atoms: C_14  and  C_15 
ROOT
HETATM    1  C   UNL     1      24.020  44.673  49.915  1.00  0.00     0.104 C 
HETATM    2  C   UNL     1      25.038  43.769  50.178  1.00  0.00     0.123 C 
HETATM    3  N   UNL     1      26.199  44.496  50.448  1.00  0.00    -0.202 N 
HETATM    4  C   UNL     1      25.998  45.781  49.978  1.00  0.00     0.183 A 
HETATM    5  C   UNL     1      24.638  45.929  49.719  1.00  0.00     0.124 A 
HETATM    6  N   UNL     1      24.118  47.115  49.310  1.00  0.00    -0.242 NA
HETATM    7  C   UNL     1      25.034  48.080  49.095  1.00  0.00     0.086 A 
HETATM    8  C   UNL     1      26.420  47.899  49.349  1.00  0.00     0.088 A 
HETATM    9  N   UNL     1      26.926  46.757  49.838  1.00  0.00    -0.225 NA
HETATM   10  C   UNL     1      24.606  49.300  48.583  1.00  0.00     0.034 A 
HETATM   11  C   UNL     1      25.503  50.332  48.298  1.00  0.00     0.002 A 
HETATM   12  C   UNL     1      26.856  50.149  48.542  1.00  0.00     0.002 A 
HETATM   13  C   UNL     1      27.300  48.937  49.070  1.00  0.00     0.034 A 
ENDROOT
BRANCH   1  14
HETATM   14  C   UNL     1      22.634  44.281  49.799  1.00  0.00     0.257 C 
HETATM   15  N   UNL     1      21.922  45.017  48.864  1.00  0.00    -0.356 N 
HETATM   16  H   UNL     1      22.444  45.740  48.384  1.00  0.00     0.162 HD
HETATM   17  O   UNL     1      22.105  43.522  50.605  1.00  0.00    -0.267 OA
BRANCH  15  18
HETATM   18  C   UNL     1      20.528  45.289  49.161  1.00  0.00     0.127 C 
BRANCH  18  19
HETATM   19  C   UNL     1      19.896  46.348  48.258  1.00  0.00     0.058 C 
BRANCH  19  20
HETATM   20  C   UNL     1      19.871  47.694  48.949  1.00  0.00    -0.057 A 
HETATM   21  C   UNL     1      20.936  48.593  48.800  1.00  0.00     0.007 A 
HETATM   22  C   UNL     1      20.937  49.808  49.489  1.00  0.00     0.001 A 
HETATM   23  C   UNL     1      19.879  50.135  50.334  1.00  0.00     0.000 A 
HETATM   24  C   UNL     1      18.812  49.251  50.484  1.00  0.00     0.001 A 
HETATM   25  C   UNL     1      18.805  48.038  49.792  1.00  0.00     0.007 A 
ENDBRANCH  19  20
ENDBRANCH  18  19
ENDBRANCH  15  18
ENDBRANCH   1  14
BRANCH   2  26
HETATM   26  N   UNL     1      24.988  42.405  50.220  1.00  0.00    -0.286 NA
HETATM   27  H   UNL     1      24.387  41.998  50.945  1.00  0.00     0.125 HD
HETATM   28  H   UNL     1      24.841  41.914  49.335  1.00  0.00     0.125 HD
ENDBRANCH   2  26
BRANCH   3  29
HETATM   29  N   UNL     1      27.360  44.057  51.038  1.00  0.00    -0.176 NA
HETATM   30  C   UNL     1      27.387  44.209  52.321  1.00  0.00     0.153 C 
BRANCH  30  31
HETATM   31  C   UNL     1      28.526  43.761  53.090  1.00  0.00     0.011 A 
HETATM   32  C   UNL     1      29.007  44.343  54.305  1.00  0.00     0.004 A 
HETATM   33  C   UNL     1      30.146  43.634  54.683  1.00  0.00     0.043 A 
HETATM   34  C   UNL     1      28.566  45.401  55.130  1.00  0.00     0.014 A 
HETATM   35  C   UNL     1      30.877  43.940  55.837  1.00  0.00     0.030 A 
HETATM   36  N   UNL     1      30.347  42.655  53.735  1.00  0.00    -0.364 N 
HETATM   37  C   UNL     1      30.417  44.990  56.638  1.00  0.00     0.002 A 
HETATM   38  C   UNL     1      29.276  45.709  56.293  1.00  0.00     0.001 A 
HETATM   39  H   UNL     1      31.108  41.991  53.749  1.00  0.00     0.165 HD
HETATM   40  C   UNL     1      29.365  42.710  52.784  1.00  0.00     0.102 A 
ENDBRANCH  30  31
ENDBRANCH   3  29
TORSDOF 7
ENDMDL
MODEL 5
REMARK VINA RESULT:     -10.7      2.704      8.199
REMARK  7 active torsions:
REMARK  status: ('A' for Active; 'I' for Inactive)
REMARK    1  A    between atoms: C_4  and  C_5 
REMARK    2  A    between atoms: C_5  and  C_6 
REMARK    3  A    between atoms: C_6  and  N_7 
REMARK       I    between atoms: N_7  and  C_8 
REMARK    4  A    between atoms: C_8  and  C_9 
REMARK    5  A    between atoms: C_10  and  N_11 
REMARK    6  A    between atoms: N_12  and  N_13 
REMARK    7  A    between atoms: C_14  and  C_15 
ROOT
HETATM    1  C   UNL     1      25.567  45.791  52.305  1.00  0.00     0.104 C 
HETATM    2  C   UNL     1      25.398  44.416  52.342  1.00  0.00     0.123 C 
HETATM    3  N   UNL     1      24.870  44.014  51.114  1.00  0.00    -0.202 N 
HETATM    4  C   UNL     1      24.364  45.142  50.495  1.00  0.00     0.183 A 
HETATM    5  C   UNL     1      24.854  46.254  51.176  1.00  0.00     0.124 A 
HETATM    6  N   UNL     1      24.586  47.517  50.757  1.00  0.00    -0.242 NA
HETATM    7  C   UNL     1      23.748  47.589  49.705  1.00  0.00     0.086 A 
HETATM    8  C   UNL     1      23.247  46.439  49.038  1.00  0.00     0.088 A 
HETATM    9  N   UNL     1      23.579  45.190  49.393  1.00  0.00    -0.225 NA
HETATM   10  C   UNL     1      23.340  48.844  49.265  1.00  0.00     0.034 A 
HETATM   11  C   UNL     1      22.442  48.994  48.205  1.00  0.00     0.002 A 
HETATM   12  C   UNL     1      21.950  47.869  47.561  1.00  0.00     0.002 A 
HETATM   13  C   UNL     1      22.361  46.604  47.980  1.00  0.00     0.034 A 
ENDROOT
BRANCH   1  14
HETATM   14  C   UNL     1      26.284  46.521  53.326  1.00  0.00     0.257 C 
HETATM   15  N   UNL     1      27.398  45.853  53.812  1.00  0.00    -0.356 N 
HETATM   16  H   UNL     1      27.574  44.941  53.409  1.00  0.00     0.162 HD
HETATM   17  O   UNL     1      25.818  47.527  53.851  1.00  0.00    -0.267 OA
BRANCH  15  18
HETATM   18  C   UNL     1      27.714  46.033  55.217  1.00  0.00     0.127 C 
BRANCH  18  19
HETATM   19  C   UNL     1      29.137  46.528  55.474  1.00  0.00     0.058 C 
BRANCH  19  20
HETATM   20  C   UNL     1      29.977  45.438  56.102  1.00  0.00    -0.057 A 
HETATM   21  C   UNL     1      30.313  44.286  55.376  1.00  0.00     0.007 A 
HETATM   22  C   UNL     1      31.035  43.255  55.980  1.00  0.00     0.001 A 
HETATM   23  C   UNL     1      31.426  43.361  57.314  1.00  0.00     0.000 A 
HETATM   24  C   UNL     1      31.103  44.505  58.043  1.00  0.00     0.001 A 
HETATM   25  C   UNL     1      30.386  45.539  57.440  1.00  0.00     0.007 A 
ENDBRANCH  19  20
ENDBRANCH  18  19
ENDBRANCH  15  18
ENDBRANCH   1  14
BRANCH   2  26
HETATM   26  N   UNL     1      25.699  43.538  53.345  1.00  0.00    -0.286 NA
HETATM   27  H   UNL     1      24.968  42.858  53.584  1.00  0.00     0.125 HD
HETATM   28  H   UNL     1      26.605  43.068  53.301  1.00  0.00     0.125 HD
ENDBRANCH   2  26
BRANCH   3  29
HETATM   29  N   UNL     1      24.812  42.745  50.587  1.00  0.00    -0.176 NA
HETATM   30  C   UNL     1      25.897  42.374  49.991  1.00  0.00     0.153 C 
BRANCH  30  31
HETATM   31  C   UNL     1      26.004  41.052  49.417  1.00  0.00     0.011 A 
HETATM   32  C   UNL     1      27.054  40.110  49.654  1.00  0.00     0.004 A 
HETATM   33  C   UNL     1      26.790  38.987  48.871  1.00  0.00     0.043 A 
HETATM   34  C   UNL     1      28.199  40.103  50.479  1.00  0.00     0.014 A 
HETATM   35  C   UNL     1      27.623  37.863  48.858  1.00  0.00     0.030 A 
HETATM   36  N   UNL     1      25.621  39.237  48.187  1.00  0.00    -0.364 N 
HETATM   37  C   UNL     1      28.749  37.880  49.687  1.00  0.00     0.002 A 
HETATM   38  C   UNL     1      29.034  38.982  50.490  1.00  0.00     0.001 A 
HETATM   39  H   UNL     1      25.190  38.597  47.536  1.00  0.00     0.165 HD
HETATM   40  C   UNL     1      25.128  40.468  48.525  1.00  0.00     0.102 A 
ENDBRANCH  30  31
ENDBRANCH   3  29
TORSDOF 7
ENDMDL
MODEL 6
REMARK VINA RESULT:     -10.7      3.873     10.520
REMARK  7 active torsions:
REMARK  status: ('A' for Active; 'I' for Inactive)
REMARK    1  A    between atoms: C_4  and  C_5 
REMARK    2  A    between atoms: C_5  and  C_6 
REMARK    3  A    between atoms: C_6  and  N_7 
REMARK       I    between atoms: N_7  and  C_8 
REMARK    4  A    between atoms: C_8  and  C_9 
REMARK    5  A    between atoms: C_10  and  N_11 
REMARK    6  A    between atoms: N_12  and  N_13 
REMARK    7  A    between atoms: C_14  and  C_15 
ROOT
HETATM    1  C   UNL     1      28.182  42.097  52.352  1.00  0.00     0.104 C 
HETATM    2  C   UNL     1      26.968  42.582  51.892  1.00  0.00     0.123 C 
HETATM    3  N   UNL     1      26.840  43.903  52.326  1.00  0.00    -0.202 N 
HETATM    4  C   UNL     1      27.755  44.091  53.346  1.00  0.00     0.183 A 
HETATM    5  C   UNL     1      28.642  43.018  53.322  1.00  0.00     0.124 A 
HETATM    6  N   UNL     1      29.703  42.955  54.166  1.00  0.00    -0.242 NA
HETATM    7  C   UNL     1      29.760  43.957  55.064  1.00  0.00     0.086 A 
HETATM    8  C   UNL     1      28.832  45.033  55.080  1.00  0.00     0.088 A 
HETATM    9  N   UNL     1      27.834  45.145  54.192  1.00  0.00    -0.225 NA
HETATM   10  C   UNL     1      30.758  43.927  56.032  1.00  0.00     0.034 A 
HETATM   11  C   UNL     1      30.855  44.911  57.019  1.00  0.00     0.002 A 
HETATM   12  C   UNL     1      29.942  45.956  57.035  1.00  0.00     0.002 A 
HETATM   13  C   UNL     1      28.945  46.009  56.063  1.00  0.00     0.034 A 
ENDROOT
BRANCH   1  14
HETATM   14  C   UNL     1      28.738  40.835  51.919  1.00  0.00     0.257 C 
HETATM   15  N   UNL     1      28.639  40.622  50.553  1.00  0.00    -0.356 N 
HETATM   16  H   UNL     1      28.188  41.358  50.024  1.00  0.00     0.162 HD
HETATM   17  O   UNL     1      29.061  39.962  52.718  1.00  0.00    -0.267 OA
BRANCH  15  18
HETATM   18  C   UNL     1      28.420  39.256  50.113  1.00  0.00     0.127 C 
BRANCH  18  19
HETATM   19  C   UNL     1      29.103  38.915  48.788  1.00  0.00     0.058 C 
BRANCH  19  20
HETATM   20  C   UNL     1      28.375  37.790  48.086  1.00  0.00    -0.057 A 
HETATM   21  C   UNL     1      28.788  37.353  46.819  1.00  0.00     0.007 A 
HETATM   22  C   UNL     1      28.075  36.358  46.147  1.00  0.00     0.001 A 
HETATM   23  C   UNL     1      26.944  35.791  46.731  1.00  0.00     0.000 A 
HETATM   24  C   UNL     1      26.528  36.213  47.992  1.00  0.00     0.001 A 
HETATM   25  C   UNL     1      27.242  37.205  48.668  1.00  0.00     0.007 A 
ENDBRANCH  19  20
ENDBRANCH  18  19
ENDBRANCH  15  18
ENDBRANCH   1  14
BRANCH   2  26
HETATM   26  N   UNL     1      26.028  41.958  51.122  1.00  0.00    -0.286 NA
HETATM   27  H   UNL     1      25.164  41.682  51.601  1.00  0.00     0.125 HD
HETATM   28  H   UNL     1      25.801  42.385  50.221  1.00  0.00     0.125 HD
ENDBRANCH   2  26
BRANCH   3  29
HETATM   29  N   UNL     1      25.965  44.865  51.879  1.00  0.00    -0.176 NA
HETATM   30  C   UNL     1      26.398  45.536  50.863  1.00  0.00     0.153 C 
BRANCH  30  31
HETATM   31  C   UNL     1      25.577  46.558  50.255  1.00  0.00     0.011 A 
HETATM   32  C   UNL     1      26.043  47.762  49.639  1.00  0.00     0.004 A 
HETATM   33  C   UNL     1      24.922  48.480  49.227  1.00  0.00     0.043 A 
HETATM   34  C   UNL     1      27.322  48.301  49.381  1.00  0.00     0.014 A 
HETATM   35  C   UNL     1      25.014  49.719  48.582  1.00  0.00     0.030 A 
HETATM   36  N   UNL     1      23.816  47.737  49.574  1.00  0.00    -0.364 N 
HETATM   37  C   UNL     1      26.292  50.229  48.335  1.00  0.00     0.002 A 
HETATM   38  C   UNL     1      27.432  49.530  48.724  1.00  0.00     0.001 A 
HETATM   39  H   UNL     1      22.860  48.017  49.403  1.00  0.00     0.165 HD
HETATM   40  C   UNL     1      24.199  46.568  50.174  1.00  0.00     0.102 A 
ENDBRANCH  30  31
ENDBRANCH   3  29
TORSDOF 7
ENDMDL
MODEL 7
REMARK VINA RESULT:     -10.5      1.778      9.585
REMARK  7 active torsions:
REMARK  status: ('A' for Active; 'I' for Inactive)
REMARK    1  A    between atoms: C_4  and  C_5 
REMARK    2  A    between atoms: C_5  and  C_6 
REMARK    3  A    between atoms: C_6  and  N_7 
REMARK       I    between atoms: N_7  and  C_8 
REMARK    4  A    between atoms: C_8  and  C_9 
REMARK    5  A    between atoms: C_10  and  N_11 
REMARK    6  A    between atoms: N_12  and  N_13 
REMARK    7  A    between atoms: C_14  and  C_15 
ROOT
HETATM    1  C   UNL     1      24.730  46.392  50.499  1.00  0.00     0.104 C 
HETATM    2  C   UNL     1      24.192  47.431  49.756  1.00  0.00     0.123 C 
HETATM    3  N   UNL     1      23.311  46.882  48.823  1.00  0.00    -0.202 N 
HETATM    4  C   UNL     1      23.597  45.532  48.731  1.00  0.00     0.183 A 
HETATM    5  C   UNL     1      24.412  45.199  49.810  1.00  0.00     0.124 A 
HETATM    6  N   UNL     1      24.806  43.918  50.032  1.00  0.00    -0.242 NA
HETATM    7  C   UNL     1      24.420  43.044  49.083  1.00  0.00     0.086 A 
HETATM    8  C   UNL     1      23.603  43.413  47.981  1.00  0.00     0.088 A 
HETATM    9  N   UNL     1      23.139  44.659  47.805  1.00  0.00    -0.225 NA
HETATM   10  C   UNL     1      24.857  41.727  49.175  1.00  0.00     0.034 A 
HETATM   11  C   UNL     1      24.529  40.775  48.207  1.00  0.00     0.002 A 
HETATM   12  C   UNL     1      23.737  41.141  47.128  1.00  0.00     0.002 A 
HETATM   13  C   UNL     1      23.277  42.454  47.030  1.00  0.00     0.034 A 
ENDROOT
BRANCH   1  14
HETATM   14  C   UNL     1      25.522  46.605  51.688  1.00  0.00     0.257 C 
HETATM   15  N   UNL     1      26.452  45.604  51.927  1.00  0.00    -0.356 N 
HETATM   16  H   UNL     1      26.463  44.846  51.257  1.00  0.00     0.162 HD
HETATM   17  O   UNL     1      25.239  47.473  52.508  1.00  0.00    -0.267 OA
BRANCH  15  18
HETATM   18  C   UNL     1      26.721  45.271  53.314  1.00  0.00     0.127 C 
BRANCH  18  19
HETATM   19  C   UNL     1      27.485  43.960  53.499  1.00  0.00     0.058 C 
BRANCH  19  20
HETATM   20  C   UNL     1      28.679  44.161  54.406  1.00  0.00    -0.057 A 
HETATM   21  C   UNL     1      29.633  43.145  54.566  1.00  0.00     0.007 A 
HETATM   22  C   UNL     1      30.699  43.310  55.452  1.00  0.00     0.001 A 
HETATM   23  C   UNL     1      30.824  44.487  56.187  1.00  0.00     0.000 A 
HETATM   24  C   UNL     1      29.885  45.505  56.031  1.00  0.00     0.001 A 
HETATM   25  C   UNL     1      28.820  45.345  55.143  1.00  0.00     0.007 A 
ENDBRANCH  19  20
ENDBRANCH  18  19
ENDBRANCH  15  18
ENDBRANCH   1  14
BRANCH   2  26
HETATM   26  N   UNL     1      24.408  48.775  49.875  1.00  0.00    -0.286 NA
HETATM   27  H   UNL     1      23.569  49.367  49.879  1.00  0.00     0.125 HD
HETATM   28  H   UNL     1      25.051  49.084  50.607  1.00  0.00     0.125 HD
ENDBRANCH   2  26
BRANCH   3  29
HETATM   29  N   UNL     1      22.344  47.524  48.086  1.00  0.00    -0.176 NA
HETATM   30  C   UNL     1      21.193  47.588  48.671  1.00  0.00     0.153 C 
BRANCH  30  31
HETATM   31  C   UNL     1      20.085  48.264  48.038  1.00  0.00     0.011 A 
HETATM   32  C   UNL     1      19.783  49.660  48.126  1.00  0.00     0.004 A 
HETATM   33  C   UNL     1      18.609  49.879  47.407  1.00  0.00     0.043 A 
HETATM   34  C   UNL     1      20.413  50.763  48.742  1.00  0.00     0.014 A 
HETATM   35  C   UNL     1      18.024  51.143  47.285  1.00  0.00     0.030 A 
HETATM   36  N   UNL     1      18.216  48.662  46.896  1.00  0.00    -0.364 N 
HETATM   37  C   UNL     1      18.669  52.220  47.901  1.00  0.00     0.002 A 
HETATM   38  C   UNL     1      19.849  52.036  48.617  1.00  0.00     0.001 A 
HETATM   39  H   UNL     1      17.388  48.516  46.335  1.00  0.00     0.165 HD
HETATM   40  C   UNL     1      19.108  47.687  47.252  1.00  0.00     0.102 A 
ENDBRANCH  30  31
ENDBRANCH   3  29
TORSDOF 7
ENDMDL
MODEL 8
REMARK VINA RESULT:     -10.3      2.136      9.881
REMARK  7 active torsions:
REMARK  status: ('A' for Active; 'I' for Inactive)
REMARK    1  A    between atoms: C_4  and  C_5 
REMARK    2  A    between atoms: C_5  and  C_6 
REMARK    3  A    between atoms: C_6  and  N_7 
REMARK       I    between atoms: N_7  and  C_8 
REMARK    4  A    between atoms: C_8  and  C_9 
REMARK    5  A    between atoms: C_10  and  N_11 
REMARK    6  A    between atoms: N_12  and  N_13 
REMARK    7  A    between atoms: C_14  and  C_15 
ROOT
HETATM    1  C   UNL     1      24.903  44.310  50.252  1.00  0.00     0.104 C 
HETATM    2  C   UNL     1      24.109  45.189  49.532  1.00  0.00     0.123 C 
HETATM    3  N   UNL     1      24.415  46.486  49.949  1.00  0.00    -0.202 N 
HETATM    4  C   UNL     1      25.081  46.382  51.157  1.00  0.00     0.183 A 
HETATM    5  C   UNL     1      25.460  45.052  51.319  1.00  0.00     0.124 A 
HETATM    6  N   UNL     1      26.198  44.649  52.385  1.00  0.00    -0.242 NA
HETATM    7  C   UNL     1      26.442  45.616  53.291  1.00  0.00     0.086 A 
HETATM    8  C   UNL     1      26.028  46.963  53.112  1.00  0.00     0.088 A 
HETATM    9  N   UNL     1      25.376  47.384  52.018  1.00  0.00    -0.225 NA
HETATM   10  C   UNL     1      27.108  45.276  54.463  1.00  0.00     0.034 A 
HETATM   11  C   UNL     1      27.361  46.216  55.464  1.00  0.00     0.002 A 
HETATM   12  C   UNL     1      26.950  47.529  55.288  1.00  0.00     0.002 A 
HETATM   13  C   UNL     1      26.293  47.890  54.112  1.00  0.00     0.034 A 
ENDROOT
BRANCH   1  14
HETATM   14  C   UNL     1      25.003  42.903  49.935  1.00  0.00     0.257 C 
HETATM   15  N   UNL     1      25.351  42.111  51.019  1.00  0.00    -0.356 N 
HETATM   16  H   UNL     1      25.502  42.601  51.891  1.00  0.00     0.162 HD
HETATM   17  O   UNL     1      24.992  42.497  48.778  1.00  0.00    -0.267 OA
BRANCH  15  18
HETATM   18  C   UNL     1      26.189  40.957  50.750  1.00  0.00     0.127 C 
BRANCH  18  19
HETATM   19  C   UNL     1      27.667  41.296  50.561  1.00  0.00     0.058 C 
BRANCH  19  20
HETATM   20  C   UNL     1      28.273  41.788  51.856  1.00  0.00    -0.057 A 
HETATM   21  C   UNL     1      29.163  42.873  51.862  1.00  0.00     0.007 A 
HETATM   22  C   UNL     1      29.769  43.284  53.051  1.00  0.00     0.001 A 
HETATM   23  C   UNL     1      29.496  42.617  54.243  1.00  0.00     0.000 A 
HETATM   24  C   UNL     1      28.608  41.542  54.250  1.00  0.00     0.001 A 
HETATM   25  C   UNL     1      27.997  41.132  53.064  1.00  0.00     0.007 A 
ENDBRANCH  19  20
ENDBRANCH  18  19
ENDBRANCH  15  18
ENDBRANCH   1  14
BRANCH   2  26
HETATM   26  N   UNL     1      23.196  44.918  48.553  1.00  0.00    -0.286 NA
HETATM   27  H   UNL     1      23.479  45.154  47.595  1.00  0.00     0.125 HD
HETATM   28  H   UNL     1      22.755  43.996  48.564  1.00  0.00     0.125 HD
ENDBRANCH   2  26
BRANCH   3  29
HETATM   29  N   UNL     1      24.107  47.674  49.330  1.00  0.00    -0.176 NA
HETATM   30  C   UNL     1      22.932  48.127  49.620  1.00  0.00     0.153 C 
BRANCH  30  31
HETATM   31  C   UNL     1      22.476  49.386  49.075  1.00  0.00     0.011 A 
HETATM   32  C   UNL     1      21.186  49.973  49.268  1.00  0.00     0.004 A 
HETATM   33  C   UNL     1      21.154  51.158  48.534  1.00  0.00     0.043 A 
HETATM   34  C   UNL     1      20.044  49.611  50.016  1.00  0.00     0.014 A 
HETATM   35  C   UNL     1      20.032  51.992  48.497  1.00  0.00     0.030 A 
HETATM   36  N   UNL     1      22.381  51.288  47.923  1.00  0.00    -0.364 N 
HETATM   37  C   UNL     1      18.915  51.613  49.249  1.00  0.00     0.002 A 
HETATM   38  C   UNL     1      18.920  50.442  50.001  1.00  0.00     0.001 A 
HETATM   39  H   UNL     1      22.642  52.054  47.318  1.00  0.00     0.165 HD
HETATM   40  C   UNL     1      23.192  50.238  48.259  1.00  0.00     0.102 A 
ENDBRANCH  30  31
ENDBRANCH   3  29
TORSDOF 7
ENDMDL
MODEL 9
REMARK VINA RESULT:     -10.2      2.010      3.109
REMARK  7 active torsions:
REMARK  status: ('A' for Active; 'I' for Inactive)
REMARK    1  A    between atoms: C_4  and  C_5 
REMARK    2  A    between atoms: C_5  and  C_6 
REMARK    3  A    between atoms: C_6  and  N_7 
REMARK       I    between atoms: N_7  and  C_8 
REMARK    4  A    between atoms: C_8  and  C_9 
REMARK    5  A    between atoms: C_10  and  N_11 
REMARK    6  A    between atoms: N_12  and  N_13 
REMARK    7  A    between atoms: C_14  and  C_15 
ROOT
HETATM    1  C   UNL     1      25.237  44.900  50.973  1.00  0.00     0.104 C 
HETATM    2  C   UNL     1      25.610  44.877  52.308  1.00  0.00     0.123 C 
HETATM    3  N   UNL     1      26.463  43.788  52.498  1.00  0.00    -0.202 N 
HETATM    4  C   UNL     1      26.302  42.946  51.412  1.00  0.00     0.183 A 
HETATM    5  C   UNL     1      25.612  43.651  50.429  1.00  0.00     0.124 A 
HETATM    6  N   UNL     1      25.364  43.107  49.210  1.00  0.00    -0.242 NA
HETATM    7  C   UNL     1      25.755  41.825  49.081  1.00  0.00     0.086 A 
HETATM    8  C   UNL     1      26.442  41.121  50.107  1.00  0.00     0.088 A 
HETATM    9  N   UNL     1      26.768  41.682  51.280  1.00  0.00    -0.225 NA
HETATM   10  C   UNL     1      25.457  41.154  47.900  1.00  0.00     0.034 A 
HETATM   11  C   UNL     1      25.797  39.812  47.711  1.00  0.00     0.002 A 
HETATM   12  C   UNL     1      26.461  39.127  48.718  1.00  0.00     0.002 A 
HETATM   13  C   UNL     1      26.781  39.790  49.902  1.00  0.00     0.034 A 
ENDROOT
BRANCH   1  14
HETATM   14  C   UNL     1      24.526  46.008  50.376  1.00  0.00     0.257 C 
HETATM   15  N   UNL     1      23.431  45.624  49.616  1.00  0.00    -0.356 N 
HETATM   16  H   UNL     1      23.263  44.627  49.560  1.00  0.00     0.162 HD
HETATM   17  O   UNL     1      24.984  47.146  50.373  1.00  0.00    -0.267 OA
BRANCH  15  18
HETATM   18  C   UNL     1      23.136  46.416  48.437  1.00  0.00     0.127 C 
BRANCH  18  19
HETATM   19  C   UNL     1      21.841  47.222  48.540  1.00  0.00     0.058 C 
BRANCH  19  20
HETATM   20  C   UNL     1      22.127  48.706  48.475  1.00  0.00    -0.057 A 
HETATM   21  C   UNL     1      23.402  49.173  48.123  1.00  0.00     0.007 A 
HETATM   22  C   UNL     1      23.679  50.541  48.125  1.00  0.00     0.001 A 
HETATM   23  C   UNL     1      22.689  51.456  48.480  1.00  0.00     0.000 A 
HETATM   24  C   UNL     1      21.417  51.003  48.826  1.00  0.00     0.001 A 
HETATM   25  C   UNL     1      21.136  49.636  48.819  1.00  0.00     0.007 A 
ENDBRANCH  19  20
ENDBRANCH  18  19
ENDBRANCH  15  18
ENDBRANCH   1  14
BRANCH   2  26
HETATM   26  N   UNL     1      25.276  45.744  53.310  1.00  0.00    -0.286 NA
HETATM   27  H   UNL     1      25.641  45.517  54.242  1.00  0.00     0.125 HD
HETATM   28  H   UNL     1      25.396  46.742  53.126  1.00  0.00     0.125 HD
ENDBRANCH   2  26
BRANCH   3  29
HETATM   29  N   UNL     1      27.301  43.539  53.559  1.00  0.00    -0.176 NA
HETATM   30  C   UNL     1      28.462  44.095  53.453  1.00  0.00     0.153 C 
BRANCH  30  31
HETATM   31  C   UNL     1      29.442  43.955  54.506  1.00  0.00     0.011 A 
HETATM   32  C   UNL     1      29.495  44.714  55.717  1.00  0.00     0.004 A 
HETATM   33  C   UNL     1      30.619  44.289  56.425  1.00  0.00     0.043 A 
HETATM   34  C   UNL     1      28.679  45.715  56.285  1.00  0.00     0.014 A 
HETATM   35  C   UNL     1      30.977  44.827  57.666  1.00  0.00     0.030 A 
HETATM   36  N   UNL     1      31.222  43.305  55.673  1.00  0.00    -0.364 N 
HETATM   37  C   UNL     1      30.149  45.815  58.208  1.00  0.00     0.002 A 
HETATM   38  C   UNL     1      29.014  46.252  57.532  1.00  0.00     0.001 A 
HETATM   39  H   UNL     1      32.067  42.818  55.938  1.00  0.00     0.165 HD
HETATM   40  C   UNL     1      30.510  43.081  54.526  1.00  0.00     0.102 A 
ENDBRANCH  30  31
ENDBRANCH   3  29
TORSDOF 7
ENDMDL
MODEL 10
REMARK VINA RESULT:     -10.1      2.479      5.236
REMARK  7 active torsions:
REMARK  status: ('A' for Active; 'I' for Inactive)
REMARK    1  A    between atoms: C_4  and  C_5 
REMARK    2  A    between atoms: C_5  and  C_6 
REMARK    3  A    between atoms: C_6  and  N_7 
REMARK       I    between atoms: N_7  and  C_8 
REMARK    4  A    between atoms: C_8  and  C_9 
REMARK    5  A    between atoms: C_10  and  N_11 
REMARK    6  A    between atoms: N_12  and  N_13 
REMARK    7  A    between atoms: C_14  and  C_15 
ROOT
HETATM    1  C   UNL     1      23.590  45.119  49.144  1.00  0.00     0.104 C 
HETATM    2  C   UNL     1      24.811  45.124  49.800  1.00  0.00     0.123 C 
HETATM    3  N   UNL     1      24.972  46.375  50.399  1.00  0.00    -0.202 N 
HETATM    4  C   UNL     1      24.070  47.236  49.801  1.00  0.00     0.183 A 
HETATM    5  C   UNL     1      23.159  46.464  49.084  1.00  0.00     0.124 A 
HETATM    6  N   UNL     1      22.104  47.026  48.441  1.00  0.00    -0.242 NA
HETATM    7  C   UNL     1      22.077  48.372  48.485  1.00  0.00     0.086 A 
HETATM    8  C   UNL     1      23.029  49.139  49.209  1.00  0.00     0.088 A 
HETATM    9  N   UNL     1      24.022  48.584  49.918  1.00  0.00    -0.225 NA
HETATM   10  C   UNL     1      21.087  49.041  47.775  1.00  0.00     0.034 A 
HETATM   11  C   UNL     1      21.021  50.436  47.743  1.00  0.00     0.002 A 
HETATM   12  C   UNL     1      21.956  51.182  48.445  1.00  0.00     0.002 A 
HETATM   13  C   UNL     1      22.947  50.526  49.175  1.00  0.00     0.034 A 
ENDROOT
BRANCH   1  14
HETATM   14  C   UNL     1      23.003  43.921  48.589  1.00  0.00     0.257 C 
HETATM   15  N   UNL     1      22.815  43.975  47.216  1.00  0.00    -0.356 N 
HETATM   16  H   UNL     1      23.097  44.837  46.768  1.00  0.00     0.162 HD
HETATM   17  O   UNL     1      22.526  43.043  49.302  1.00  0.00    -0.267 OA
BRANCH  15  18
HETATM   18  C   UNL     1      21.646  43.299  46.684  1.00  0.00     0.127 C 
BRANCH  18  19
HETATM   19  C   UNL     1      20.927  44.079  45.584  1.00  0.00     0.058 C 
BRANCH  19  20
HETATM   20  C   UNL     1      19.957  45.075  46.180  1.00  0.00    -0.057 A 
HETATM   21  C   UNL     1      19.362  44.834  47.427  1.00  0.00     0.007 A 
HETATM   22  C   UNL     1      18.420  45.725  47.945  1.00  0.00     0.001 A 
HETATM   23  C   UNL     1      18.061  46.862  47.224  1.00  0.00     0.000 A 
HETATM   24  C   UNL     1      18.651  47.114  45.987  1.00  0.00     0.001 A 
HETATM   25  C   UNL     1      19.596  46.228  45.469  1.00  0.00     0.007 A 
ENDBRANCH  19  20
ENDBRANCH  18  19
ENDBRANCH  15  18
ENDBRANCH   1  14
BRANCH   2  26
HETATM   26  N   UNL     1      25.730  44.120  49.916  1.00  0.00    -0.286 NA
HETATM   27  H   UNL     1      25.771  43.650  50.828  1.00  0.00     0.125 HD
HETATM   28  H   UNL     1      25.761  43.424  49.169  1.00  0.00     0.125 HD
ENDBRANCH   2  26
BRANCH   3  29
HETATM   29  N   UNL     1      25.865  46.741  51.378  1.00  0.00    -0.176 NA
HETATM   30  C   UNL     1      25.489  46.427  52.574  1.00  0.00     0.153 C 
BRANCH  30  31
HETATM   31  C   UNL     1      26.337  46.713  53.709  1.00  0.00     0.011 A 
HETATM   32  C   UNL     1      27.406  45.894  54.193  1.00  0.00     0.004 A 
HETATM   33  C   UNL     1      27.927  46.518  55.326  1.00  0.00     0.043 A 
HETATM   34  C   UNL     1      27.990  44.684  53.761  1.00  0.00     0.014 A 
HETATM   35  C   UNL     1      28.993  45.984  56.059  1.00  0.00     0.030 A 
HETATM   36  N   UNL     1      27.204  47.675  55.519  1.00  0.00    -0.364 N 
HETATM   37  C   UNL     1      29.556  44.786  55.607  1.00  0.00     0.002 A 
HETATM   38  C   UNL     1      29.066  44.145  54.472  1.00  0.00     0.001 A 
HETATM   39  H   UNL     1      27.358  48.327  56.275  1.00  0.00     0.165 HD
HETATM   40  C   UNL     1      26.260  47.812  54.539  1.00  0.00     0.102 A 
ENDBRANCH  30  31
ENDBRANCH   3  29
TORSDOF 7
ENDMDL
