MODEL 1
REMARK VINA RESULT:      -7.7      0.000      0.000
REMARK  6 active torsions:
REMARK  status: ('A' for Active; 'I' for Inactive)
REMARK    1  A    between atoms: C_2  and  O_3 
REMARK    2  A    between atoms: O_3  and  C_4 
REMARK    3  A    between atoms: C_7  and  N_8 
REMARK    4  A    between atoms: C_9  and  O_10 
REMARK    5  A    between atoms: C_9  and  C_11 
REMARK       I    between atoms: C_11  and  N_12 
REMARK    6  A    between atoms: N_12  and  C_13 
ROOT
HETATM    1  N   UNL     1      18.662  49.627  49.160  1.00  0.00    -0.254 N 
HETATM    2  C   UNL     1      19.624  49.482  48.059  1.00  0.00     0.256 C 
HETATM    3  C   UNL     1      19.810  48.018  47.726  1.00  0.00     0.035 A 
HETATM    4  C   UNL     1      19.872  47.151  48.815  1.00  0.00     0.048 A 
HETATM    5  N   UNL     1      19.585  47.666  50.078  1.00  0.00    -0.308 N 
HETATM    6  C   UNL     1      18.892  48.839  50.291  1.00  0.00     0.330 C 
HETATM    7  O   UNL     1      18.456  49.037  51.424  1.00  0.00    -0.246 OA
HETATM    8  C   UNL     1      20.019  47.515  46.435  1.00  0.00     0.034 A 
HETATM    9  C   UNL     1      20.305  46.160  46.260  1.00  0.00     0.011 A 
HETATM   10 BR   UNL     1      20.587  45.480  44.520  1.00  0.00    -0.051 Br
HETATM   11  C   UNL     1      20.398  45.307  47.361  1.00  0.00     0.021 A 
HETATM   12  C   UNL     1      20.186  45.805  48.648  1.00  0.00     0.031 A 
HETATM   13  H   UNL     1      19.617  47.064  50.892  1.00  0.00     0.170 HD
ENDROOT
BRANCH   1  14
HETATM   14  C   UNL     1      17.716  50.696  49.196  1.00  0.00     0.043 A 
HETATM   15  C   UNL     1      17.998  51.909  49.830  1.00  0.00     0.032 A 
HETATM   16  C   UNL     1      17.038  52.925  49.891  1.00  0.00     0.039 A 
HETATM   17  C   UNL     1      15.770  52.745  49.335  1.00  0.00     0.068 A 
HETATM   18  C   UNL     1      15.472  51.535  48.715  1.00  0.00     0.039 A 
HETATM   19  C   UNL     1      16.436  50.519  48.653  1.00  0.00     0.032 A 
BRANCH  17  20
HETATM   20  O   UNL     1      14.923  53.809  49.473  1.00  0.00    -0.352 OA
BRANCH  20  21
HETATM   21  C   UNL     1      14.032  53.787  50.586  1.00  0.00     0.171 C 
HETATM   22  C   UNL     1      12.653  54.190  50.093  1.00  0.00     0.034 C 
ENDBRANCH  20  21
ENDBRANCH  17  20
ENDBRANCH   1  14
BRANCH   2  23
HETATM   23  O   UNL     1      19.213  50.173  46.877  1.00  0.00    -0.359 OA
HETATM   24  H   UNL     1      18.370  50.597  47.127  1.00  0.00     0.213 HD
ENDBRANCH   2  23
BRANCH   2  25
HETATM   25  C   UNL     1      20.979  50.191  48.500  1.00  0.00     0.279 C 
HETATM   26  N   UNL     1      22.122  49.406  48.546  1.00  0.00    -0.352 N 
HETATM   27  H   UNL     1      22.066  48.419  48.327  1.00  0.00     0.163 HD
HETATM   28  O   UNL     1      21.032  51.411  48.694  1.00  0.00    -0.268 OA
BRANCH  26  29
HETATM   29  C   UNL     1      23.396  49.930  48.923  1.00  0.00     0.084 A 
HETATM   30  C   UNL     1      24.610  49.042  48.939  1.00  0.00     0.027 A 
HETATM   31  C   UNL     1      24.481  50.113  47.897  1.00  0.00     0.027 A 
ENDBRANCH  26  29
ENDBRANCH   2  25
TORSDOF 6
ENDMDL
MODEL 2
REMARK VINA RESULT:      -7.5      2.759      6.896
REMARK  6 active torsions:
REMARK  status: ('A' for Active; 'I' for Inactive)
REMARK    1  A    between atoms: C_2  and  O_3 
REMARK    2  A    between atoms: O_3  and  C_4 
REMARK    3  A    between atoms: C_7  and  N_8 
REMARK    4  A    between atoms: C_9  and  O_10 
REMARK    5  A    between atoms: C_9  and  C_11 
REMARK       I    between atoms: C_11  and  N_12 
REMARK    6  A    between atoms: N_12  and  C_13 
ROOT
HETATM    1  N   UNL     1      19.332  50.108  48.745  1.00  0.00    -0.254 N 
HETATM    2  C   UNL     1      18.583  49.969  47.489  1.00  0.00     0.256 C 
HETATM    3  C   UNL     1      17.489  51.011  47.422  1.00  0.00     0.035 A 
HETATM    4  C   UNL     1      16.803  51.248  48.612  1.00  0.00     0.048 A 
HETATM    5  N   UNL     1      17.288  50.653  49.775  1.00  0.00    -0.308 N 
HETATM    6  C   UNL     1      18.572  50.171  49.916  1.00  0.00     0.330 C 
HETATM    7  O   UNL     1      18.963  49.937  51.058  1.00  0.00    -0.246 OA
HETATM    8  C   UNL     1      17.072  51.655  46.249  1.00  0.00     0.034 A 
HETATM    9  C   UNL     1      15.967  52.507  46.286  1.00  0.00     0.011 A 
HETATM   10 BR   UNL     1      15.403  53.376  44.705  1.00  0.00    -0.051 Br
HETATM   11  C   UNL     1      15.266  52.711  47.475  1.00  0.00     0.021 A 
HETATM   12  C   UNL     1      15.683  52.074  48.646  1.00  0.00     0.031 A 
HETATM   13  H   UNL     1      16.816  50.805  50.659  1.00  0.00     0.170 HD
ENDROOT
BRANCH   1  14
HETATM   14  C   UNL     1      20.746  49.914  48.802  1.00  0.00     0.043 A 
HETATM   15  C   UNL     1      21.309  48.650  49.000  1.00  0.00     0.032 A 
HETATM   16  C   UNL     1      22.696  48.493  49.098  1.00  0.00     0.039 A 
HETATM   17  C   UNL     1      23.549  49.595  49.018  1.00  0.00     0.068 A 
HETATM   18  C   UNL     1      22.998  50.861  48.838  1.00  0.00     0.039 A 
HETATM   19  C   UNL     1      21.608  51.016  48.737  1.00  0.00     0.032 A 
BRANCH  17  20
HETATM   20  O   UNL     1      24.879  49.306  49.141  1.00  0.00    -0.352 OA
BRANCH  20  21
HETATM   21  C   UNL     1      25.761  49.900  48.191  1.00  0.00     0.171 C 
HETATM   22  C   UNL     1      27.182  49.726  48.697  1.00  0.00     0.034 C 
ENDBRANCH  20  21
ENDBRANCH  17  20
ENDBRANCH   1  14
BRANCH   2  23
HETATM   23  O   UNL     1      19.416  50.103  46.335  1.00  0.00    -0.359 OA
HETATM   24  H   UNL     1      20.212  50.563  46.665  1.00  0.00     0.213 HD
ENDBRANCH   2  23
BRANCH   2  25
HETATM   25  C   UNL     1      18.022  48.480  47.419  1.00  0.00     0.279 C 
HETATM   26  N   UNL     1      18.867  47.505  46.909  1.00  0.00    -0.352 N 
HETATM   27  H   UNL     1      19.791  47.759  46.579  1.00  0.00     0.163 HD
HETATM   28  O   UNL     1      16.918  48.187  47.892  1.00  0.00    -0.268 OA
BRANCH  26  29
HETATM   29  C   UNL     1      18.478  46.136  46.799  1.00  0.00     0.084 A 
HETATM   30  C   UNL     1      19.312  45.169  46.005  1.00  0.00     0.027 A 
HETATM   31  C   UNL     1      19.264  45.060  47.500  1.00  0.00     0.027 A 
ENDBRANCH  26  29
ENDBRANCH   2  25
TORSDOF 6
ENDMDL
MODEL 3
REMARK VINA RESULT:      -7.4      6.304     10.509
REMARK  6 active torsions:
REMARK  status: ('A' for Active; 'I' for Inactive)
REMARK    1  A    between atoms: C_2  and  O_3 
REMARK    2  A    between atoms: O_3  and  C_4 
REMARK    3  A    between atoms: C_7  and  N_8 
REMARK    4  A    between atoms: C_9  and  O_10 
REMARK    5  A    between atoms: C_9  and  C_11 
REMARK       I    between atoms: C_11  and  N_12 
REMARK    6  A    between atoms: N_12  and  C_13 
ROOT
HETATM    1  N   UNL     1      25.762  45.578  49.764  1.00  0.00    -0.254 N 
HETATM    2  C   UNL     1      24.671  46.304  50.429  1.00  0.00     0.256 C 
HETATM    3  C   UNL     1      24.418  47.616  49.721  1.00  0.00     0.035 A 
HETATM    4  C   UNL     1      25.552  48.308  49.302  1.00  0.00     0.048 A 
HETATM    5  N   UNL     1      26.785  47.667  49.406  1.00  0.00    -0.308 N 
HETATM    6  C   UNL     1      26.934  46.302  49.529  1.00  0.00     0.330 C 
HETATM    7  O   UNL     1      28.054  45.837  49.323  1.00  0.00    -0.246 OA
HETATM    8  C   UNL     1      23.155  48.204  49.560  1.00  0.00     0.034 A 
HETATM    9  C   UNL     1      23.055  49.479  49.001  1.00  0.00     0.011 A 
HETATM   10 BR   UNL     1      21.354  50.273  48.783  1.00  0.00    -0.051 Br
HETATM   11  C   UNL     1      24.200  50.178  48.616  1.00  0.00     0.021 A 
HETATM   12  C   UNL     1      25.457  49.592  48.771  1.00  0.00     0.031 A 
HETATM   13  H   UNL     1      27.630  48.139  49.108  1.00  0.00     0.170 HD
ENDROOT
BRANCH   1  14
HETATM   14  C   UNL     1      25.739  44.158  49.616  1.00  0.00     0.043 A 
HETATM   15  C   UNL     1      26.543  43.322  50.396  1.00  0.00     0.032 A 
HETATM   16  C   UNL     1      26.536  41.937  50.200  1.00  0.00     0.039 A 
HETATM   17  C   UNL     1      25.740  41.358  49.210  1.00  0.00     0.068 A 
HETATM   18  C   UNL     1      24.948  42.182  48.416  1.00  0.00     0.039 A 
HETATM   19  C   UNL     1      24.954  43.570  48.615  1.00  0.00     0.032 A 
BRANCH  17  20
HETATM   20  O   UNL     1      25.834  39.998  49.116  1.00  0.00    -0.352 OA
BRANCH  20  21
HETATM   21  C   UNL     1      27.087  39.410  49.460  1.00  0.00     0.171 C 
HETATM   22  C   UNL     1      26.916  37.901  49.455  1.00  0.00     0.034 C 
ENDBRANCH  20  21
ENDBRANCH  17  20
ENDBRANCH   1  14
BRANCH   2  23
HETATM   23  O   UNL     1      23.453  45.556  50.460  1.00  0.00    -0.359 OA
HETATM   24  H   UNL     1      23.231  45.496  51.409  1.00  0.00     0.213 HD
ENDBRANCH   2  23
BRANCH   2  25
HETATM   25  C   UNL     1      25.074  46.495  51.957  1.00  0.00     0.279 C 
HETATM   26  N   UNL     1      25.216  45.349  52.726  1.00  0.00    -0.352 N 
HETATM   27  H   UNL     1      25.043  44.440  52.315  1.00  0.00     0.163 HD
HETATM   28  O   UNL     1      25.347  47.611  52.414  1.00  0.00    -0.268 OA
BRANCH  26  29
HETATM   29  C   UNL     1      25.577  45.393  54.107  1.00  0.00     0.084 A 
HETATM   30  C   UNL     1      25.842  44.122  54.866  1.00  0.00     0.027 A 
HETATM   31  C   UNL     1      26.976  45.049  54.543  1.00  0.00     0.027 A 
ENDBRANCH  26  29
ENDBRANCH   2  25
TORSDOF 6
ENDMDL
MODEL 4
REMARK VINA RESULT:      -7.2     13.569     16.090
REMARK  6 active torsions:
REMARK  status: ('A' for Active; 'I' for Inactive)
REMARK    1  A    between atoms: C_2  and  O_3 
REMARK    2  A    between atoms: O_3  and  C_4 
REMARK    3  A    between atoms: C_7  and  N_8 
REMARK    4  A    between atoms: C_9  and  O_10 
REMARK    5  A    between atoms: C_9  and  C_11 
REMARK       I    between atoms: C_11  and  N_12 
REMARK    6  A    between atoms: N_12  and  C_13 
ROOT
HETATM    1  N   UNL     1      32.053  49.646  41.078  1.00  0.00    -0.254 N 
HETATM    2  C   UNL     1      32.724  50.658  40.251  1.00  0.00     0.256 C 
HETATM    3  C   UNL     1      34.184  50.752  40.634  1.00  0.00     0.035 A 
HETATM    4  C   UNL     1      34.459  50.684  41.998  1.00  0.00     0.048 A 
HETATM    5  N   UNL     1      33.413  50.362  42.861  1.00  0.00    -0.308 N 
HETATM    6  C   UNL     1      32.245  49.749  42.459  1.00  0.00     0.330 C 
HETATM    7  O   UNL     1      31.534  49.262  43.336  1.00  0.00    -0.246 OA
HETATM    8  C   UNL     1      35.230  50.999  39.734  1.00  0.00     0.034 A 
HETATM    9  C   UNL     1      36.525  51.192  40.218  1.00  0.00     0.011 A 
HETATM   10 BR   UNL     1      37.936  51.525  39.006  1.00  0.00    -0.051 Br
HETATM   11  C   UNL     1      36.784  51.156  41.589  1.00  0.00     0.021 A 
HETATM   12  C   UNL     1      35.744  50.906  42.486  1.00  0.00     0.031 A 
HETATM   13  H   UNL     1      33.577  50.302  43.858  1.00  0.00     0.170 HD
ENDROOT
BRANCH   1  14
HETATM   14  C   UNL     1      31.049  48.783  40.543  1.00  0.00     0.043 A 
HETATM   15  C   UNL     1      29.706  49.162  40.485  1.00  0.00     0.032 A 
HETATM   16  C   UNL     1      28.733  48.280  39.999  1.00  0.00     0.039 A 
HETATM   17  C   UNL     1      29.080  46.996  39.576  1.00  0.00     0.068 A 
HETATM   18  C   UNL     1      30.413  46.601  39.645  1.00  0.00     0.039 A 
HETATM   19  C   UNL     1      31.386  47.487  40.130  1.00  0.00     0.032 A 
BRANCH  17  20
HETATM   20  O   UNL     1      28.036  46.232  39.135  1.00  0.00    -0.352 OA
BRANCH  20  21
HETATM   21  C   UNL     1      26.966  46.008  40.050  1.00  0.00     0.171 C 
HETATM   22  C   UNL     1      27.250  44.719  40.801  1.00  0.00     0.034 C 
ENDBRANCH  20  21
ENDBRANCH  17  20
ENDBRANCH   1  14
BRANCH   2  23
HETATM   23  O   UNL     1      32.634  50.371  38.853  1.00  0.00    -0.359 OA
HETATM   24  H   UNL     1      33.461  49.892  38.652  1.00  0.00     0.213 HD
ENDBRANCH   2  23
BRANCH   2  25
HETATM   25  C   UNL     1      31.946  52.034  40.438  1.00  0.00     0.279 C 
HETATM   26  N   UNL     1      30.724  52.167  39.796  1.00  0.00    -0.352 N 
HETATM   27  H   UNL     1      30.373  51.413  39.217  1.00  0.00     0.163 HD
HETATM   28  O   UNL     1      32.365  52.908  41.205  1.00  0.00    -0.268 OA
BRANCH  26  29
HETATM   29  C   UNL     1      29.933  53.352  39.891  1.00  0.00     0.084 A 
HETATM   30  C   UNL     1      28.765  53.564  38.969  1.00  0.00     0.027 A 
HETATM   31  C   UNL     1      28.527  53.291  40.424  1.00  0.00     0.027 A 
ENDBRANCH  26  29
ENDBRANCH   2  25
TORSDOF 6
ENDMDL
MODEL 5
REMARK VINA RESULT:      -7.1      3.681      5.734
REMARK  6 active torsions:
REMARK  status: ('A' for Active; 'I' for Inactive)
REMARK    1  A    between atoms: C_2  and  O_3 
REMARK    2  A    between atoms: O_3  and  C_4 
REMARK    3  A    between atoms: C_7  and  N_8 
REMARK    4  A    between atoms: C_9  and  O_10 
REMARK    5  A    between atoms: C_9  and  C_11 
REMARK       I    between atoms: C_11  and  N_12 
REMARK    6  A    between atoms: N_12  and  C_13 
ROOT
HETATM    1  N   UNL     1      17.150  51.388  46.945  1.00  0.00    -0.254 N 
HETATM    2  C   UNL     1      18.112  51.882  47.939  1.00  0.00     0.256 C 
HETATM    3  C   UNL     1      19.261  50.908  48.074  1.00  0.00     0.035 A 
HETATM    4  C   UNL     1      18.917  49.558  48.060  1.00  0.00     0.048 A 
HETATM    5  N   UNL     1      17.600  49.222  47.750  1.00  0.00    -0.308 N 
HETATM    6  C   UNL     1      16.724  50.066  47.101  1.00  0.00     0.330 C 
HETATM    7  O   UNL     1      15.703  49.564  46.633  1.00  0.00    -0.246 OA
HETATM    8  C   UNL     1      20.594  51.275  48.308  1.00  0.00     0.034 A 
HETATM    9  C   UNL     1      21.551  50.286  48.541  1.00  0.00     0.011 A 
HETATM   10 BR   UNL     1      23.348  50.778  48.857  1.00  0.00    -0.051 Br
HETATM   11  C   UNL     1      21.189  48.938  48.559  1.00  0.00     0.021 A 
HETATM   12  C   UNL     1      19.863  48.571  48.322  1.00  0.00     0.031 A 
HETATM   13  H   UNL     1      17.315  48.251  47.728  1.00  0.00     0.170 HD
ENDROOT
BRANCH   1  14
HETATM   14  C   UNL     1      16.478  52.270  46.046  1.00  0.00     0.043 A 
HETATM   15  C   UNL     1      15.226  52.814  46.344  1.00  0.00     0.032 A 
HETATM   16  C   UNL     1      14.568  53.640  45.426  1.00  0.00     0.039 A 
HETATM   17  C   UNL     1      15.138  53.926  44.184  1.00  0.00     0.068 A 
HETATM   18  C   UNL     1      16.378  53.376  43.870  1.00  0.00     0.039 A 
HETATM   19  C   UNL     1      17.036  52.551  44.791  1.00  0.00     0.032 A 
BRANCH  17  20
HETATM   20  O   UNL     1      14.388  54.734  43.377  1.00  0.00    -0.352 OA
BRANCH  20  21
HETATM   21  C   UNL     1      14.975  55.969  42.970  1.00  0.00     0.171 C 
HETATM   22  C   UNL     1      14.269  57.092  43.710  1.00  0.00     0.034 C 
ENDBRANCH  20  21
ENDBRANCH  17  20
ENDBRANCH   1  14
BRANCH   2  23
HETATM   23  O   UNL     1      18.638  53.169  47.602  1.00  0.00    -0.359 OA
HETATM   24  H   UNL     1      18.336  53.750  48.326  1.00  0.00     0.213 HD
ENDBRANCH   2  23
BRANCH   2  25
HETATM   25  C   UNL     1      17.329  52.106  49.307  1.00  0.00     0.279 C 
HETATM   26  N   UNL     1      16.482  53.202  49.383  1.00  0.00    -0.352 N 
HETATM   27  H   UNL     1      16.400  53.833  48.596  1.00  0.00     0.163 HD
HETATM   28  O   UNL     1      17.394  51.282  50.226  1.00  0.00    -0.268 OA
BRANCH  26  29
HETATM   29  C   UNL     1      15.724  53.504  50.556  1.00  0.00     0.084 A 
HETATM   30  C   UNL     1      14.754  54.653  50.560  1.00  0.00     0.027 A 
HETATM   31  C   UNL     1      14.243  53.243  50.596  1.00  0.00     0.027 A 
ENDBRANCH  26  29
ENDBRANCH   2  25
TORSDOF 6
ENDMDL
MODEL 6
REMARK VINA RESULT:      -7.1     11.299     13.939
REMARK  6 active torsions:
REMARK  status: ('A' for Active; 'I' for Inactive)
REMARK    1  A    between atoms: C_2  and  O_3 
REMARK    2  A    between atoms: O_3  and  C_4 
REMARK    3  A    between atoms: C_7  and  N_8 
REMARK    4  A    between atoms: C_9  and  O_10 
REMARK    5  A    between atoms: C_9  and  C_11 
REMARK       I    between atoms: C_11  and  N_12 
REMARK    6  A    between atoms: N_12  and  C_13 
ROOT
HETATM    1  N   UNL     1      29.520  48.115  40.516  1.00  0.00    -0.254 N 
HETATM    2  C   UNL     1      28.080  47.893  40.705  1.00  0.00     0.256 C 
HETATM    3  C   UNL     1      27.780  46.411  40.684  1.00  0.00     0.035 A 
HETATM    4  C   UNL     1      28.474  45.665  39.734  1.00  0.00     0.048 A 
HETATM    5  N   UNL     1      29.492  46.296  39.023  1.00  0.00    -0.308 N 
HETATM    6  C   UNL     1      30.111  47.458  39.433  1.00  0.00     0.330 C 
HETATM    7  O   UNL     1      31.171  47.755  38.884  1.00  0.00    -0.246 OA
HETATM    8  C   UNL     1      26.801  45.785  41.468  1.00  0.00     0.034 A 
HETATM    9  C   UNL     1      26.524  44.431  41.274  1.00  0.00     0.011 A 
HETATM   10 BR   UNL     1      25.205  43.586  42.331  1.00  0.00    -0.051 Br
HETATM   11  C   UNL     1      27.201  43.700  40.296  1.00  0.00     0.021 A 
HETATM   12  C   UNL     1      28.179  44.321  39.517  1.00  0.00     0.031 A 
HETATM   13  H   UNL     1      30.019  45.784  38.326  1.00  0.00     0.170 HD
ENDROOT
BRANCH   1  14
HETATM   14  C   UNL     1      30.220  49.146  41.214  1.00  0.00     0.043 A 
HETATM   15  C   UNL     1      30.194  50.476  40.785  1.00  0.00     0.032 A 
HETATM   16  C   UNL     1      30.925  51.460  41.460  1.00  0.00     0.039 A 
HETATM   17  C   UNL     1      31.711  51.134  42.567  1.00  0.00     0.068 A 
HETATM   18  C   UNL     1      31.757  49.809  42.993  1.00  0.00     0.039 A 
HETATM   19  C   UNL     1      31.022  48.826  42.317  1.00  0.00     0.032 A 
BRANCH  17  20
HETATM   20  O   UNL     1      32.382  52.184  43.126  1.00  0.00    -0.352 OA
BRANCH  20  21
HETATM   21  C   UNL     1      33.147  51.913  44.299  1.00  0.00     0.171 C 
HETATM   22  C   UNL     1      34.617  52.055  43.946  1.00  0.00     0.034 C 
ENDBRANCH  20  21
ENDBRANCH  17  20
ENDBRANCH   1  14
BRANCH   2  23
HETATM   23  O   UNL     1      27.597  48.442  41.933  1.00  0.00    -0.359 OA
HETATM   24  H   UNL     1      26.760  48.882  41.687  1.00  0.00     0.213 HD
ENDBRANCH   2  23
BRANCH   2  25
HETATM   25  C   UNL     1      27.310  48.695  39.565  1.00  0.00     0.279 C 
HETATM   26  N   UNL     1      25.997  49.062  39.822  1.00  0.00    -0.352 N 
HETATM   27  H   UNL     1      25.560  48.798  40.697  1.00  0.00     0.163 HD
HETATM   28  O   UNL     1      27.889  49.064  38.537  1.00  0.00    -0.268 OA
BRANCH  26  29
HETATM   29  C   UNL     1      25.205  49.786  38.879  1.00  0.00     0.084 A 
HETATM   30  C   UNL     1      24.402  49.054  37.839  1.00  0.00     0.027 A 
HETATM   31  C   UNL     1      23.703  49.759  38.964  1.00  0.00     0.027 A 
ENDBRANCH  26  29
ENDBRANCH   2  25
TORSDOF 6
ENDMDL
MODEL 7
REMARK VINA RESULT:      -6.9      7.271     10.364
REMARK  6 active torsions:
REMARK  status: ('A' for Active; 'I' for Inactive)
REMARK    1  A    between atoms: C_2  and  O_3 
REMARK    2  A    between atoms: O_3  and  C_4 
REMARK    3  A    between atoms: C_7  and  N_8 
REMARK    4  A    between atoms: C_9  and  O_10 
REMARK    5  A    between atoms: C_9  and  C_11 
REMARK       I    between atoms: C_11  and  N_12 
REMARK    6  A    between atoms: N_12  and  C_13 
ROOT
HETATM    1  N   UNL     1      26.196  44.319  51.353  1.00  0.00    -0.254 N 
HETATM    2  C   UNL     1      25.456  45.347  50.610  1.00  0.00     0.256 C 
HETATM    3  C   UNL     1      24.350  44.704  49.803  1.00  0.00     0.035 A 
HETATM    4  C   UNL     1      24.675  43.502  49.178  1.00  0.00     0.048 A 
HETATM    5  N   UNL     1      25.900  42.915  49.487  1.00  0.00    -0.308 N 
HETATM    6  C   UNL     1      26.636  43.217  50.614  1.00  0.00     0.330 C 
HETATM    7  O   UNL     1      27.539  42.441  50.921  1.00  0.00    -0.246 OA
HETATM    8  C   UNL     1      23.093  45.281  49.571  1.00  0.00     0.034 A 
HETATM    9  C   UNL     1      22.196  44.654  48.706  1.00  0.00     0.011 A 
HETATM   10 BR   UNL     1      20.501  45.431  48.392  1.00  0.00    -0.051 Br
HETATM   11  C   UNL     1      22.544  43.468  48.058  1.00  0.00     0.021 A 
HETATM   12  C   UNL     1      23.793  42.890  48.291  1.00  0.00     0.031 A 
HETATM   13  H   UNL     1      26.168  42.040  49.054  1.00  0.00     0.170 HD
ENDROOT
BRANCH   1  14
HETATM   14  C   UNL     1      26.681  44.550  52.676  1.00  0.00     0.043 A 
HETATM   15  C   UNL     1      27.898  45.193  52.913  1.00  0.00     0.032 A 
HETATM   16  C   UNL     1      28.373  45.367  54.218  1.00  0.00     0.039 A 
HETATM   17  C   UNL     1      27.651  44.887  55.312  1.00  0.00     0.068 A 
HETATM   18  C   UNL     1      26.445  44.230  55.087  1.00  0.00     0.039 A 
HETATM   19  C   UNL     1      25.970  44.059  53.779  1.00  0.00     0.032 A 
BRANCH  17  20
HETATM   20  O   UNL     1      28.230  45.112  56.529  1.00  0.00    -0.352 OA
BRANCH  20  21
HETATM   21  C   UNL     1      29.562  45.621  56.529  1.00  0.00     0.171 C 
HETATM   22  C   UNL     1      29.948  45.932  57.964  1.00  0.00     0.034 C 
ENDBRANCH  20  21
ENDBRANCH  17  20
ENDBRANCH   1  14
BRANCH   2  23
HETATM   23  O   UNL     1      24.882  46.337  51.467  1.00  0.00    -0.359 OA
HETATM   24  H   UNL     1      25.507  47.086  51.422  1.00  0.00     0.213 HD
ENDBRANCH   2  23
BRANCH   2  25
HETATM   25  C   UNL     1      26.498  46.141  49.706  1.00  0.00     0.279 C 
HETATM   26  N   UNL     1      26.284  47.501  49.534  1.00  0.00    -0.352 N 
HETATM   27  H   UNL     1      25.477  47.943  49.956  1.00  0.00     0.163 HD
HETATM   28  O   UNL     1      27.511  45.591  49.260  1.00  0.00    -0.268 OA
BRANCH  26  29
HETATM   29  C   UNL     1      27.151  48.319  48.748  1.00  0.00     0.084 A 
HETATM   30  C   UNL     1      26.829  49.770  48.519  1.00  0.00     0.027 A 
HETATM   31  C   UNL     1      27.985  49.392  49.396  1.00  0.00     0.027 A 
ENDBRANCH  26  29
ENDBRANCH   2  25
TORSDOF 6
ENDMDL
MODEL 8
REMARK VINA RESULT:      -6.8     11.532     14.074
REMARK  6 active torsions:
REMARK  status: ('A' for Active; 'I' for Inactive)
REMARK    1  A    between atoms: C_2  and  O_3 
REMARK    2  A    between atoms: O_3  and  C_4 
REMARK    3  A    between atoms: C_7  and  N_8 
REMARK    4  A    between atoms: C_9  and  O_10 
REMARK    5  A    between atoms: C_9  and  C_11 
REMARK       I    between atoms: C_11  and  N_12 
REMARK    6  A    between atoms: N_12  and  C_13 
ROOT
HETATM    1  N   UNL     1      29.100  48.491  40.019  1.00  0.00    -0.254 N 
HETATM    2  C   UNL     1      27.730  49.019  40.055  1.00  0.00     0.256 C 
HETATM    3  C   UNL     1      26.737  47.891  39.883  1.00  0.00     0.035 A 
HETATM    4  C   UNL     1      27.078  46.922  38.942  1.00  0.00     0.048 A 
HETATM    5  N   UNL     1      28.353  46.974  38.382  1.00  0.00    -0.308 N 
HETATM    6  C   UNL     1      29.413  47.656  38.943  1.00  0.00     0.330 C 
HETATM    7  O   UNL     1      30.538  47.394  38.520  1.00  0.00    -0.246 OA
HETATM    8  C   UNL     1      25.490  47.821  40.520  1.00  0.00     0.034 A 
HETATM    9  C   UNL     1      24.603  46.796  40.188  1.00  0.00     0.011 A 
HETATM   10 BR   UNL     1      22.921  46.701  41.045  1.00  0.00    -0.051 Br
HETATM   11  C   UNL     1      24.940  45.850  39.219  1.00  0.00     0.021 A 
HETATM   12  C   UNL     1      26.184  45.915  38.587  1.00  0.00     0.031 A 
HETATM   13  H   UNL     1      28.636  46.284  37.696  1.00  0.00     0.170 HD
ENDROOT
BRANCH   1  14
HETATM   14  C   UNL     1      30.129  49.012  40.861  1.00  0.00     0.043 A 
HETATM   15  C   UNL     1      30.959  50.058  40.451  1.00  0.00     0.032 A 
HETATM   16  C   UNL     1      31.990  50.519  41.278  1.00  0.00     0.039 A 
HETATM   17  C   UNL     1      32.224  49.934  42.524  1.00  0.00     0.068 A 
HETATM   18  C   UNL     1      31.413  48.880  42.936  1.00  0.00     0.039 A 
HETATM   19  C   UNL     1      30.379  48.421  42.108  1.00  0.00     0.032 A 
BRANCH  17  20
HETATM   20  O   UNL     1      33.266  50.470  43.226  1.00  0.00    -0.352 OA
BRANCH  20  21
HETATM   21  C   UNL     1      33.169  51.848  43.580  1.00  0.00     0.171 C 
HETATM   22  C   UNL     1      32.353  51.950  44.856  1.00  0.00     0.034 C 
ENDBRANCH  20  21
ENDBRANCH  17  20
ENDBRANCH   1  14
BRANCH   2  23
HETATM   23  O   UNL     1      27.438  49.704  41.276  1.00  0.00    -0.359 OA
HETATM   24  H   UNL     1      28.080  50.440  41.299  1.00  0.00     0.213 HD
ENDBRANCH   2  23
BRANCH   2  25
HETATM   25  C   UNL     1      27.604  50.130  38.922  1.00  0.00     0.279 C 
HETATM   26  N   UNL     1      28.227  51.348  39.152  1.00  0.00    -0.352 N 
HETATM   27  H   UNL     1      28.716  51.508  40.025  1.00  0.00     0.163 HD
HETATM   28  O   UNL     1      27.061  49.883  37.839  1.00  0.00    -0.268 OA
BRANCH  26  29
HETATM   29  C   UNL     1      28.187  52.419  38.209  1.00  0.00     0.084 A 
HETATM   30  C   UNL     1      28.774  53.760  38.555  1.00  0.00     0.027 A 
HETATM   31  C   UNL     1      29.447  52.891  37.535  1.00  0.00     0.027 A 
ENDBRANCH  26  29
ENDBRANCH   2  25
TORSDOF 6
ENDMDL
MODEL 9
REMARK VINA RESULT:      -6.6     14.795     17.765
REMARK  6 active torsions:
REMARK  status: ('A' for Active; 'I' for Inactive)
REMARK    1  A    between atoms: C_2  and  O_3 
REMARK    2  A    between atoms: O_3  and  C_4 
REMARK    3  A    between atoms: C_7  and  N_8 
REMARK    4  A    between atoms: C_9  and  O_10 
REMARK    5  A    between atoms: C_9  and  C_11 
REMARK       I    between atoms: C_11  and  N_12 
REMARK    6  A    between atoms: N_12  and  C_13 
ROOT
HETATM    1  N   UNL     1      33.730  50.691  41.568  1.00  0.00    -0.254 N 
HETATM    2  C   UNL     1      34.930  51.199  40.891  1.00  0.00     0.256 C 
HETATM    3  C   UNL     1      36.057  51.357  41.887  1.00  0.00     0.035 A 
HETATM    4  C   UNL     1      35.698  51.871  43.132  1.00  0.00     0.048 A 
HETATM    5  N   UNL     1      34.341  52.022  43.410  1.00  0.00    -0.308 N 
HETATM    6  C   UNL     1      33.337  51.371  42.725  1.00  0.00     0.330 C 
HETATM    7  O   UNL     1      32.220  51.359  43.239  1.00  0.00    -0.246 OA
HETATM    8  C   UNL     1      37.410  51.122  41.605  1.00  0.00     0.034 A 
HETATM    9  C   UNL     1      38.377  51.423  42.565  1.00  0.00     0.011 A 
HETATM   10 BR   UNL     1      40.201  51.106  42.187  1.00  0.00    -0.051 Br
HETATM   11  C   UNL     1      38.010  51.969  43.797  1.00  0.00     0.021 A 
HETATM   12  C   UNL     1      36.662  52.199  44.081  1.00  0.00     0.031 A 
HETATM   13  H   UNL     1      34.044  52.390  44.306  1.00  0.00     0.170 HD
ENDROOT
BRANCH   1  14
HETATM   14  C   UNL     1      32.857  49.748  40.945  1.00  0.00     0.043 A 
HETATM   15  C   UNL     1      31.896  50.138  40.009  1.00  0.00     0.032 A 
HETATM   16  C   UNL     1      31.022  49.201  39.447  1.00  0.00     0.039 A 
HETATM   17  C   UNL     1      31.079  47.857  39.820  1.00  0.00     0.068 A 
HETATM   18  C   UNL     1      32.022  47.459  40.764  1.00  0.00     0.039 A 
HETATM   19  C   UNL     1      32.897  48.399  41.324  1.00  0.00     0.032 A 
BRANCH  17  20
HETATM   20  O   UNL     1      30.164  47.048  39.206  1.00  0.00    -0.352 OA
BRANCH  20  21
HETATM   21  C   UNL     1      28.876  46.950  39.811  1.00  0.00     0.171 C 
HETATM   22  C   UNL     1      28.478  45.485  39.835  1.00  0.00     0.034 C 
ENDBRANCH  20  21
ENDBRANCH  17  20
ENDBRANCH   1  14
BRANCH   2  23
HETATM   23  O   UNL     1      35.369  50.341  39.835  1.00  0.00    -0.359 OA
HETATM   24  H   UNL     1      35.492  50.940  39.073  1.00  0.00     0.213 HD
ENDBRANCH   2  23
BRANCH   2  25
HETATM   25  C   UNL     1      34.544  52.567  40.174  1.00  0.00     0.279 C 
HETATM   26  N   UNL     1      35.585  53.396  39.783  1.00  0.00    -0.352 N 
HETATM   27  H   UNL     1      36.543  53.131  39.978  1.00  0.00     0.163 HD
HETATM   28  O   UNL     1      33.371  52.832  39.887  1.00  0.00    -0.268 OA
BRANCH  26  29
HETATM   29  C   UNL     1      35.364  54.647  39.129  1.00  0.00     0.084 A 
HETATM   30  C   UNL     1      36.065  55.889  39.604  1.00  0.00     0.027 A 
HETATM   31  C   UNL     1      36.446  55.272  38.291  1.00  0.00     0.027 A 
ENDBRANCH  26  29
ENDBRANCH   2  25
TORSDOF 6
ENDMDL
MODEL 10
REMARK VINA RESULT:      -6.6     11.532     14.906
REMARK  6 active torsions:
REMARK  status: ('A' for Active; 'I' for Inactive)
REMARK    1  A    between atoms: C_2  and  O_3 
REMARK    2  A    between atoms: O_3  and  C_4 
REMARK    3  A    between atoms: C_7  and  N_8 
REMARK    4  A    between atoms: C_9  and  O_10 
REMARK    5  A    between atoms: C_9  and  C_11 
REMARK       I    between atoms: C_11  and  N_12 
REMARK    6  A    between atoms: N_12  and  C_13 
ROOT
HETATM    1  N   UNL     1      29.340  49.480  40.247  1.00  0.00    -0.254 N 
HETATM    2  C   UNL     1      28.675  48.989  39.032  1.00  0.00     0.256 C 
HETATM    3  C   UNL     1      27.207  48.751  39.309  1.00  0.00     0.035 A 
HETATM    4  C   UNL     1      26.908  48.173  40.541  1.00  0.00     0.048 A 
HETATM    5  N   UNL     1      27.941  48.032  41.465  1.00  0.00    -0.308 N 
HETATM    6  C   UNL     1      29.122  48.742  41.413  1.00  0.00     0.330 C 
HETATM    7  O   UNL     1      29.821  48.746  42.425  1.00  0.00    -0.246 OA
HETATM    8  C   UNL     1      26.176  48.976  38.387  1.00  0.00     0.034 A 
HETATM    9  C   UNL     1      24.870  48.601  38.707  1.00  0.00     0.011 A 
HETATM   10 BR   UNL     1      23.478  48.903  37.465  1.00  0.00    -0.051 Br
HETATM   11  C   UNL     1      24.586  47.991  39.931  1.00  0.00     0.021 A 
HETATM   12  C   UNL     1      25.612  47.771  40.852  1.00  0.00     0.031 A 
HETATM   13  H   UNL     1      27.759  47.619  42.372  1.00  0.00     0.170 HD
ENDROOT
BRANCH   1  14
HETATM   14  C   UNL     1      30.363  50.475  40.193  1.00  0.00     0.043 A 
HETATM   15  C   UNL     1      30.079  51.834  40.356  1.00  0.00     0.032 A 
HETATM   16  C   UNL     1      31.093  52.794  40.254  1.00  0.00     0.039 A 
HETATM   17  C   UNL     1      32.407  52.418  39.971  1.00  0.00     0.068 A 
HETATM   18  C   UNL     1      32.698  51.069  39.790  1.00  0.00     0.039 A 
HETATM   19  C   UNL     1      31.683  50.109  39.895  1.00  0.00     0.032 A 
BRANCH  17  20
HETATM   20  O   UNL     1      33.297  53.452  39.886  1.00  0.00    -0.352 OA
BRANCH  20  21
HETATM   21  C   UNL     1      34.612  53.140  39.432  1.00  0.00     0.171 C 
HETATM   22  C   UNL     1      35.315  54.443  39.093  1.00  0.00     0.034 C 
ENDBRANCH  20  21
ENDBRANCH  17  20
ENDBRANCH   1  14
BRANCH   2  23
HETATM   23  O   UNL     1      28.794  49.899  37.936  1.00  0.00    -0.359 OA
HETATM   24  H   UNL     1      28.188  50.631  38.164  1.00  0.00     0.213 HD
ENDBRANCH   2  23
BRANCH   2  25
HETATM   25  C   UNL     1      29.435  47.673  38.558  1.00  0.00     0.279 C 
HETATM   26  N   UNL     1      28.664  46.651  38.024  1.00  0.00    -0.352 N 
HETATM   27  H   UNL     1      27.657  46.752  37.971  1.00  0.00     0.163 HD
HETATM   28  O   UNL     1      30.669  47.605  38.571  1.00  0.00    -0.268 OA
BRANCH  26  29
HETATM   29  C   UNL     1      29.232  45.424  37.562  1.00  0.00     0.084 A 
HETATM   30  C   UNL     1      29.388  44.258  38.498  1.00  0.00     0.027 A 
HETATM   31  C   UNL     1      28.372  44.200  37.395  1.00  0.00     0.027 A 
ENDBRANCH  26  29
ENDBRANCH   2  25
TORSDOF 6
ENDMDL
