MODEL 1
REMARK VINA RESULT:      -7.1      0.000      0.000
REMARK  5 active torsions:
REMARK  status: ('A' for Active; 'I' for Inactive)
REMARK    1  A    between atoms: C_7  and  O_8 
REMARK    2  A    between atoms: O_8  and  C_9 
REMARK    3  A    between atoms: C_12  and  N_13 
REMARK    4  A    between atoms: N_13  and  C_16 
REMARK    5  A    between atoms: C_16  and  C_17 
ROOT
HETATM    1  C   UNL     1      29.914  43.216  54.773  1.00  0.00     0.028 A 
HETATM    2  C   UNL     1      30.351  43.979  55.852  1.00  0.00     0.062 A 
HETATM    3  C   UNL     1      31.377  43.515  56.729  1.00  0.00     0.101 C 
HETATM    4  N   UNL     1      32.209  43.161  57.454  1.00  0.00    -0.191 NA
HETATM    5  C   UNL     1      29.757  45.220  56.056  1.00  0.00     0.142 A 
HETATM    6  N   UNL     1      28.776  45.746  55.273  1.00  0.00    -0.236 NA
HETATM    7  C   UNL     1      28.380  44.974  54.235  1.00  0.00     0.164 A 
HETATM    8  C   UNL     1      28.911  43.722  53.950  1.00  0.00     0.059 A 
ENDROOT
BRANCH   7   9
HETATM    9  O   UNL     1      27.396  45.400  53.374  1.00  0.00    -0.329 OA
BRANCH   9  10
HETATM   10  C   UNL     1      26.843  44.502  52.417  1.00  0.00     0.130 C 
HETATM   11  C   UNL     1      27.529  44.553  51.044  1.00  0.00     0.034 C 
HETATM   12  C   UNL     1      26.963  43.494  50.101  1.00  0.00     0.035 C 
HETATM   13  C   UNL     1      25.434  43.531  49.996  1.00  0.00     0.186 C 
HETATM   14  C   UNL     1      24.774  43.481  51.380  1.00  0.00     0.035 C 
HETATM   15  C   UNL     1      25.310  44.541  52.341  1.00  0.00     0.034 C 
BRANCH  13  16
HETATM   16  N   UNL     1      24.972  44.771  49.286  1.00  0.00    -0.067 N 
HETATM   17  H   UNL     1      24.893  45.533  49.973  1.00  0.00     0.278 HD
HETATM   18  H   UNL     1      25.678  45.101  48.608  1.00  0.00     0.278 HD
BRANCH  16  19
HETATM   19  C   UNL     1      23.651  44.668  48.588  1.00  0.00     0.280 C 
BRANCH  19  20
HETATM   20  C   UNL     1      22.879  45.932  48.681  1.00  0.00     0.027 A 
HETATM   21  S   UNL     1      23.619  47.401  49.174  1.00  0.00    -0.084 SA
HETATM   22  C   UNL     1      22.111  48.203  48.994  1.00  0.00     0.166 A 
HETATM   23  N   UNL     1      21.109  47.446  48.609  1.00  0.00    -0.265 NA
HETATM   24  C   UNL     1      21.544  46.154  48.410  1.00  0.00     0.133 A 
ENDBRANCH  19  20
ENDBRANCH  16  19
ENDBRANCH  13  16
ENDBRANCH   9  10
ENDBRANCH   7   9
TORSDOF 5
ENDMDL
MODEL 2
REMARK VINA RESULT:      -7.1      3.213      9.198
REMARK  5 active torsions:
REMARK  status: ('A' for Active; 'I' for Inactive)
REMARK    1  A    between atoms: C_7  and  O_8 
REMARK    2  A    between atoms: O_8  and  C_9 
REMARK    3  A    between atoms: C_12  and  N_13 
REMARK    4  A    between atoms: N_13  and  C_16 
REMARK    5  A    between atoms: C_16  and  C_17 
ROOT
HETATM    1  C   UNL     1      21.273  49.201  48.786  1.00  0.00     0.028 A 
HETATM    2  C   UNL     1      21.508  50.572  48.810  1.00  0.00     0.062 A 
HETATM    3  C   UNL     1      20.448  51.515  48.649  1.00  0.00     0.101 C 
HETATM    4  N   UNL     1      19.604  52.299  48.523  1.00  0.00    -0.191 NA
HETATM    5  C   UNL     1      22.815  51.008  48.997  1.00  0.00     0.142 A 
HETATM    6  N   UNL     1      23.887  50.185  49.161  1.00  0.00    -0.236 NA
HETATM    7  C   UNL     1      23.618  48.860  49.132  1.00  0.00     0.164 A 
HETATM    8  C   UNL     1      22.347  48.330  48.950  1.00  0.00     0.059 A 
ENDROOT
BRANCH   7   9
HETATM    9  O   UNL     1      24.621  47.933  49.288  1.00  0.00    -0.329 OA
BRANCH   9  10
HETATM   10  C   UNL     1      24.634  47.074  50.424  1.00  0.00     0.130 C 
HETATM   11  C   UNL     1      25.752  47.385  51.429  1.00  0.00     0.034 C 
HETATM   12  C   UNL     1      25.644  46.504  52.671  1.00  0.00     0.035 C 
HETATM   13  C   UNL     1      25.543  45.010  52.346  1.00  0.00     0.186 C 
HETATM   14  C   UNL     1      24.421  44.727  51.340  1.00  0.00     0.035 C 
HETATM   15  C   UNL     1      24.514  45.584  50.078  1.00  0.00     0.034 C 
BRANCH  13  16
HETATM   16  N   UNL     1      26.836  44.492  51.784  1.00  0.00    -0.067 N 
HETATM   17  H   UNL     1      26.721  44.349  50.772  1.00  0.00     0.278 HD
HETATM   18  H   UNL     1      27.590  45.193  51.866  1.00  0.00     0.278 HD
BRANCH  16  19
HETATM   19  C   UNL     1      27.325  43.197  52.359  1.00  0.00     0.280 C 
BRANCH  19  20
HETATM   20  C   UNL     1      28.417  43.408  53.340  1.00  0.00     0.027 A 
HETATM   21  S   UNL     1      29.903  42.553  53.229  1.00  0.00    -0.084 SA
HETATM   22  C   UNL     1      30.463  43.373  54.630  1.00  0.00     0.166 A 
HETATM   23  N   UNL     1      29.614  44.219  55.169  1.00  0.00    -0.265 NA
HETATM   24  C   UNL     1      28.454  44.258  54.428  1.00  0.00     0.133 A 
ENDBRANCH  19  20
ENDBRANCH  16  19
ENDBRANCH  13  16
ENDBRANCH   9  10
ENDBRANCH   7   9
TORSDOF 5
ENDMDL
MODEL 3
REMARK VINA RESULT:      -7.1      2.854      8.791
REMARK  5 active torsions:
REMARK  status: ('A' for Active; 'I' for Inactive)
REMARK    1  A    between atoms: C_7  and  O_8 
REMARK    2  A    between atoms: O_8  and  C_9 
REMARK    3  A    between atoms: C_12  and  N_13 
REMARK    4  A    between atoms: N_13  and  C_16 
REMARK    5  A    between atoms: C_16  and  C_17 
ROOT
HETATM    1  C   UNL     1      25.602  47.891  49.813  1.00  0.00     0.028 A 
HETATM    2  C   UNL     1      24.265  47.600  49.561  1.00  0.00     0.062 A 
HETATM    3  C   UNL     1      23.302  48.632  49.346  1.00  0.00     0.101 C 
HETATM    4  N   UNL     1      22.503  49.452  49.166  1.00  0.00    -0.191 NA
HETATM    5  C   UNL     1      23.884  46.262  49.523  1.00  0.00     0.142 A 
HETATM    6  N   UNL     1      24.730  45.213  49.714  1.00  0.00    -0.236 NA
HETATM    7  C   UNL     1      26.020  45.538  49.956  1.00  0.00     0.164 A 
HETATM    8  C   UNL     1      26.495  46.842  50.013  1.00  0.00     0.059 A 
ENDROOT
BRANCH   7   9
HETATM    9  O   UNL     1      26.967  44.562  50.163  1.00  0.00    -0.329 OA
BRANCH   9  10
HETATM   10  C   UNL     1      27.021  43.869  51.406  1.00  0.00     0.130 C 
HETATM   11  C   UNL     1      26.511  44.688  52.600  1.00  0.00     0.034 C 
HETATM   12  C   UNL     1      26.493  43.854  53.879  1.00  0.00     0.035 C 
HETATM   13  C   UNL     1      27.830  43.162  54.168  1.00  0.00     0.186 C 
HETATM   14  C   UNL     1      28.318  42.353  52.960  1.00  0.00     0.035 C 
HETATM   15  C   UNL     1      28.361  43.168  51.668  1.00  0.00     0.034 C 
BRANCH  13  16
HETATM   16  N   UNL     1      28.886  44.163  54.537  1.00  0.00    -0.067 N 
HETATM   17  H   UNL     1      29.006  44.819  53.753  1.00  0.00     0.278 HD
HETATM   18  H   UNL     1      28.585  44.753  55.329  1.00  0.00     0.278 HD
BRANCH  16  19
HETATM   19  C   UNL     1      30.239  43.598  54.850  1.00  0.00     0.280 C 
BRANCH  19  20
HETATM   20  C   UNL     1      30.729  44.047  56.176  1.00  0.00     0.027 A 
HETATM   21  S   UNL     1      30.217  45.534  56.867  1.00  0.00    -0.084 SA
HETATM   22  C   UNL     1      31.201  45.218  58.239  1.00  0.00     0.166 A 
HETATM   23  N   UNL     1      31.884  44.096  58.200  1.00  0.00    -0.265 NA
HETATM   24  C   UNL     1      31.604  43.415  57.036  1.00  0.00     0.133 A 
ENDBRANCH  19  20
ENDBRANCH  16  19
ENDBRANCH  13  16
ENDBRANCH   9  10
ENDBRANCH   7   9
TORSDOF 5
ENDMDL
MODEL 4
REMARK VINA RESULT:      -7.0      2.822      8.864
REMARK  5 active torsions:
REMARK  status: ('A' for Active; 'I' for Inactive)
REMARK    1  A    between atoms: C_7  and  O_8 
REMARK    2  A    between atoms: O_8  and  C_9 
REMARK    3  A    between atoms: C_12  and  N_13 
REMARK    4  A    between atoms: N_13  and  C_16 
REMARK    5  A    between atoms: C_16  and  C_17 
ROOT
HETATM    1  C   UNL     1      22.785  48.091  49.078  1.00  0.00     0.028 A 
HETATM    2  C   UNL     1      22.859  49.343  48.475  1.00  0.00     0.062 A 
HETATM    3  C   UNL     1      21.709  49.967  47.905  1.00  0.00     0.101 C 
HETATM    4  N   UNL     1      20.789  50.494  47.436  1.00  0.00    -0.191 NA
HETATM    5  C   UNL     1      24.095  49.980  48.442  1.00  0.00     0.142 A 
HETATM    6  N   UNL     1      25.243  49.465  48.961  1.00  0.00    -0.236 NA
HETATM    7  C   UNL     1      25.130  48.247  49.539  1.00  0.00     0.164 A 
HETATM    8  C   UNL     1      23.941  47.533  49.620  1.00  0.00     0.059 A 
ENDROOT
BRANCH   7   9
HETATM    9  O   UNL     1      26.222  47.627  50.098  1.00  0.00    -0.329 OA
BRANCH   9  10
HETATM   10  C   UNL     1      26.119  46.291  50.581  1.00  0.00     0.130 C 
HETATM   11  C   UNL     1      26.147  46.177  52.112  1.00  0.00     0.034 C 
HETATM   12  C   UNL     1      25.923  44.736  52.566  1.00  0.00     0.035 C 
HETATM   13  C   UNL     1      26.861  43.735  51.885  1.00  0.00     0.186 C 
HETATM   14  C   UNL     1      26.816  43.870  50.358  1.00  0.00     0.035 C 
HETATM   15  C   UNL     1      27.053  45.300  49.874  1.00  0.00     0.034 C 
BRANCH  13  16
HETATM   16  N   UNL     1      28.278  43.924  52.344  1.00  0.00    -0.067 N 
HETATM   17  H   UNL     1      28.906  43.776  51.543  1.00  0.00     0.278 HD
HETATM   18  H   UNL     1      28.452  44.899  52.637  1.00  0.00     0.278 HD
BRANCH  16  19
HETATM   19  C   UNL     1      28.737  43.009  53.439  1.00  0.00     0.280 C 
BRANCH  19  20
HETATM   20  C   UNL     1      29.413  43.752  54.530  1.00  0.00     0.027 A 
HETATM   21  S   UNL     1      28.798  45.245  55.116  1.00  0.00    -0.084 SA
HETATM   22  C   UNL     1      30.099  45.324  56.234  1.00  0.00     0.166 A 
HETATM   23  N   UNL     1      30.953  44.327  56.183  1.00  0.00    -0.265 NA
HETATM   24  C   UNL     1      30.556  43.417  55.227  1.00  0.00     0.133 A 
ENDBRANCH  19  20
ENDBRANCH  16  19
ENDBRANCH  13  16
ENDBRANCH   9  10
ENDBRANCH   7   9
TORSDOF 5
ENDMDL
MODEL 5
REMARK VINA RESULT:      -7.0      1.783      2.404
REMARK  5 active torsions:
REMARK  status: ('A' for Active; 'I' for Inactive)
REMARK    1  A    between atoms: C_7  and  O_8 
REMARK    2  A    between atoms: O_8  and  C_9 
REMARK    3  A    between atoms: C_12  and  N_13 
REMARK    4  A    between atoms: N_13  and  C_16 
REMARK    5  A    between atoms: C_16  and  C_17 
ROOT
HETATM    1  C   UNL     1      29.118  45.264  55.663  1.00  0.00     0.028 A 
HETATM    2  C   UNL     1      29.786  44.057  55.477  1.00  0.00     0.062 A 
HETATM    3  C   UNL     1      31.001  43.762  56.165  1.00  0.00     0.101 C 
HETATM    4  N   UNL     1      31.988  43.499  56.714  1.00  0.00    -0.191 NA
HETATM    5  C   UNL     1      29.234  43.134  54.595  1.00  0.00     0.142 A 
HETATM    6  N   UNL     1      28.081  43.327  53.898  1.00  0.00    -0.236 NA
HETATM    7  C   UNL     1      27.462  44.512  54.106  1.00  0.00     0.164 A 
HETATM    8  C   UNL     1      27.936  45.495  54.965  1.00  0.00     0.059 A 
ENDROOT
BRANCH   7   9
HETATM    9  O   UNL     1      26.289  44.818  53.457  1.00  0.00    -0.329 OA
BRANCH   9  10
HETATM   10  C   UNL     1      26.320  45.424  52.168  1.00  0.00     0.130 C 
HETATM   11  C   UNL     1      26.012  46.928  52.178  1.00  0.00     0.034 C 
HETATM   12  C   UNL     1      26.168  47.536  50.786  1.00  0.00     0.035 C 
HETATM   13  C   UNL     1      25.385  46.782  49.706  1.00  0.00     0.186 C 
HETATM   14  C   UNL     1      25.709  45.284  49.718  1.00  0.00     0.035 C 
HETATM   15  C   UNL     1      25.546  44.644  51.097  1.00  0.00     0.034 C 
BRANCH  13  16
HETATM   16  N   UNL     1      23.905  46.958  49.891  1.00  0.00    -0.067 N 
HETATM   17  H   UNL     1      23.417  46.237  49.342  1.00  0.00     0.278 HD
HETATM   18  H   UNL     1      23.624  46.779  50.868  1.00  0.00     0.278 HD
BRANCH  16  19
HETATM   19  C   UNL     1      23.348  48.284  49.470  1.00  0.00     0.280 C 
BRANCH  19  20
HETATM   20  C   UNL     1      22.006  48.145  48.852  1.00  0.00     0.027 A 
HETATM   21  S   UNL     1      21.708  47.013  47.595  1.00  0.00    -0.084 SA
HETATM   22  C   UNL     1      20.071  47.529  47.539  1.00  0.00     0.166 A 
HETATM   23  N   UNL     1      19.750  48.488  48.378  1.00  0.00    -0.265 NA
HETATM   24  C   UNL     1      20.843  48.830  49.143  1.00  0.00     0.133 A 
ENDBRANCH  19  20
ENDBRANCH  16  19
ENDBRANCH  13  16
ENDBRANCH   9  10
ENDBRANCH   7   9
TORSDOF 5
ENDMDL
MODEL 6
REMARK VINA RESULT:      -6.8     16.707     19.028
REMARK  5 active torsions:
REMARK  status: ('A' for Active; 'I' for Inactive)
REMARK    1  A    between atoms: C_7  and  O_8 
REMARK    2  A    between atoms: O_8  and  C_9 
REMARK    3  A    between atoms: C_12  and  N_13 
REMARK    4  A    between atoms: N_13  and  C_16 
REMARK    5  A    between atoms: C_16  and  C_17 
ROOT
HETATM    1  C   UNL     1      39.109  43.293  62.620  1.00  0.00     0.028 A 
HETATM    2  C   UNL     1      38.586  42.143  63.204  1.00  0.00     0.062 A 
HETATM    3  C   UNL     1      39.230  40.877  63.070  1.00  0.00     0.101 C 
HETATM    4  N   UNL     1      39.736  39.838  62.976  1.00  0.00    -0.191 NA
HETATM    5  C   UNL     1      37.407  42.260  63.933  1.00  0.00     0.142 A 
HETATM    6  N   UNL     1      36.725  43.423  64.117  1.00  0.00    -0.236 NA
HETATM    7  C   UNL     1      37.265  44.517  63.533  1.00  0.00     0.164 A 
HETATM    8  C   UNL     1      38.437  44.501  62.787  1.00  0.00     0.059 A 
ENDROOT
BRANCH   7   9
HETATM    9  O   UNL     1      36.665  45.749  63.651  1.00  0.00    -0.329 OA
BRANCH   9  10
HETATM   10  C   UNL     1      37.024  46.622  64.718  1.00  0.00     0.130 C 
HETATM   11  C   UNL     1      37.165  48.092  64.300  1.00  0.00     0.034 C 
HETATM   12  C   UNL     1      37.443  48.988  65.506  1.00  0.00     0.035 C 
HETATM   13  C   UNL     1      38.619  48.504  66.360  1.00  0.00     0.186 C 
HETATM   14  C   UNL     1      38.455  47.034  66.762  1.00  0.00     0.035 C 
HETATM   15  C   UNL     1      38.192  46.111  65.573  1.00  0.00     0.034 C 
BRANCH  13  16
HETATM   16  N   UNL     1      39.919  48.662  65.626  1.00  0.00    -0.067 N 
HETATM   17  H   UNL     1      39.858  48.151  64.736  1.00  0.00     0.278 HD
HETATM   18  H   UNL     1      40.081  49.645  65.354  1.00  0.00     0.278 HD
BRANCH  16  19
HETATM   19  C   UNL     1      41.136  48.159  66.341  1.00  0.00     0.280 C 
BRANCH  19  20
HETATM   20  C   UNL     1      41.954  47.273  65.477  1.00  0.00     0.027 A 
HETATM   21  S   UNL     1      43.631  47.037  65.763  1.00  0.00    -0.084 SA
HETATM   22  C   UNL     1      43.698  45.980  64.412  1.00  0.00     0.166 A 
HETATM   23  N   UNL     1      42.566  45.811  63.767  1.00  0.00    -0.265 NA
HETATM   24  C   UNL     1      41.564  46.530  64.381  1.00  0.00     0.133 A 
ENDBRANCH  19  20
ENDBRANCH  16  19
ENDBRANCH  13  16
ENDBRANCH   9  10
ENDBRANCH   7   9
TORSDOF 5
ENDMDL
MODEL 7
REMARK VINA RESULT:      -6.8     12.636     14.934
REMARK  5 active torsions:
REMARK  status: ('A' for Active; 'I' for Inactive)
REMARK    1  A    between atoms: C_7  and  O_8 
REMARK    2  A    between atoms: O_8  and  C_9 
REMARK    3  A    between atoms: C_12  and  N_13 
REMARK    4  A    between atoms: N_13  and  C_16 
REMARK    5  A    between atoms: C_16  and  C_17 
ROOT
HETATM    1  C   UNL     1      28.326  51.820  38.334  1.00  0.00     0.028 A 
HETATM    2  C   UNL     1      27.433  50.998  39.015  1.00  0.00     0.062 A 
HETATM    3  C   UNL     1      26.505  50.166  38.321  1.00  0.00     0.101 C 
HETATM    4  N   UNL     1      25.743  49.480  37.779  1.00  0.00    -0.191 NA
HETATM    5  C   UNL     1      27.469  51.006  40.406  1.00  0.00     0.142 A 
HETATM    6  N   UNL     1      28.320  51.763  41.152  1.00  0.00    -0.236 NA
HETATM    7  C   UNL     1      29.171  52.548  40.453  1.00  0.00     0.164 A 
HETATM    8  C   UNL     1      29.210  52.609  39.065  1.00  0.00     0.059 A 
ENDROOT
BRANCH   7   9
HETATM    9  O   UNL     1      30.078  53.356  41.098  1.00  0.00    -0.329 OA
BRANCH   9  10
HETATM   10  C   UNL     1      31.294  52.810  41.601  1.00  0.00     0.130 C 
HETATM   11  C   UNL     1      31.975  51.820  40.645  1.00  0.00     0.034 C 
HETATM   12  C   UNL     1      33.323  51.357  41.194  1.00  0.00     0.035 C 
HETATM   13  C   UNL     1      33.242  50.828  42.630  1.00  0.00     0.186 C 
HETATM   14  C   UNL     1      32.557  51.834  43.562  1.00  0.00     0.035 C 
HETATM   15  C   UNL     1      31.197  52.303  43.046  1.00  0.00     0.034 C 
BRANCH  13  16
HETATM   16  N   UNL     1      32.491  49.529  42.685  1.00  0.00    -0.067 N 
HETATM   17  H   UNL     1      32.789  49.013  43.523  1.00  0.00     0.278 HD
HETATM   18  H   UNL     1      31.479  49.685  42.818  1.00  0.00     0.278 HD
BRANCH  16  19
HETATM   19  C   UNL     1      32.683  48.615  41.513  1.00  0.00     0.280 C 
BRANCH  19  20
HETATM   20  C   UNL     1      31.388  48.111  40.991  1.00  0.00     0.027 A 
HETATM   21  S   UNL     1      29.897  48.531  41.732  1.00  0.00    -0.084 SA
HETATM   22  C   UNL     1      29.067  47.586  40.562  1.00  0.00     0.166 A 
HETATM   23  N   UNL     1      29.829  46.978  39.681  1.00  0.00    -0.265 NA
HETATM   24  C   UNL     1      31.151  47.289  39.908  1.00  0.00     0.133 A 
ENDBRANCH  19  20
ENDBRANCH  16  19
ENDBRANCH  13  16
ENDBRANCH   9  10
ENDBRANCH   7   9
TORSDOF 5
ENDMDL
MODEL 8
REMARK VINA RESULT:      -6.8     12.485     13.826
REMARK  5 active torsions:
REMARK  status: ('A' for Active; 'I' for Inactive)
REMARK    1  A    between atoms: C_7  and  O_8 
REMARK    2  A    between atoms: O_8  and  C_9 
REMARK    3  A    between atoms: C_12  and  N_13 
REMARK    4  A    between atoms: N_13  and  C_16 
REMARK    5  A    between atoms: C_16  and  C_17 
ROOT
HETATM    1  C   UNL     1      31.915  50.358  42.996  1.00  0.00     0.028 A 
HETATM    2  C   UNL     1      33.147  50.374  42.349  1.00  0.00     0.062 A 
HETATM    3  C   UNL     1      34.183  51.275  42.737  1.00  0.00     0.101 C 
HETATM    4  N   UNL     1      35.040  51.997  43.035  1.00  0.00    -0.191 NA
HETATM    5  C   UNL     1      33.347  49.478  41.304  1.00  0.00     0.142 A 
HETATM    6  N   UNL     1      32.421  48.582  40.868  1.00  0.00    -0.236 NA
HETATM    7  C   UNL     1      31.236  48.598  41.521  1.00  0.00     0.164 A 
HETATM    8  C   UNL     1      30.942  49.455  42.575  1.00  0.00     0.059 A 
ENDROOT
BRANCH   7   9
HETATM    9  O   UNL     1      30.224  47.737  41.169  1.00  0.00    -0.329 OA
BRANCH   9  10
HETATM   10  C   UNL     1      29.107  48.211  40.422  1.00  0.00     0.130 C 
HETATM   11  C   UNL     1      29.489  49.046  39.192  1.00  0.00     0.034 C 
HETATM   12  C   UNL     1      28.255  49.430  38.377  1.00  0.00     0.035 C 
HETATM   13  C   UNL     1      27.156  50.089  39.218  1.00  0.00     0.186 C 
HETATM   14  C   UNL     1      26.796  49.236  40.440  1.00  0.00     0.035 C 
HETATM   15  C   UNL     1      28.010  48.850  41.284  1.00  0.00     0.034 C 
BRANCH  13  16
HETATM   16  N   UNL     1      27.580  51.451  39.687  1.00  0.00    -0.067 N 
HETATM   17  H   UNL     1      26.738  52.026  39.828  1.00  0.00     0.278 HD
HETATM   18  H   UNL     1      28.026  51.407  40.617  1.00  0.00     0.278 HD
BRANCH  16  19
HETATM   19  C   UNL     1      28.481  52.209  38.760  1.00  0.00     0.280 C 
BRANCH  19  20
HETATM   20  C   UNL     1      29.689  52.712  39.458  1.00  0.00     0.027 A 
HETATM   21  S   UNL     1      31.227  51.981  39.234  1.00  0.00    -0.084 SA
HETATM   22  C   UNL     1      31.911  53.121  40.321  1.00  0.00     0.166 A 
HETATM   23  N   UNL     1      31.069  53.986  40.839  1.00  0.00    -0.265 NA
HETATM   24  C   UNL     1      29.805  53.771  40.336  1.00  0.00     0.133 A 
ENDBRANCH  19  20
ENDBRANCH  16  19
ENDBRANCH  13  16
ENDBRANCH   9  10
ENDBRANCH   7   9
TORSDOF 5
ENDMDL
MODEL 9
REMARK VINA RESULT:      -6.7     12.688     15.099
REMARK  5 active torsions:
REMARK  status: ('A' for Active; 'I' for Inactive)
REMARK    1  A    between atoms: C_7  and  O_8 
REMARK    2  A    between atoms: O_8  and  C_9 
REMARK    3  A    between atoms: C_12  and  N_13 
REMARK    4  A    between atoms: N_13  and  C_16 
REMARK    5  A    between atoms: C_16  and  C_17 
ROOT
HETATM    1  C   UNL     1      27.575  47.157  38.567  1.00  0.00     0.028 A 
HETATM    2  C   UNL     1      28.913  46.791  38.681  1.00  0.00     0.062 A 
HETATM    3  C   UNL     1      29.303  45.430  38.865  1.00  0.00     0.101 C 
HETATM    4  N   UNL     1      29.644  44.332  39.013  1.00  0.00    -0.191 NA
HETATM    5  C   UNL     1      29.872  47.795  38.609  1.00  0.00     0.142 A 
HETATM    6  N   UNL     1      29.596  49.116  38.433  1.00  0.00    -0.236 NA
HETATM    7  C   UNL     1      28.284  49.431  38.327  1.00  0.00     0.164 A 
HETATM    8  C   UNL     1      27.255  48.500  38.387  1.00  0.00     0.059 A 
ENDROOT
BRANCH   7   9
HETATM    9  O   UNL     1      27.884  50.733  38.145  1.00  0.00    -0.329 OA
BRANCH   9  10
HETATM   10  C   UNL     1      28.149  51.711  39.147  1.00  0.00     0.130 C 
HETATM   11  C   UNL     1      29.133  52.804  38.706  1.00  0.00     0.034 C 
HETATM   12  C   UNL     1      29.290  53.876  39.782  1.00  0.00     0.035 C 
HETATM   13  C   UNL     1      29.626  53.303  41.163  1.00  0.00     0.186 C 
HETATM   14  C   UNL     1      28.631  52.213  41.578  1.00  0.00     0.035 C 
HETATM   15  C   UNL     1      28.466  51.117  40.526  1.00  0.00     0.034 C 
BRANCH  13  16
HETATM   16  N   UNL     1      31.012  52.724  41.183  1.00  0.00    -0.067 N 
HETATM   17  H   UNL     1      31.096  52.046  40.414  1.00  0.00     0.278 HD
HETATM   18  H   UNL     1      31.723  53.443  40.978  1.00  0.00     0.278 HD
BRANCH  16  19
HETATM   19  C   UNL     1      31.402  52.013  42.443  1.00  0.00     0.280 C 
BRANCH  19  20
HETATM   20  C   UNL     1      31.843  50.622  42.175  1.00  0.00     0.027 A 
HETATM   21  S   UNL     1      32.999  50.265  40.957  1.00  0.00    -0.084 SA
HETATM   22  C   UNL     1      32.879  48.598  41.352  1.00  0.00     0.166 A 
HETATM   23  N   UNL     1      32.031  48.303  42.311  1.00  0.00    -0.265 NA
HETATM   24  C   UNL     1      31.452  49.454  42.798  1.00  0.00     0.133 A 
ENDBRANCH  19  20
ENDBRANCH  16  19
ENDBRANCH  13  16
ENDBRANCH   9  10
ENDBRANCH   7   9
TORSDOF 5
ENDMDL
MODEL 10
REMARK VINA RESULT:      -6.6      4.963     11.565
REMARK  5 active torsions:
REMARK  status: ('A' for Active; 'I' for Inactive)
REMARK    1  A    between atoms: C_7  and  O_8 
REMARK    2  A    between atoms: O_8  and  C_9 
REMARK    3  A    between atoms: C_12  and  N_13 
REMARK    4  A    between atoms: N_13  and  C_16 
REMARK    5  A    between atoms: C_16  and  C_17 
ROOT
HETATM    1  C   UNL     1      17.331  52.871  49.422  1.00  0.00     0.028 A 
HETATM    2  C   UNL     1      16.252  52.332  48.728  1.00  0.00     0.062 A 
HETATM    3  C   UNL     1      15.193  53.154  48.237  1.00  0.00     0.101 C 
HETATM    4  N   UNL     1      14.323  53.801  47.828  1.00  0.00    -0.191 NA
HETATM    5  C   UNL     1      16.231  50.957  48.519  1.00  0.00     0.142 A 
HETATM    6  N   UNL     1      17.195  50.097  48.947  1.00  0.00    -0.236 NA
HETATM    7  C   UNL     1      18.226  50.659  49.617  1.00  0.00     0.164 A 
HETATM    8  C   UNL     1      18.336  52.020  49.875  1.00  0.00     0.059 A 
ENDROOT
BRANCH   7   9
HETATM    9  O   UNL     1      19.260  49.889  50.096  1.00  0.00    -0.329 OA
BRANCH   9  10
HETATM   10  C   UNL     1      20.470  49.772  49.354  1.00  0.00     0.130 C 
HETATM   11  C   UNL     1      20.861  48.324  49.024  1.00  0.00     0.034 C 
HETATM   12  C   UNL     1      22.104  48.273  48.138  1.00  0.00     0.035 C 
HETATM   13  C   UNL     1      23.277  49.088  48.693  1.00  0.00     0.186 C 
HETATM   14  C   UNL     1      22.859  50.528  49.015  1.00  0.00     0.035 C 
HETATM   15  C   UNL     1      21.627  50.610  49.915  1.00  0.00     0.034 C 
BRANCH  13  16
HETATM   16  N   UNL     1      23.832  48.456  49.937  1.00  0.00    -0.067 N 
HETATM   17  H   UNL     1      24.257  49.192  50.517  1.00  0.00     0.278 HD
HETATM   18  H   UNL     1      23.082  48.059  50.524  1.00  0.00     0.278 HD
BRANCH  16  19
HETATM   19  C   UNL     1      24.878  47.405  49.723  1.00  0.00     0.280 C 
BRANCH  19  20
HETATM   20  C   UNL     1      24.898  46.416  50.828  1.00  0.00     0.027 A 
HETATM   21  S   UNL     1      25.662  46.759  52.327  1.00  0.00    -0.084 SA
HETATM   22  C   UNL     1      25.212  45.202  52.896  1.00  0.00     0.166 A 
HETATM   23  N   UNL     1      24.551  44.455  52.040  1.00  0.00    -0.265 NA
HETATM   24  C   UNL     1      24.351  45.149  50.867  1.00  0.00     0.133 A 
ENDBRANCH  19  20
ENDBRANCH  16  19
ENDBRANCH  13  16
ENDBRANCH   9  10
ENDBRANCH   7   9
TORSDOF 5
ENDMDL
