MODEL 1
REMARK VINA RESULT:      -9.4      0.000      0.000
REMARK  4 active torsions:
REMARK  status: ('A' for Active; 'I' for Inactive)
REMARK    1  A    between atoms: C_3  and  C_4 
REMARK       I    between atoms: C_4  and  N_5 
REMARK    2  A    between atoms: N_5  and  C_6 
REMARK    3  A    between atoms: C_6  and  C_7 
REMARK    4  A    between atoms: C_23  and  O_24 
ROOT
HETATM    1  C   UNL     1      25.274  44.919  52.017  1.00  0.00     0.276 C 
HETATM    2  N   UNL     1      25.432  45.607  50.836  1.00  0.00    -0.348 N 
HETATM    3  O   UNL     1      24.257  44.261  52.227  1.00  0.00    -0.265 OA
HETATM    4  H   UNL     1      26.273  46.150  50.663  1.00  0.00     0.163 HD
ENDROOT
BRANCH   1   5
HETATM    5  C   UNL     1      26.371  45.033  52.960  1.00  0.00     0.150 A 
HETATM    6  C   UNL     1      26.714  46.043  53.852  1.00  0.00    -0.009 A 
HETATM    7  C   UNL     1      26.021  47.336  54.093  1.00  0.00     0.052 C 
HETATM    8  C   UNL     1      27.893  45.596  54.525  1.00  0.00     0.009 A 
HETATM    9  C   UNL     1      28.191  44.350  53.997  1.00  0.00     0.087 A 
HETATM   10  C   UNL     1      28.734  46.118  55.524  1.00  0.00     0.051 A 
HETATM   11  O   UNL     1      27.278  44.005  53.050  1.00  0.00    -0.304 OA
HETATM   12  C   UNL     1      29.280  43.579  54.396  1.00  0.00     0.041 A 
HETATM   13  C   UNL     1      30.107  44.119  55.395  1.00  0.00     0.039 A 
HETATM   14  C   UNL     1      29.842  45.372  55.956  1.00  0.00     0.069 A 
BRANCH  14  15
HETATM   15  O   UNL     1      30.581  45.988  56.931  1.00  0.00    -0.356 OA
HETATM   16  C   UNL     1      30.275  45.663  58.280  1.00  0.00     0.210 C 
ENDBRANCH  14  15
ENDBRANCH   1   5
BRANCH   2  17
HETATM   17  C   UNL     1      24.401  45.567  49.835  1.00  0.00     0.201 C 
BRANCH  17  18
HETATM   18  C   UNL     1      23.948  46.939  49.483  1.00  0.00     0.123 A 
HETATM   19  N   UNL     1      24.673  48.034  49.350  1.00  0.00    -0.232 NA
HETATM   20  C   UNL     1      23.781  49.028  49.016  1.00  0.00     0.085 A 
HETATM   21  C   UNL     1      22.485  48.530  48.944  1.00  0.00     0.062 A 
HETATM   22  C   UNL     1      24.002  50.388  48.756  1.00  0.00     0.034 A 
HETATM   23  N   UNL     1      22.618  47.201  49.246  1.00  0.00    -0.341 N 
HETATM   24  C   UNL     1      21.374  49.313  48.624  1.00  0.00     0.032 A 
HETATM   25  H   UNL     1      21.867  46.527  49.285  1.00  0.00     0.167 HD
HETATM   26  C   UNL     1      21.614  50.667  48.368  1.00  0.00     0.002 A 
HETATM   27  C   UNL     1      22.905  51.199  48.432  1.00  0.00     0.002 A 
ENDBRANCH  17  18
ENDBRANCH   2  17
TORSDOF 4
ENDMDL
MODEL 2
REMARK VINA RESULT:      -9.0      0.973      1.754
REMARK  4 active torsions:
REMARK  status: ('A' for Active; 'I' for Inactive)
REMARK    1  A    between atoms: C_3  and  C_4 
REMARK       I    between atoms: C_4  and  N_5 
REMARK    2  A    between atoms: N_5  and  C_6 
REMARK    3  A    between atoms: C_6  and  C_7 
REMARK    4  A    between atoms: C_23  and  O_24 
ROOT
HETATM    1  C   UNL     1      25.441  44.370  51.897  1.00  0.00     0.276 C 
HETATM    2  N   UNL     1      25.358  45.408  50.998  1.00  0.00    -0.348 N 
HETATM    3  O   UNL     1      24.614  43.460  51.883  1.00  0.00    -0.265 OA
HETATM    4  H   UNL     1      26.042  46.158  51.010  1.00  0.00     0.163 HD
ENDROOT
BRANCH   1   5
HETATM    5  C   UNL     1      26.552  44.437  52.829  1.00  0.00     0.150 A 
HETATM    6  C   UNL     1      27.565  43.530  53.117  1.00  0.00    -0.009 A 
HETATM    7  C   UNL     1      27.798  42.187  52.523  1.00  0.00     0.052 C 
HETATM    8  C   UNL     1      28.377  44.144  54.119  1.00  0.00     0.009 A 
HETATM    9  C   UNL     1      27.805  45.379  54.377  1.00  0.00     0.087 A 
HETATM   10  C   UNL     1      29.536  43.783  54.831  1.00  0.00     0.051 A 
HETATM   11  O   UNL     1      26.701  45.562  53.604  1.00  0.00    -0.304 OA
HETATM   12  C   UNL     1      28.307  46.289  55.305  1.00  0.00     0.041 A 
HETATM   13  C   UNL     1      29.463  45.908  56.004  1.00  0.00     0.039 A 
HETATM   14  C   UNL     1      30.075  44.671  55.774  1.00  0.00     0.069 A 
BRANCH  14  15
HETATM   15  O   UNL     1      31.201  44.203  56.398  1.00  0.00    -0.356 OA
HETATM   16  C   UNL     1      31.302  44.413  57.800  1.00  0.00     0.210 C 
ENDBRANCH  14  15
ENDBRANCH   1   5
BRANCH   2  17
HETATM   17  C   UNL     1      24.291  45.442  50.035  1.00  0.00     0.201 C 
BRANCH  17  18
HETATM   18  C   UNL     1      23.992  46.839  49.622  1.00  0.00     0.123 A 
HETATM   19  N   UNL     1      24.836  47.786  49.256  1.00  0.00    -0.232 NA
HETATM   20  C   UNL     1      24.056  48.885  48.974  1.00  0.00     0.085 A 
HETATM   21  C   UNL     1      22.710  48.604  49.173  1.00  0.00     0.062 A 
HETATM   22  C   UNL     1      24.427  50.166  48.541  1.00  0.00     0.034 A 
HETATM   23  N   UNL     1      22.696  47.298  49.585  1.00  0.00    -0.341 N 
HETATM   24  C   UNL     1      21.689  49.533  48.964  1.00  0.00     0.032 A 
HETATM   25  H   UNL     1      21.872  46.763  49.819  1.00  0.00     0.167 HD
HETATM   26  C   UNL     1      22.077  50.805  48.532  1.00  0.00     0.002 A 
HETATM   27  C   UNL     1      23.423  51.120  48.323  1.00  0.00     0.002 A 
ENDBRANCH  17  18
ENDBRANCH   2  17
TORSDOF 4
ENDMDL
MODEL 3
REMARK VINA RESULT:      -8.6      4.262      8.957
REMARK  4 active torsions:
REMARK  status: ('A' for Active; 'I' for Inactive)
REMARK    1  A    between atoms: C_3  and  C_4 
REMARK       I    between atoms: C_4  and  N_5 
REMARK    2  A    between atoms: N_5  and  C_6 
REMARK    3  A    between atoms: C_6  and  C_7 
REMARK    4  A    between atoms: C_23  and  O_24 
ROOT
HETATM    1  C   UNL     1      25.669  44.710  53.367  1.00  0.00     0.276 C 
HETATM    2  N   UNL     1      26.721  45.578  53.187  1.00  0.00    -0.348 N 
HETATM    3  O   UNL     1      25.070  44.664  54.440  1.00  0.00    -0.265 OA
HETATM    4  H   UNL     1      27.214  45.616  52.300  1.00  0.00     0.163 HD
ENDROOT
BRANCH   1   5
HETATM    5  C   UNL     1      25.338  43.882  52.221  1.00  0.00     0.150 A 
HETATM    6  C   UNL     1      26.084  42.937  51.525  1.00  0.00    -0.009 A 
HETATM    7  C   UNL     1      27.482  42.499  51.774  1.00  0.00     0.052 C 
HETATM    8  C   UNL     1      25.231  42.440  50.492  1.00  0.00     0.009 A 
HETATM    9  C   UNL     1      24.028  43.115  50.624  1.00  0.00     0.087 A 
HETATM   10  C   UNL     1      25.355  41.490  49.462  1.00  0.00     0.051 A 
HETATM   11  O   UNL     1      24.087  43.989  51.664  1.00  0.00    -0.304 OA
HETATM   12  C   UNL     1      22.929  42.911  49.793  1.00  0.00     0.041 A 
HETATM   13  C   UNL     1      23.074  41.958  48.773  1.00  0.00     0.039 A 
HETATM   14  C   UNL     1      24.269  41.253  48.604  1.00  0.00     0.069 A 
BRANCH  14  15
HETATM   15  O   UNL     1      24.516  40.306  47.645  1.00  0.00    -0.356 OA
HETATM   16  C   UNL     1      25.832  40.248  47.112  1.00  0.00     0.210 C 
ENDBRANCH  14  15
ENDBRANCH   1   5
BRANCH   2  17
HETATM   17  C   UNL     1      27.135  46.439  54.262  1.00  0.00     0.201 C 
BRANCH  17  18
HETATM   18  C   UNL     1      28.241  45.821  55.042  1.00  0.00     0.123 A 
HETATM   19  N   UNL     1      29.004  44.795  54.713  1.00  0.00    -0.232 NA
HETATM   20  C   UNL     1      29.867  44.625  55.771  1.00  0.00     0.085 A 
HETATM   21  C   UNL     1      29.627  45.565  56.766  1.00  0.00     0.062 A 
HETATM   22  C   UNL     1      30.891  43.684  55.958  1.00  0.00     0.034 A 
HETATM   23  N   UNL     1      28.588  46.313  56.278  1.00  0.00    -0.341 N 
HETATM   24  C   UNL     1      30.353  45.632  57.956  1.00  0.00     0.032 A 
HETATM   25  H   UNL     1      28.153  47.094  56.748  1.00  0.00     0.167 HD
HETATM   26  C   UNL     1      31.370  44.687  58.125  1.00  0.00     0.002 A 
HETATM   27  C   UNL     1      31.637  43.728  57.144  1.00  0.00     0.002 A 
ENDBRANCH  17  18
ENDBRANCH   2  17
TORSDOF 4
ENDMDL
MODEL 4
REMARK VINA RESULT:      -8.5      1.836      3.001
REMARK  4 active torsions:
REMARK  status: ('A' for Active; 'I' for Inactive)
REMARK    1  A    between atoms: C_3  and  C_4 
REMARK       I    between atoms: C_4  and  N_5 
REMARK    2  A    between atoms: N_5  and  C_6 
REMARK    3  A    between atoms: C_6  and  C_7 
REMARK    4  A    between atoms: C_23  and  O_24 
ROOT
HETATM    1  C   UNL     1      26.753  43.533  51.651  1.00  0.00     0.276 C 
HETATM    2  N   UNL     1      25.422  43.402  51.977  1.00  0.00    -0.348 N 
HETATM    3  O   UNL     1      27.128  43.413  50.486  1.00  0.00    -0.265 OA
HETATM    4  H   UNL     1      25.114  43.502  52.939  1.00  0.00     0.163 HD
ENDROOT
BRANCH   1   5
HETATM    5  C   UNL     1      27.644  43.813  52.761  1.00  0.00     0.150 A 
HETATM    6  C   UNL     1      28.727  43.105  53.272  1.00  0.00    -0.009 A 
HETATM    7  C   UNL     1      29.289  41.812  52.800  1.00  0.00     0.052 C 
HETATM    8  C   UNL     1      29.224  43.874  54.369  1.00  0.00     0.009 A 
HETATM    9  C   UNL     1      28.412  44.994  54.456  1.00  0.00     0.087 A 
HETATM   10  C   UNL     1      30.275  43.737  55.293  1.00  0.00     0.051 A 
HETATM   11  O   UNL     1      27.456  44.963  53.490  1.00  0.00    -0.304 OA
HETATM   12  C   UNL     1      28.573  45.996  55.410  1.00  0.00     0.041 A 
HETATM   13  C   UNL     1      29.629  45.839  56.322  1.00  0.00     0.039 A 
HETATM   14  C   UNL     1      30.473  44.726  56.270  1.00  0.00     0.069 A 
BRANCH  14  15
HETATM   15  O   UNL     1      31.527  44.476  57.108  1.00  0.00    -0.356 OA
HETATM   16  C   UNL     1      31.933  43.122  57.256  1.00  0.00     0.210 C 
ENDBRANCH  14  15
ENDBRANCH   1   5
BRANCH   2  17
HETATM   17  C   UNL     1      24.456  43.118  50.952  1.00  0.00     0.201 C 
BRANCH  17  18
HETATM   18  C   UNL     1      24.018  44.367  50.272  1.00  0.00     0.123 A 
HETATM   19  N   UNL     1      23.064  44.522  49.373  1.00  0.00    -0.232 NA
HETATM   20  C   UNL     1      23.060  45.864  49.068  1.00  0.00     0.085 A 
HETATM   21  C   UNL     1      24.030  46.542  49.796  1.00  0.00     0.062 A 
HETATM   22  C   UNL     1      22.252  46.583  48.176  1.00  0.00     0.034 A 
HETATM   23  N   UNL     1      24.626  45.569  50.553  1.00  0.00    -0.341 N 
HETATM   24  C   UNL     1      24.253  47.916  49.691  1.00  0.00     0.032 A 
HETATM   25  H   UNL     1      25.381  45.711  51.207  1.00  0.00     0.167 HD
HETATM   26  C   UNL     1      23.438  48.618  48.796  1.00  0.00     0.002 A 
HETATM   27  C   UNL     1      22.453  47.965  48.049  1.00  0.00     0.002 A 
ENDBRANCH  17  18
ENDBRANCH   2  17
TORSDOF 4
ENDMDL
MODEL 5
REMARK VINA RESULT:      -8.5      3.082      8.960
REMARK  4 active torsions:
REMARK  status: ('A' for Active; 'I' for Inactive)
REMARK    1  A    between atoms: C_3  and  C_4 
REMARK       I    between atoms: C_4  and  N_5 
REMARK    2  A    between atoms: N_5  and  C_6 
REMARK    3  A    between atoms: C_6  and  C_7 
REMARK    4  A    between atoms: C_23  and  O_24 
ROOT
HETATM    1  C   UNL     1      25.748  46.846  53.049  1.00  0.00     0.276 C 
HETATM    2  N   UNL     1      26.846  46.337  53.705  1.00  0.00    -0.348 N 
HETATM    3  O   UNL     1      25.250  47.915  53.397  1.00  0.00    -0.265 OA
HETATM    4  H   UNL     1      27.257  45.455  53.415  1.00  0.00     0.163 HD
ENDROOT
BRANCH   1   5
HETATM    5  C   UNL     1      25.248  46.042  51.950  1.00  0.00     0.150 A 
HETATM    6  C   UNL     1      24.991  46.361  50.621  1.00  0.00    -0.009 A 
HETATM    7  C   UNL     1      25.168  47.668  49.935  1.00  0.00     0.052 C 
HETATM    8  C   UNL     1      24.516  45.161  50.008  1.00  0.00     0.009 A 
HETATM    9  C   UNL     1      24.510  44.195  51.001  1.00  0.00     0.087 A 
HETATM   10  C   UNL     1      24.092  44.795  48.717  1.00  0.00     0.051 A 
HETATM   11  O   UNL     1      24.949  44.720  52.176  1.00  0.00    -0.304 OA
HETATM   12  C   UNL     1      24.106  42.877  50.800  1.00  0.00     0.041 A 
HETATM   13  C   UNL     1      23.687  42.534  49.504  1.00  0.00     0.039 A 
HETATM   14  C   UNL     1      23.678  43.476  48.472  1.00  0.00     0.069 A 
BRANCH  14  15
HETATM   15  O   UNL     1      23.290  43.248  47.178  1.00  0.00    -0.356 OA
HETATM   16  C   UNL     1      23.394  41.916  46.695  1.00  0.00     0.210 C 
ENDBRANCH  14  15
ENDBRANCH   1   5
BRANCH   2  17
HETATM   17  C   UNL     1      27.418  47.053  54.812  1.00  0.00     0.201 C 
BRANCH  17  18
HETATM   18  C   UNL     1      28.461  46.237  55.490  1.00  0.00     0.123 A 
HETATM   19  N   UNL     1      28.984  46.406  56.691  1.00  0.00    -0.232 NA
HETATM   20  C   UNL     1      29.899  45.388  56.840  1.00  0.00     0.085 A 
HETATM   21  C   UNL     1      29.936  44.583  55.708  1.00  0.00     0.062 A 
HETATM   22  C   UNL     1      30.741  45.084  57.919  1.00  0.00     0.034 A 
HETATM   23  N   UNL     1      29.014  45.143  54.865  1.00  0.00    -0.341 N 
HETATM   24  C   UNL     1      30.772  43.472  55.578  1.00  0.00     0.032 A 
HETATM   25  H   UNL     1      28.779  44.808  53.942  1.00  0.00     0.167 HD
HETATM   26  C   UNL     1      31.605  43.184  56.664  1.00  0.00     0.002 A 
HETATM   27  C   UNL     1      31.592  43.975  57.817  1.00  0.00     0.002 A 
ENDBRANCH  17  18
ENDBRANCH   2  17
TORSDOF 4
ENDMDL
MODEL 6
REMARK VINA RESULT:      -8.4      3.467      9.602
REMARK  4 active torsions:
REMARK  status: ('A' for Active; 'I' for Inactive)
REMARK    1  A    between atoms: C_3  and  C_4 
REMARK       I    between atoms: C_4  and  N_5 
REMARK    2  A    between atoms: N_5  and  C_6 
REMARK    3  A    between atoms: C_6  and  C_7 
REMARK    4  A    between atoms: C_23  and  O_24 
ROOT
HETATM    1  C   UNL     1      23.188  48.262  49.002  1.00  0.00     0.276 C 
HETATM    2  N   UNL     1      23.163  47.125  49.777  1.00  0.00    -0.348 N 
HETATM    3  O   UNL     1      24.152  48.508  48.280  1.00  0.00    -0.265 OA
HETATM    4  H   UNL     1      22.366  46.923  50.372  1.00  0.00     0.163 HD
ENDROOT
BRANCH   1   5
HETATM    5  C   UNL     1      22.019  49.116  49.106  1.00  0.00     0.150 A 
HETATM    6  C   UNL     1      21.842  50.469  48.835  1.00  0.00    -0.009 A 
HETATM    7  C   UNL     1      22.846  51.450  48.345  1.00  0.00     0.052 C 
HETATM    8  C   UNL     1      20.472  50.756  49.117  1.00  0.00     0.009 A 
HETATM    9  C   UNL     1      19.906  49.564  49.543  1.00  0.00     0.087 A 
HETATM   10  C   UNL     1      19.654  51.899  49.054  1.00  0.00     0.051 A 
HETATM   11  O   UNL     1      20.835  48.571  49.540  1.00  0.00    -0.304 OA
HETATM   12  C   UNL     1      18.571  49.429  49.917  1.00  0.00     0.041 A 
HETATM   13  C   UNL     1      17.774  50.582  49.847  1.00  0.00     0.039 A 
HETATM   14  C   UNL     1      18.302  51.805  49.422  1.00  0.00     0.069 A 
BRANCH  14  15
HETATM   15  O   UNL     1      17.615  52.985  49.317  1.00  0.00    -0.356 OA
HETATM   16  C   UNL     1      16.344  53.055  49.948  1.00  0.00     0.210 C 
ENDBRANCH  14  15
ENDBRANCH   1   5
BRANCH   2  17
HETATM   17  C   UNL     1      24.275  46.214  49.753  1.00  0.00     0.201 C 
BRANCH  17  18
HETATM   18  C   UNL     1      25.046  46.284  51.023  1.00  0.00     0.123 A 
HETATM   19  N   UNL     1      25.115  47.278  51.889  1.00  0.00    -0.232 NA
HETATM   20  C   UNL     1      25.956  46.840  52.886  1.00  0.00     0.085 A 
HETATM   21  C   UNL     1      26.410  45.552  52.624  1.00  0.00     0.062 A 
HETATM   22  C   UNL     1      26.382  47.487  54.055  1.00  0.00     0.034 A 
HETATM   23  N   UNL     1      25.818  45.222  51.435  1.00  0.00    -0.341 N 
HETATM   24  C   UNL     1      27.277  44.854  53.467  1.00  0.00     0.032 A 
HETATM   25  H   UNL     1      25.929  44.346  50.945  1.00  0.00     0.167 HD
HETATM   26  C   UNL     1      27.692  45.515  54.627  1.00  0.00     0.002 A 
HETATM   27  C   UNL     1      27.254  46.810  54.920  1.00  0.00     0.002 A 
ENDBRANCH  17  18
ENDBRANCH   2  17
TORSDOF 4
ENDMDL
MODEL 7
REMARK VINA RESULT:      -8.4      2.810      8.641
REMARK  4 active torsions:
REMARK  status: ('A' for Active; 'I' for Inactive)
REMARK    1  A    between atoms: C_3  and  C_4 
REMARK       I    between atoms: C_4  and  N_5 
REMARK    2  A    between atoms: N_5  and  C_6 
REMARK    3  A    between atoms: C_6  and  C_7 
REMARK    4  A    between atoms: C_23  and  O_24 
ROOT
HETATM    1  C   UNL     1      26.165  44.251  50.168  1.00  0.00     0.276 C 
HETATM    2  N   UNL     1      26.049  43.716  51.430  1.00  0.00    -0.348 N 
HETATM    3  O   UNL     1      27.024  43.842  49.389  1.00  0.00    -0.265 OA
HETATM    4  H   UNL     1      25.339  44.054  52.072  1.00  0.00     0.163 HD
ENDROOT
BRANCH   1   5
HETATM    5  C   UNL     1      25.219  45.304  49.846  1.00  0.00     0.150 A 
HETATM    6  C   UNL     1      25.221  46.662  50.141  1.00  0.00    -0.009 A 
HETATM    7  C   UNL     1      26.235  47.440  50.900  1.00  0.00     0.052 C 
HETATM    8  C   UNL     1      24.032  47.198  49.558  1.00  0.00     0.009 A 
HETATM    9  C   UNL     1      23.384  46.134  48.951  1.00  0.00     0.087 A 
HETATM   10  C   UNL     1      23.440  48.472  49.481  1.00  0.00     0.051 A 
HETATM   11  O   UNL     1      24.094  44.987  49.122  1.00  0.00    -0.304 OA
HETATM   12  C   UNL     1      22.176  46.248  48.268  1.00  0.00     0.041 A 
HETATM   13  C   UNL     1      21.603  47.529  48.204  1.00  0.00     0.039 A 
HETATM   14  C   UNL     1      22.222  48.631  48.801  1.00  0.00     0.069 A 
BRANCH  14  15
HETATM   15  O   UNL     1      21.751  49.917  48.798  1.00  0.00    -0.356 OA
HETATM   16  C   UNL     1      22.714  50.962  48.825  1.00  0.00     0.210 C 
ENDBRANCH  14  15
ENDBRANCH   1   5
BRANCH   2  17
HETATM   17  C   UNL     1      26.942  42.671  51.853  1.00  0.00     0.201 C 
BRANCH  17  18
HETATM   18  C   UNL     1      27.869  43.160  52.908  1.00  0.00     0.123 A 
HETATM   19  N   UNL     1      28.931  42.558  53.412  1.00  0.00    -0.232 NA
HETATM   20  C   UNL     1      29.436  43.428  54.351  1.00  0.00     0.085 A 
HETATM   21  C   UNL     1      28.668  44.583  54.423  1.00  0.00     0.062 A 
HETATM   22  C   UNL     1      30.555  43.301  55.188  1.00  0.00     0.034 A 
HETATM   23  N   UNL     1      27.678  44.388  53.497  1.00  0.00    -0.341 N 
HETATM   24  C   UNL     1      28.946  45.642  55.290  1.00  0.00     0.032 A 
HETATM   25  H   UNL     1      26.936  45.038  53.283  1.00  0.00     0.167 HD
HETATM   26  C   UNL     1      30.065  45.498  56.117  1.00  0.00     0.002 A 
HETATM   27  C   UNL     1      30.858  44.348  56.069  1.00  0.00     0.002 A 
ENDBRANCH  17  18
ENDBRANCH   2  17
TORSDOF 4
ENDMDL
MODEL 8
REMARK VINA RESULT:      -8.3      2.045      3.274
REMARK  4 active torsions:
REMARK  status: ('A' for Active; 'I' for Inactive)
REMARK    1  A    between atoms: C_3  and  C_4 
REMARK       I    between atoms: C_4  and  N_5 
REMARK    2  A    between atoms: N_5  and  C_6 
REMARK    3  A    between atoms: C_6  and  C_7 
REMARK    4  A    between atoms: C_23  and  O_24 
ROOT
HETATM    1  C   UNL     1      23.869  45.786  49.650  1.00  0.00     0.276 C 
HETATM    2  N   UNL     1      23.122  46.939  49.581  1.00  0.00    -0.348 N 
HETATM    3  O   UNL     1      23.855  44.974  48.726  1.00  0.00    -0.265 OA
HETATM    4  H   UNL     1      23.135  47.610  50.343  1.00  0.00     0.163 HD
ENDROOT
BRANCH   1   5
HETATM    5  C   UNL     1      24.649  45.618  50.862  1.00  0.00     0.150 A 
HETATM    6  C   UNL     1      25.713  46.349  51.379  1.00  0.00    -0.009 A 
HETATM    7  C   UNL     1      26.370  47.554  50.806  1.00  0.00     0.052 C 
HETATM    8  C   UNL     1      26.072  45.715  52.607  1.00  0.00     0.009 A 
HETATM    9  C   UNL     1      25.210  44.641  52.756  1.00  0.00     0.087 A 
HETATM   10  C   UNL     1      27.036  45.941  53.607  1.00  0.00     0.051 A 
HETATM   11  O   UNL     1      24.349  44.575  51.705  1.00  0.00    -0.304 OA
HETATM   12  C   UNL     1      25.239  43.765  53.839  1.00  0.00     0.041 A 
HETATM   13  C   UNL     1      26.209  44.010  54.824  1.00  0.00     0.039 A 
HETATM   14  C   UNL     1      27.100  45.082  54.716  1.00  0.00     0.069 A 
BRANCH  14  15
HETATM   15  O   UNL     1      28.079  45.409  55.616  1.00  0.00    -0.356 OA
HETATM   16  C   UNL     1      28.201  46.778  55.975  1.00  0.00     0.210 C 
ENDBRANCH  14  15
ENDBRANCH   1   5
BRANCH   2  17
HETATM   17  C   UNL     1      22.308  47.201  48.425  1.00  0.00     0.201 C 
BRANCH  17  18
HETATM   18  C   UNL     1      21.454  48.400  48.637  1.00  0.00     0.123 A 
HETATM   19  N   UNL     1      21.519  49.572  48.033  1.00  0.00    -0.232 NA
HETATM   20  C   UNL     1      20.511  50.329  48.587  1.00  0.00     0.085 A 
HETATM   21  C   UNL     1      19.818  49.605  49.550  1.00  0.00     0.062 A 
HETATM   22  C   UNL     1      20.124  51.650  48.320  1.00  0.00     0.034 A 
HETATM   23  N   UNL     1      20.436  48.383  49.563  1.00  0.00    -0.341 N 
HETATM   24  C   UNL     1      18.742  50.120  50.276  1.00  0.00     0.032 A 
HETATM   25  H   UNL     1      20.185  47.602  50.152  1.00  0.00     0.167 HD
HETATM   26  C   UNL     1      18.370  51.438  49.996  1.00  0.00     0.002 A 
HETATM   27  C   UNL     1      19.047  52.194  49.034  1.00  0.00     0.002 A 
ENDBRANCH  17  18
ENDBRANCH   2  17
TORSDOF 4
ENDMDL
MODEL 9
REMARK VINA RESULT:      -8.3      4.813      7.076
REMARK  4 active torsions:
REMARK  status: ('A' for Active; 'I' for Inactive)
REMARK    1  A    between atoms: C_3  and  C_4 
REMARK       I    between atoms: C_4  and  N_5 
REMARK    2  A    between atoms: N_5  and  C_6 
REMARK    3  A    between atoms: C_6  and  C_7 
REMARK    4  A    between atoms: C_23  and  O_24 
ROOT
HETATM    1  C   UNL     1      26.991  43.690  51.759  1.00  0.00     0.276 C 
HETATM    2  N   UNL     1      26.293  42.504  51.800  1.00  0.00    -0.348 N 
HETATM    3  O   UNL     1      26.935  44.416  50.769  1.00  0.00    -0.265 OA
HETATM    4  H   UNL     1      26.340  41.906  52.618  1.00  0.00     0.163 HD
ENDROOT
BRANCH   1   5
HETATM    5  C   UNL     1      27.771  43.997  52.944  1.00  0.00     0.150 A 
HETATM    6  C   UNL     1      28.913  43.404  53.471  1.00  0.00    -0.009 A 
HETATM    7  C   UNL     1      29.678  42.244  52.943  1.00  0.00     0.052 C 
HETATM    8  C   UNL     1      29.235  44.141  54.652  1.00  0.00     0.009 A 
HETATM    9  C   UNL     1      28.269  45.128  54.769  1.00  0.00     0.087 A 
HETATM   10  C   UNL     1      30.243  44.073  55.632  1.00  0.00     0.051 A 
HETATM   11  O   UNL     1      27.382  45.046  53.742  1.00  0.00    -0.304 OA
HETATM   12  C   UNL     1      28.233  46.061  55.802  1.00  0.00     0.041 A 
HETATM   13  C   UNL     1      29.249  45.975  56.768  1.00  0.00     0.039 A 
HETATM   14  C   UNL     1      30.244  44.996  56.690  1.00  0.00     0.069 A 
BRANCH  14  15
HETATM   15  O   UNL     1      31.275  44.825  57.575  1.00  0.00    -0.356 OA
HETATM   16  C   UNL     1      32.023  43.621  57.476  1.00  0.00     0.210 C 
ENDBRANCH  14  15
ENDBRANCH   1   5
BRANCH   2  17
HETATM   17  C   UNL     1      25.494  42.102  50.675  1.00  0.00     0.201 C 
BRANCH  17  18
HETATM   18  C   UNL     1      26.173  41.031  49.897  1.00  0.00     0.123 A 
HETATM   19  N   UNL     1      25.788  40.467  48.767  1.00  0.00    -0.232 NA
HETATM   20  C   UNL     1      26.762  39.542  48.466  1.00  0.00     0.085 A 
HETATM   21  C   UNL     1      27.763  39.542  49.431  1.00  0.00     0.062 A 
HETATM   22  C   UNL     1      26.864  38.661  47.380  1.00  0.00     0.034 A 
HETATM   23  N   UNL     1      27.364  40.496  50.329  1.00  0.00    -0.341 N 
HETATM   24  C   UNL     1      28.880  38.706  49.384  1.00  0.00     0.032 A 
HETATM   25  H   UNL     1      27.863  40.763  51.166  1.00  0.00     0.167 HD
HETATM   26  C   UNL     1      28.965  37.834  48.294  1.00  0.00     0.002 A 
HETATM   27  C   UNL     1      27.975  37.809  47.307  1.00  0.00     0.002 A 
ENDBRANCH  17  18
ENDBRANCH   2  17
TORSDOF 4
ENDMDL
MODEL 10
REMARK VINA RESULT:      -8.2      4.028      8.944
REMARK  4 active torsions:
REMARK  status: ('A' for Active; 'I' for Inactive)
REMARK    1  A    between atoms: C_3  and  C_4 
REMARK       I    between atoms: C_4  and  N_5 
REMARK    2  A    between atoms: N_5  and  C_6 
REMARK    3  A    between atoms: C_6  and  C_7 
REMARK    4  A    between atoms: C_23  and  O_24 
ROOT
HETATM    1  C   UNL     1      28.005  42.008  52.406  1.00  0.00     0.276 C 
HETATM    2  N   UNL     1      28.989  42.968  52.344  1.00  0.00    -0.348 N 
HETATM    3  O   UNL     1      28.190  40.960  53.022  1.00  0.00    -0.265 OA
HETATM    4  H   UNL     1      28.834  43.833  51.835  1.00  0.00     0.163 HD
ENDROOT
BRANCH   1   5
HETATM    5  C   UNL     1      26.774  42.327  51.706  1.00  0.00     0.150 A 
HETATM    6  C   UNL     1      25.839  43.337  51.907  1.00  0.00    -0.009 A 
HETATM    7  C   UNL     1      25.846  44.409  52.936  1.00  0.00     0.052 C 
HETATM    8  C   UNL     1      24.836  43.155  50.906  1.00  0.00     0.009 A 
HETATM    9  C   UNL     1      25.223  42.049  50.166  1.00  0.00     0.087 A 
HETATM   10  C   UNL     1      23.645  43.813  50.550  1.00  0.00     0.051 A 
HETATM   11  O   UNL     1      26.390  41.543  50.645  1.00  0.00    -0.304 OA
HETATM   12  C   UNL     1      24.499  41.544  49.088  1.00  0.00     0.041 A 
HETATM   13  C   UNL     1      23.313  42.217  48.751  1.00  0.00     0.039 A 
HETATM   14  C   UNL     1      22.886  43.338  49.469  1.00  0.00     0.069 A 
BRANCH  14  15
HETATM   15  O   UNL     1      21.751  44.064  49.225  1.00  0.00    -0.356 OA
HETATM   16  C   UNL     1      21.868  45.180  48.353  1.00  0.00     0.210 C 
ENDBRANCH  14  15
ENDBRANCH   1   5
BRANCH   2  17
HETATM   17  C   UNL     1      30.250  42.749  52.998  1.00  0.00     0.201 C 
BRANCH  17  18
HETATM   18  C   UNL     1      30.289  43.433  54.318  1.00  0.00     0.123 A 
HETATM   19  N   UNL     1      31.076  43.184  55.349  1.00  0.00    -0.232 NA
HETATM   20  C   UNL     1      30.714  44.093  56.316  1.00  0.00     0.085 A 
HETATM   21  C   UNL     1      29.685  44.914  55.868  1.00  0.00     0.062 A 
HETATM   22  C   UNL     1      31.219  44.282  57.611  1.00  0.00     0.034 A 
HETATM   23  N   UNL     1      29.433  44.473  54.596  1.00  0.00    -0.341 N 
HETATM   24  C   UNL     1      29.117  45.929  56.639  1.00  0.00     0.032 A 
HETATM   25  H   UNL     1      28.738  44.851  53.969  1.00  0.00     0.167 HD
HETATM   26  C   UNL     1      29.634  46.104  57.927  1.00  0.00     0.002 A 
HETATM   27  C   UNL     1      30.668  45.295  58.408  1.00  0.00     0.002 A 
ENDBRANCH  17  18
ENDBRANCH   2  17
TORSDOF 4
ENDMDL
