MODEL 1
REMARK VINA RESULT:     -11.1      0.000      0.000
REMARK  7 active torsions:
REMARK  status: ('A' for Active; 'I' for Inactive)
REMARK    1  A    between atoms: C_3  and  C_4 
REMARK       I    between atoms: C_4  and  N_5 
REMARK    2  A    between atoms: N_5  and  C_6 
REMARK    3  A    between atoms: C_6  and  C_7 
REMARK    4  A    between atoms: N_23  and  C_24 
REMARK    5  A    between atoms: C_24  and  C_25 
REMARK       I    between atoms: C_25  and  N_26 
REMARK    6  A    between atoms: N_26  and  C_27 
REMARK    7  A    between atoms: C_29  and  C_30 
ROOT
HETATM    1  C   UNL     1      26.459  47.663  49.817  1.00  0.00     0.051 C 
HETATM    2  C   UNL     1      25.318  46.702  49.667  1.00  0.00    -0.021 C 
HETATM    3  C   UNL     1      24.028  47.057  49.270  1.00  0.00     0.081 C 
HETATM    4  S   UNL     1      23.023  45.673  49.103  1.00  0.00    -0.063 SA
HETATM    5  C   UNL     1      24.218  44.628  49.704  1.00  0.00     0.116 A 
HETATM    6  C   UNL     1      25.385  45.298  49.994  1.00  0.00     0.075 A 
HETATM    7  C   UNL     1      26.461  44.522  50.595  1.00  0.00     0.262 A 
HETATM    8  O   UNL     1      27.570  44.985  50.862  1.00  0.00    -0.267 OA
HETATM    9  N   UNL     1      26.128  43.196  50.861  1.00  0.00    -0.299 N 
HETATM   10  C   UNL     1      24.928  42.653  50.450  1.00  0.00     0.214 A 
HETATM   11  N   UNL     1      23.969  43.305  49.877  1.00  0.00    -0.235 NA
ENDROOT
BRANCH   3  12
HETATM   12  C   UNL     1      23.491  48.398  49.033  1.00  0.00     0.259 C 
HETATM   13  N   UNL     1      22.307  48.699  49.675  1.00  0.00    -0.354 N 
HETATM   14  H   UNL     1      21.817  47.951  50.151  1.00  0.00     0.162 HD
HETATM   15  O   UNL     1      24.055  49.244  48.340  1.00  0.00    -0.267 OA
BRANCH  13  16
HETATM   16  C   UNL     1      21.688  50.010  49.598  1.00  0.00     0.157 C 
BRANCH  16  17
HETATM   17  C   UNL     1      20.157  49.954  49.590  1.00  0.00     0.171 C 
HETATM   18  O   UNL     1      19.664  51.297  49.761  1.00  0.00    -0.339 OA
HETATM   19  C   UNL     1      18.329  51.385  49.463  1.00  0.00     0.102 A 
HETATM   20  C   UNL     1      17.640  50.408  48.738  1.00  0.00     0.102 A 
HETATM   21  C   UNL     1      17.661  52.524  49.907  1.00  0.00     0.039 A 
HETATM   22  O   UNL     1      18.237  49.276  48.245  1.00  0.00    -0.346 OA
HETATM   23  C   UNL     1      16.277  50.552  48.492  1.00  0.00     0.039 A 
HETATM   24  C   UNL     1      19.664  49.388  48.260  1.00  0.00     0.209 C 
HETATM   25  C   UNL     1      15.604  51.688  48.949  1.00  0.00     0.003 A 
HETATM   26  C   UNL     1      16.297  52.674  49.652  1.00  0.00     0.003 A 
ENDBRANCH  16  17
ENDBRANCH  13  16
ENDBRANCH   3  12
BRANCH   9  27
HETATM   27  C   UNL     1      27.065  42.393  51.625  1.00  0.00     0.236 C 
BRANCH  27  28
HETATM   28  C   UNL     1      27.299  42.994  53.006  1.00  0.00     0.240 C 
HETATM   29  N   UNL     1      28.631  43.283  53.250  1.00  0.00    -0.326 N 
HETATM   30  H   UNL     1      29.309  42.870  52.608  1.00  0.00     0.169 HD
HETATM   31  O   UNL     1      26.364  43.142  53.788  1.00  0.00    -0.271 OA
BRANCH  29  32
HETATM   32  C   UNL     1      29.163  44.005  54.335  1.00  0.00     0.035 A 
HETATM   33  C   UNL     1      30.113  43.488  55.219  1.00  0.00     0.045 A 
HETATM   34  C   UNL     1      30.565  44.246  56.315  1.00  0.00     0.050 A 
HETATM   35  C   UNL     1      30.058  45.540  56.506  1.00  0.00     0.016 A 
HETATM   36  C   UNL     1      29.112  46.061  55.627  1.00  0.00     0.003 A 
HETATM   37  C   UNL     1      28.663  45.295  54.551  1.00  0.00     0.029 A 
BRANCH  34  38
HETATM   38  C   UNL     1      31.575  43.686  57.285  1.00  0.00     0.417 C 
HETATM   39  F   UNL     1      32.829  43.559  56.769  1.00  0.00    -0.166 F 
HETATM   40  F   UNL     1      31.706  44.454  58.402  1.00  0.00    -0.166 F 
HETATM   41  F   UNL     1      31.231  42.442  57.729  1.00  0.00    -0.166 F 
ENDBRANCH  34  38
ENDBRANCH  29  32
ENDBRANCH  27  28
ENDBRANCH   9  27
TORSDOF 7
ENDMDL
MODEL 2
REMARK VINA RESULT:     -11.1      1.464      2.208
REMARK  7 active torsions:
REMARK  status: ('A' for Active; 'I' for Inactive)
REMARK    1  A    between atoms: C_3  and  C_4 
REMARK       I    between atoms: C_4  and  N_5 
REMARK    2  A    between atoms: N_5  and  C_6 
REMARK    3  A    between atoms: C_6  and  C_7 
REMARK    4  A    between atoms: N_23  and  C_24 
REMARK    5  A    between atoms: C_24  and  C_25 
REMARK       I    between atoms: C_25  and  N_26 
REMARK    6  A    between atoms: N_26  and  C_27 
REMARK    7  A    between atoms: C_29  and  C_30 
ROOT
HETATM    1  C   UNL     1      22.269  43.969  48.604  1.00  0.00     0.051 C 
HETATM    2  C   UNL     1      23.024  45.181  49.057  1.00  0.00    -0.021 C 
HETATM    3  C   UNL     1      22.763  46.484  48.629  1.00  0.00     0.081 C 
HETATM    4  S   UNL     1      23.757  47.621  49.450  1.00  0.00    -0.063 SA
HETATM    5  C   UNL     1      24.639  46.407  50.241  1.00  0.00     0.116 A 
HETATM    6  C   UNL     1      24.172  45.150  49.931  1.00  0.00     0.075 A 
HETATM    7  C   UNL     1      24.900  44.018  50.486  1.00  0.00     0.262 A 
HETATM    8  O   UNL     1      24.564  42.844  50.325  1.00  0.00    -0.267 OA
HETATM    9  N   UNL     1      26.034  44.370  51.215  1.00  0.00    -0.299 N 
HETATM   10  C   UNL     1      26.336  45.688  51.492  1.00  0.00     0.214 A 
HETATM   11  N   UNL     1      25.685  46.714  51.049  1.00  0.00    -0.235 NA
ENDROOT
BRANCH   3  12
HETATM   12  C   UNL     1      21.818  46.927  47.603  1.00  0.00     0.259 C 
HETATM   13  N   UNL     1      20.729  47.647  48.052  1.00  0.00    -0.354 N 
HETATM   14  H   UNL     1      20.575  47.709  49.052  1.00  0.00     0.162 HD
HETATM   15  O   UNL     1      21.973  46.721  46.400  1.00  0.00    -0.267 OA
BRANCH  13  16
HETATM   16  C   UNL     1      19.743  48.216  47.150  1.00  0.00     0.157 C 
BRANCH  16  17
HETATM   17  C   UNL     1      19.251  49.599  47.590  1.00  0.00     0.171 C 
HETATM   18  O   UNL     1      17.831  49.511  47.819  1.00  0.00    -0.339 OA
HETATM   19  C   UNL     1      17.363  50.603  48.502  1.00  0.00     0.102 A 
HETATM   20  C   UNL     1      18.194  51.482  49.203  1.00  0.00     0.102 A 
HETATM   21  C   UNL     1      15.985  50.808  48.487  1.00  0.00     0.039 A 
HETATM   22  O   UNL     1      19.554  51.328  49.286  1.00  0.00    -0.346 OA
HETATM   23  C   UNL     1      17.650  52.586  49.856  1.00  0.00     0.039 A 
HETATM   24  C   UNL     1      19.957  50.016  48.879  1.00  0.00     0.209 C 
HETATM   25  C   UNL     1      16.270  52.800  49.830  1.00  0.00     0.003 A 
HETATM   26  C   UNL     1      15.438  51.909  49.150  1.00  0.00     0.003 A 
ENDBRANCH  16  17
ENDBRANCH  13  16
ENDBRANCH   3  12
BRANCH   9  27
HETATM   27  C   UNL     1      26.926  43.313  51.651  1.00  0.00     0.236 C 
BRANCH  27  28
HETATM   28  C   UNL     1      27.310  43.493  53.116  1.00  0.00     0.240 C 
HETATM   29  N   UNL     1      28.575  44.031  53.280  1.00  0.00    -0.326 N 
HETATM   30  H   UNL     1      29.178  44.032  52.455  1.00  0.00     0.169 HD
HETATM   31  O   UNL     1      26.545  43.139  54.008  1.00  0.00    -0.271 OA
BRANCH  29  32
HETATM   32  C   UNL     1      29.158  44.492  54.475  1.00  0.00     0.035 A 
HETATM   33  C   UNL     1      30.115  43.776  55.198  1.00  0.00     0.045 A 
HETATM   34  C   UNL     1      30.620  44.271  56.414  1.00  0.00     0.050 A 
HETATM   35  C   UNL     1      30.160  45.507  56.891  1.00  0.00     0.016 A 
HETATM   36  C   UNL     1      29.208  46.228  56.173  1.00  0.00     0.003 A 
HETATM   37  C   UNL     1      28.707  45.719  54.975  1.00  0.00     0.029 A 
BRANCH  34  38
HETATM   38  C   UNL     1      31.637  43.492  57.210  1.00  0.00     0.417 C 
HETATM   39  F   UNL     1      32.740  43.131  56.499  1.00  0.00    -0.166 F 
HETATM   40  F   UNL     1      32.097  44.185  58.289  1.00  0.00    -0.166 F 
HETATM   41  F   UNL     1      31.123  42.330  57.709  1.00  0.00    -0.166 F 
ENDBRANCH  34  38
ENDBRANCH  29  32
ENDBRANCH  27  28
ENDBRANCH   9  27
TORSDOF 7
ENDMDL
MODEL 3
REMARK VINA RESULT:     -10.8      2.113      2.836
REMARK  7 active torsions:
REMARK  status: ('A' for Active; 'I' for Inactive)
REMARK    1  A    between atoms: C_3  and  C_4 
REMARK       I    between atoms: C_4  and  N_5 
REMARK    2  A    between atoms: N_5  and  C_6 
REMARK    3  A    between atoms: C_6  and  C_7 
REMARK    4  A    between atoms: N_23  and  C_24 
REMARK    5  A    between atoms: C_24  and  C_25 
REMARK       I    between atoms: C_25  and  N_26 
REMARK    6  A    between atoms: N_26  and  C_27 
REMARK    7  A    between atoms: C_29  and  C_30 
ROOT
HETATM    1  C   UNL     1      24.961  45.436  49.246  1.00  0.00     0.051 C 
HETATM    2  C   UNL     1      24.540  44.018  49.006  1.00  0.00    -0.021 C 
HETATM    3  C   UNL     1      23.255  43.625  48.630  1.00  0.00     0.081 C 
HETATM    4  S   UNL     1      23.180  41.932  48.337  1.00  0.00    -0.063 SA
HETATM    5  C   UNL     1      24.777  41.687  48.856  1.00  0.00     0.116 A 
HETATM    6  C   UNL     1      25.388  42.868  49.212  1.00  0.00     0.075 A 
HETATM    7  C   UNL     1      26.737  42.779  49.752  1.00  0.00     0.262 A 
HETATM    8  O   UNL     1      27.412  43.759  50.067  1.00  0.00    -0.267 OA
HETATM    9  N   UNL     1      27.207  41.477  49.901  1.00  0.00    -0.299 N 
HETATM   10  C   UNL     1      26.494  40.391  49.436  1.00  0.00     0.214 A 
HETATM   11  N   UNL     1      25.311  40.441  48.914  1.00  0.00    -0.235 NA
ENDROOT
BRANCH   3  12
HETATM   12  C   UNL     1      22.055  44.454  48.505  1.00  0.00     0.259 C 
HETATM   13  N   UNL     1      22.038  45.341  47.448  1.00  0.00    -0.354 N 
HETATM   14  H   UNL     1      22.889  45.465  46.913  1.00  0.00     0.162 HD
HETATM   15  O   UNL     1      21.085  44.365  49.257  1.00  0.00    -0.267 OA
BRANCH  13  16
HETATM   16  C   UNL     1      20.890  46.179  47.150  1.00  0.00     0.157 C 
BRANCH  16  17
HETATM   17  C   UNL     1      20.677  47.297  48.177  1.00  0.00     0.171 C 
HETATM   18  O   UNL     1      20.627  48.548  47.464  1.00  0.00    -0.339 OA
HETATM   19  C   UNL     1      20.138  49.557  48.253  1.00  0.00     0.102 A 
HETATM   20  C   UNL     1      19.440  49.330  49.443  1.00  0.00     0.102 A 
HETATM   21  C   UNL     1      20.355  50.860  47.810  1.00  0.00     0.039 A 
HETATM   22  O   UNL     1      19.163  48.076  49.925  1.00  0.00    -0.346 OA
HETATM   23  C   UNL     1      18.992  50.405  50.206  1.00  0.00     0.039 A 
HETATM   24  C   UNL     1      19.363  47.074  48.923  1.00  0.00     0.209 C 
HETATM   25  C   UNL     1      19.221  51.711  49.770  1.00  0.00     0.003 A 
HETATM   26  C   UNL     1      19.899  51.938  48.571  1.00  0.00     0.003 A 
ENDBRANCH  16  17
ENDBRANCH  13  16
ENDBRANCH   3  12
BRANCH   9  27
HETATM   27  C   UNL     1      28.462  41.275  50.601  1.00  0.00     0.236 C 
BRANCH  27  28
HETATM   28  C   UNL     1      28.364  41.752  52.046  1.00  0.00     0.240 C 
HETATM   29  N   UNL     1      29.384  42.620  52.398  1.00  0.00    -0.326 N 
HETATM   30  H   UNL     1      30.182  42.662  51.762  1.00  0.00     0.169 HD
HETATM   31  O   UNL     1      27.470  41.340  52.779  1.00  0.00    -0.271 OA
BRANCH  29  32
HETATM   32  C   UNL     1      29.490  43.379  53.578  1.00  0.00     0.035 A 
HETATM   33  C   UNL     1      30.345  43.056  54.635  1.00  0.00     0.045 A 
HETATM   34  C   UNL     1      30.363  43.830  55.809  1.00  0.00     0.050 A 
HETATM   35  C   UNL     1      29.517  44.945  55.906  1.00  0.00     0.016 A 
HETATM   36  C   UNL     1      28.665  45.274  54.854  1.00  0.00     0.003 A 
HETATM   37  C   UNL     1      28.647  44.491  53.700  1.00  0.00     0.029 A 
BRANCH  34  38
HETATM   38  C   UNL     1      31.268  43.474  56.963  1.00  0.00     0.417 C 
HETATM   39  F   UNL     1      31.116  42.199  57.414  1.00  0.00    -0.166 F 
HETATM   40  F   UNL     1      32.587  43.606  56.650  1.00  0.00    -0.166 F 
HETATM   41  F   UNL     1      31.062  44.276  58.047  1.00  0.00    -0.166 F 
ENDBRANCH  34  38
ENDBRANCH  29  32
ENDBRANCH  27  28
ENDBRANCH   9  27
TORSDOF 7
ENDMDL
MODEL 4
REMARK VINA RESULT:     -10.7      5.833     12.567
REMARK  7 active torsions:
REMARK  status: ('A' for Active; 'I' for Inactive)
REMARK    1  A    between atoms: C_3  and  C_4 
REMARK       I    between atoms: C_4  and  N_5 
REMARK    2  A    between atoms: N_5  and  C_6 
REMARK    3  A    between atoms: C_6  and  C_7 
REMARK    4  A    between atoms: N_23  and  C_24 
REMARK    5  A    between atoms: C_24  and  C_25 
REMARK       I    between atoms: C_25  and  N_26 
REMARK    6  A    between atoms: N_26  and  C_27 
REMARK    7  A    between atoms: C_29  and  C_30 
ROOT
HETATM    1  C   UNL     1      25.802  47.055  51.092  1.00  0.00     0.051 C 
HETATM    2  C   UNL     1      24.956  46.277  50.130  1.00  0.00    -0.021 C 
HETATM    3  C   UNL     1      25.154  44.935  49.805  1.00  0.00     0.081 C 
HETATM    4  S   UNL     1      23.921  44.357  48.757  1.00  0.00    -0.063 SA
HETATM    5  C   UNL     1      23.220  45.894  48.596  1.00  0.00     0.116 A 
HETATM    6  C   UNL     1      23.876  46.838  49.354  1.00  0.00     0.075 A 
HETATM    7  C   UNL     1      23.418  48.215  49.237  1.00  0.00     0.262 A 
HETATM    8  O   UNL     1      23.886  49.148  49.890  1.00  0.00    -0.267 OA
HETATM    9  N   UNL     1      22.402  48.402  48.303  1.00  0.00    -0.299 N 
HETATM   10  C   UNL     1      21.801  47.336  47.663  1.00  0.00     0.214 A 
HETATM   11  N   UNL     1      22.158  46.098  47.777  1.00  0.00    -0.235 NA
ENDROOT
BRANCH   3  12
HETATM   12  C   UNL     1      26.250  44.056  50.218  1.00  0.00     0.259 C 
HETATM   13  N   UNL     1      26.122  43.471  51.462  1.00  0.00    -0.354 N 
HETATM   14  H   UNL     1      25.366  43.780  52.061  1.00  0.00     0.162 HD
HETATM   15  O   UNL     1      27.223  43.803  49.509  1.00  0.00    -0.267 OA
BRANCH  13  16
HETATM   16  C   UNL     1      27.090  42.521  51.980  1.00  0.00     0.157 C 
BRANCH  16  17
HETATM   17  C   UNL     1      28.231  43.186  52.757  1.00  0.00     0.171 C 
HETATM   18  O   UNL     1      27.647  44.072  53.731  1.00  0.00    -0.339 OA
HETATM   19  C   UNL     1      28.568  44.471  54.665  1.00  0.00     0.102 A 
HETATM   20  C   UNL     1      29.789  43.819  54.864  1.00  0.00     0.102 A 
HETATM   21  C   UNL     1      28.232  45.575  55.445  1.00  0.00     0.039 A 
HETATM   22  O   UNL     1      30.174  42.710  54.155  1.00  0.00    -0.346 OA
HETATM   23  C   UNL     1      30.687  44.295  55.816  1.00  0.00     0.039 A 
HETATM   24  C   UNL     1      29.068  42.121  53.463  1.00  0.00     0.209 C 
HETATM   25  C   UNL     1      30.356  45.410  56.588  1.00  0.00     0.003 A 
HETATM   26  C   UNL     1      29.128  46.047  56.405  1.00  0.00     0.003 A 
ENDBRANCH  16  17
ENDBRANCH  13  16
ENDBRANCH   3  12
BRANCH   9  27
HETATM   27  C   UNL     1      22.006  49.760  47.980  1.00  0.00     0.236 C 
BRANCH  27  28
HETATM   28  C   UNL     1      20.644  50.088  48.582  1.00  0.00     0.240 C 
HETATM   29  N   UNL     1      19.662  50.275  47.624  1.00  0.00    -0.326 N 
HETATM   30  H   UNL     1      19.984  50.398  46.663  1.00  0.00     0.169 HD
HETATM   31  O   UNL     1      20.511  50.201  49.797  1.00  0.00    -0.271 OA
BRANCH  29  32
HETATM   32  C   UNL     1      18.277  50.406  47.837  1.00  0.00     0.035 A 
HETATM   33  C   UNL     1      17.696  51.468  48.535  1.00  0.00     0.045 A 
HETATM   34  C   UNL     1      16.308  51.512  48.757  1.00  0.00     0.050 A 
HETATM   35  C   UNL     1      15.504  50.477  48.255  1.00  0.00     0.016 A 
HETATM   36  C   UNL     1      16.076  49.417  47.556  1.00  0.00     0.003 A 
HETATM   37  C   UNL     1      17.456  49.380  47.354  1.00  0.00     0.029 A 
BRANCH  34  38
HETATM   38  C   UNL     1      15.678  52.644  49.528  1.00  0.00     0.417 C 
HETATM   39  F   UNL     1      15.152  53.625  48.743  1.00  0.00    -0.166 F 
HETATM   40  F   UNL     1      14.662  52.225  50.334  1.00  0.00    -0.166 F 
HETATM   41  F   UNL     1      16.569  53.268  50.351  1.00  0.00    -0.166 F 
ENDBRANCH  34  38
ENDBRANCH  29  32
ENDBRANCH  27  28
ENDBRANCH   9  27
TORSDOF 7
ENDMDL
MODEL 5
REMARK VINA RESULT:     -10.6      2.660      3.504
REMARK  7 active torsions:
REMARK  status: ('A' for Active; 'I' for Inactive)
REMARK    1  A    between atoms: C_3  and  C_4 
REMARK       I    between atoms: C_4  and  N_5 
REMARK    2  A    between atoms: N_5  and  C_6 
REMARK    3  A    between atoms: C_6  and  C_7 
REMARK    4  A    between atoms: N_23  and  C_24 
REMARK    5  A    between atoms: C_24  and  C_25 
REMARK       I    between atoms: C_25  and  N_26 
REMARK    6  A    between atoms: N_26  and  C_27 
REMARK    7  A    between atoms: C_29  and  C_30 
ROOT
HETATM    1  C   UNL     1      25.151  45.324  49.550  1.00  0.00     0.051 C 
HETATM    2  C   UNL     1      24.734  43.907  49.299  1.00  0.00    -0.021 C 
HETATM    3  C   UNL     1      23.467  43.518  48.861  1.00  0.00     0.081 C 
HETATM    4  S   UNL     1      23.396  41.824  48.578  1.00  0.00    -0.063 SA
HETATM    5  C   UNL     1      24.963  41.573  49.179  1.00  0.00     0.116 A 
HETATM    6  C   UNL     1      25.562  42.754  49.557  1.00  0.00     0.075 A 
HETATM    7  C   UNL     1      26.881  42.661  50.165  1.00  0.00     0.262 A 
HETATM    8  O   UNL     1      27.547  43.639  50.507  1.00  0.00    -0.267 OA
HETATM    9  N   UNL     1      27.335  41.356  50.348  1.00  0.00    -0.299 N 
HETATM   10  C   UNL     1      26.640  40.271  49.855  1.00  0.00     0.214 A 
HETATM   11  N   UNL     1      25.486  40.324  49.273  1.00  0.00    -0.235 NA
ENDROOT
BRANCH   3  12
HETATM   12  C   UNL     1      22.280  44.354  48.670  1.00  0.00     0.259 C 
HETATM   13  N   UNL     1      22.326  45.240  47.613  1.00  0.00    -0.354 N 
HETATM   14  H   UNL     1      23.207  45.358  47.125  1.00  0.00     0.162 HD
HETATM   15  O   UNL     1      21.270  44.270  49.367  1.00  0.00    -0.267 OA
BRANCH  13  16
HETATM   16  C   UNL     1      21.201  46.083  47.251  1.00  0.00     0.157 C 
BRANCH  16  17
HETATM   17  C   UNL     1      20.940  47.206  48.261  1.00  0.00     0.171 C 
HETATM   18  O   UNL     1      20.945  48.456  47.545  1.00  0.00    -0.339 OA
HETATM   19  C   UNL     1      20.422  49.472  48.302  1.00  0.00     0.102 A 
HETATM   20  C   UNL     1      19.652  49.254  49.449  1.00  0.00     0.102 A 
HETATM   21  C   UNL     1      20.678  50.771  47.871  1.00  0.00     0.039 A 
HETATM   22  O   UNL     1      19.334  48.005  49.916  1.00  0.00    -0.346 OA
HETATM   23  C   UNL     1      19.171  50.336  50.183  1.00  0.00     0.039 A 
HETATM   24  C   UNL     1      19.582  46.998  48.929  1.00  0.00     0.209 C 
HETATM   25  C   UNL     1      19.440  51.639  49.758  1.00  0.00     0.003 A 
HETATM   26  C   UNL     1      20.189  51.856  48.601  1.00  0.00     0.003 A 
ENDBRANCH  16  17
ENDBRANCH  13  16
ENDBRANCH   3  12
BRANCH   9  27
HETATM   27  C   UNL     1      28.552  41.153  51.112  1.00  0.00     0.236 C 
BRANCH  27  28
HETATM   28  C   UNL     1      28.426  41.752  52.508  1.00  0.00     0.240 C 
HETATM   29  N   UNL     1      29.392  42.709  52.774  1.00  0.00    -0.326 N 
HETATM   30  H   UNL     1      30.185  42.742  52.131  1.00  0.00     0.169 HD
HETATM   31  O   UNL     1      27.560  41.354  53.281  1.00  0.00    -0.271 OA
BRANCH  29  32
HETATM   32  C   UNL     1      29.452  43.577  53.879  1.00  0.00     0.035 A 
HETATM   33  C   UNL     1      28.609  44.679  54.046  1.00  0.00     0.045 A 
HETATM   34  C   UNL     1      28.756  45.538  55.150  1.00  0.00     0.050 A 
HETATM   35  C   UNL     1      29.757  45.269  56.096  1.00  0.00     0.016 A 
HETATM   36  C   UNL     1      30.598  44.171  55.936  1.00  0.00     0.003 A 
HETATM   37  C   UNL     1      30.449  43.334  54.830  1.00  0.00     0.029 A 
BRANCH  34  38
HETATM   38  C   UNL     1      27.863  46.742  55.325  1.00  0.00     0.417 C 
HETATM   39  F   UNL     1      28.301  47.856  54.677  1.00  0.00    -0.166 F 
HETATM   40  F   UNL     1      26.596  46.521  54.876  1.00  0.00    -0.166 F 
HETATM   41  F   UNL     1      27.735  47.103  56.634  1.00  0.00    -0.166 F 
ENDBRANCH  34  38
ENDBRANCH  29  32
ENDBRANCH  27  28
ENDBRANCH   9  27
TORSDOF 7
ENDMDL
MODEL 6
REMARK VINA RESULT:     -10.5      5.921     12.440
REMARK  7 active torsions:
REMARK  status: ('A' for Active; 'I' for Inactive)
REMARK    1  A    between atoms: C_3  and  C_4 
REMARK       I    between atoms: C_4  and  N_5 
REMARK    2  A    between atoms: N_5  and  C_6 
REMARK    3  A    between atoms: C_6  and  C_7 
REMARK    4  A    between atoms: N_23  and  C_24 
REMARK    5  A    between atoms: C_24  and  C_25 
REMARK       I    between atoms: C_25  and  N_26 
REMARK    6  A    between atoms: N_26  and  C_27 
REMARK    7  A    between atoms: C_29  and  C_30 
ROOT
HETATM    1  C   UNL     1      23.699  42.732  48.863  1.00  0.00     0.051 C 
HETATM    2  C   UNL     1      23.945  44.192  49.096  1.00  0.00    -0.021 C 
HETATM    3  C   UNL     1      25.111  44.722  49.651  1.00  0.00     0.081 C 
HETATM    4  S   UNL     1      25.076  46.440  49.657  1.00  0.00    -0.063 SA
HETATM    5  C   UNL     1      23.478  46.493  49.088  1.00  0.00     0.116 A 
HETATM    6  C   UNL     1      22.976  45.233  48.852  1.00  0.00     0.075 A 
HETATM    7  C   UNL     1      21.583  45.142  48.437  1.00  0.00     0.262 A 
HETATM    8  O   UNL     1      21.023  44.084  48.151  1.00  0.00    -0.267 OA
HETATM    9  N   UNL     1      20.918  46.365  48.401  1.00  0.00    -0.299 N 
HETATM   10  C   UNL     1      21.581  47.558  48.606  1.00  0.00     0.214 A 
HETATM   11  N   UNL     1      22.827  47.674  48.935  1.00  0.00    -0.235 NA
ENDROOT
BRANCH   3  12
HETATM   12  C   UNL     1      26.255  44.000  50.213  1.00  0.00     0.259 C 
HETATM   13  N   UNL     1      26.129  43.592  51.526  1.00  0.00    -0.354 N 
HETATM   14  H   UNL     1      25.332  43.925  52.056  1.00  0.00     0.162 HD
HETATM   15  O   UNL     1      27.267  43.724  49.571  1.00  0.00    -0.267 OA
BRANCH  13  16
HETATM   16  C   UNL     1      27.146  42.806  52.200  1.00  0.00     0.157 C 
BRANCH  16  17
HETATM   17  C   UNL     1      27.557  43.387  53.556  1.00  0.00     0.171 C 
HETATM   18  O   UNL     1      28.937  43.042  53.786  1.00  0.00    -0.339 OA
HETATM   19  C   UNL     1      29.473  43.771  54.816  1.00  0.00     0.102 A 
HETATM   20  C   UNL     1      28.887  44.938  55.315  1.00  0.00     0.102 A 
HETATM   21  C   UNL     1      30.669  43.303  55.359  1.00  0.00     0.039 A 
HETATM   22  O   UNL     1      27.729  45.473  54.812  1.00  0.00    -0.346 OA
HETATM   23  C   UNL     1      29.477  45.615  56.380  1.00  0.00     0.039 A 
HETATM   24  C   UNL     1      27.400  44.907  53.539  1.00  0.00     0.209 C 
HETATM   25  C   UNL     1      30.668  45.139  56.933  1.00  0.00     0.003 A 
HETATM   26  C   UNL     1      31.265  43.987  56.420  1.00  0.00     0.003 A 
ENDBRANCH  16  17
ENDBRANCH  13  16
ENDBRANCH   3  12
BRANCH   9  27
HETATM   27  C   UNL     1      19.484  46.361  48.180  1.00  0.00     0.236 C 
BRANCH  27  28
HETATM   28  C   UNL     1      18.978  47.762  47.851  1.00  0.00     0.240 C 
HETATM   29  N   UNL     1      18.908  48.585  48.962  1.00  0.00    -0.326 N 
HETATM   30  H   UNL     1      18.974  48.125  49.871  1.00  0.00     0.169 HD
HETATM   31  O   UNL     1      18.647  48.051  46.705  1.00  0.00    -0.271 OA
BRANCH  29  32
HETATM   32  C   UNL     1      18.664  49.971  48.983  1.00  0.00     0.035 A 
HETATM   33  C   UNL     1      17.433  50.537  49.324  1.00  0.00     0.045 A 
HETATM   34  C   UNL     1      17.242  51.929  49.274  1.00  0.00     0.050 A 
HETATM   35  C   UNL     1      18.310  52.752  48.888  1.00  0.00     0.016 A 
HETATM   36  C   UNL     1      19.540  52.194  48.550  1.00  0.00     0.003 A 
HETATM   37  C   UNL     1      19.713  50.811  48.591  1.00  0.00     0.029 A 
BRANCH  34  38
HETATM   38  C   UNL     1      15.908  52.545  49.621  1.00  0.00     0.417 C 
HETATM   39  F   UNL     1      14.888  51.647  49.704  1.00  0.00    -0.166 F 
HETATM   40  F   UNL     1      15.931  53.198  50.816  1.00  0.00    -0.166 F 
HETATM   41  F   UNL     1      15.512  53.470  48.700  1.00  0.00    -0.166 F 
ENDBRANCH  34  38
ENDBRANCH  29  32
ENDBRANCH  27  28
ENDBRANCH   9  27
TORSDOF 7
ENDMDL
MODEL 7
REMARK VINA RESULT:     -10.5      6.307     12.969
REMARK  7 active torsions:
REMARK  status: ('A' for Active; 'I' for Inactive)
REMARK    1  A    between atoms: C_3  and  C_4 
REMARK       I    between atoms: C_4  and  N_5 
REMARK    2  A    between atoms: N_5  and  C_6 
REMARK    3  A    between atoms: C_6  and  C_7 
REMARK    4  A    between atoms: N_23  and  C_24 
REMARK    5  A    between atoms: C_24  and  C_25 
REMARK       I    between atoms: C_25  and  N_26 
REMARK    6  A    between atoms: N_26  and  C_27 
REMARK    7  A    between atoms: C_29  and  C_30 
ROOT
HETATM    1  C   UNL     1      25.879  47.169  51.339  1.00  0.00     0.051 C 
HETATM    2  C   UNL     1      25.117  46.277  50.405  1.00  0.00    -0.021 C 
HETATM    3  C   UNL     1      25.404  44.929  50.186  1.00  0.00     0.081 C 
HETATM    4  S   UNL     1      24.248  44.207  49.138  1.00  0.00    -0.063 SA
HETATM    5  C   UNL     1      23.470  45.685  48.840  1.00  0.00     0.116 A 
HETATM    6  C   UNL     1      24.041  46.717  49.551  1.00  0.00     0.075 A 
HETATM    7  C   UNL     1      23.512  48.053  49.317  1.00  0.00     0.262 A 
HETATM    8  O   UNL     1      23.900  49.056  49.918  1.00  0.00    -0.267 OA
HETATM    9  N   UNL     1      22.526  48.113  48.335  1.00  0.00    -0.299 N 
HETATM   10  C   UNL     1      22.012  46.972  47.753  1.00  0.00     0.214 A 
HETATM   11  N   UNL     1      22.432  45.768  47.970  1.00  0.00    -0.235 NA
ENDROOT
BRANCH   3  12
HETATM   12  C   UNL     1      26.529  44.147  50.702  1.00  0.00     0.259 C 
HETATM   13  N   UNL     1      26.480  43.827  52.044  1.00  0.00    -0.354 N 
HETATM   14  H   UNL     1      25.759  44.255  52.613  1.00  0.00     0.162 HD
HETATM   15  O   UNL     1      27.459  43.750  50.002  1.00  0.00    -0.267 OA
BRANCH  13  16
HETATM   16  C   UNL     1      27.484  42.997  52.686  1.00  0.00     0.157 C 
BRANCH  16  17
HETATM   17  C   UNL     1      27.919  43.528  54.056  1.00  0.00     0.171 C 
HETATM   18  O   UNL     1      29.249  43.040  54.319  1.00  0.00    -0.339 OA
HETATM   19  C   UNL     1      29.831  43.705  55.366  1.00  0.00     0.102 A 
HETATM   20  C   UNL     1      29.358  44.925  55.857  1.00  0.00     0.102 A 
HETATM   21  C   UNL     1      30.956  43.113  55.937  1.00  0.00     0.039 A 
HETATM   22  O   UNL     1      28.275  45.580  55.329  1.00  0.00    -0.346 OA
HETATM   23  C   UNL     1      29.987  45.533  56.942  1.00  0.00     0.039 A 
HETATM   24  C   UNL     1      27.922  45.056  54.044  1.00  0.00     0.209 C 
HETATM   25  C   UNL     1      31.106  44.933  57.522  1.00  0.00     0.003 A 
HETATM   26  C   UNL     1      31.593  43.726  57.017  1.00  0.00     0.003 A 
ENDBRANCH  16  17
ENDBRANCH  13  16
ENDBRANCH   3  12
BRANCH   9  27
HETATM   27  C   UNL     1      22.068  49.420  47.900  1.00  0.00     0.236 C 
BRANCH  27  28
HETATM   28  C   UNL     1      20.731  49.771  48.543  1.00  0.00     0.240 C 
HETATM   29  N   UNL     1      20.208  50.967  48.081  1.00  0.00    -0.326 N 
HETATM   30  H   UNL     1      20.848  51.571  47.562  1.00  0.00     0.169 HD
HETATM   31  O   UNL     1      20.244  49.045  49.404  1.00  0.00    -0.271 OA
BRANCH  29  32
HETATM   32  C   UNL     1      18.923  51.487  48.323  1.00  0.00     0.035 A 
HETATM   33  C   UNL     1      17.924  51.573  47.350  1.00  0.00     0.045 A 
HETATM   34  C   UNL     1      16.677  52.152  47.646  1.00  0.00     0.050 A 
HETATM   35  C   UNL     1      16.439  52.635  48.941  1.00  0.00     0.016 A 
HETATM   36  C   UNL     1      17.429  52.550  49.917  1.00  0.00     0.003 A 
HETATM   37  C   UNL     1      18.667  51.984  49.606  1.00  0.00     0.029 A 
BRANCH  34  38
HETATM   38  C   UNL     1      15.602  52.267  46.594  1.00  0.00     0.417 C 
HETATM   39  F   UNL     1      15.998  52.919  45.466  1.00  0.00    -0.166 F 
HETATM   40  F   UNL     1      15.143  51.052  46.182  1.00  0.00    -0.166 F 
HETATM   41  F   UNL     1      14.507  52.943  47.046  1.00  0.00    -0.166 F 
ENDBRANCH  34  38
ENDBRANCH  29  32
ENDBRANCH  27  28
ENDBRANCH   9  27
TORSDOF 7
ENDMDL
MODEL 8
REMARK VINA RESULT:     -10.4      2.051      2.855
REMARK  7 active torsions:
REMARK  status: ('A' for Active; 'I' for Inactive)
REMARK    1  A    between atoms: C_3  and  C_4 
REMARK       I    between atoms: C_4  and  N_5 
REMARK    2  A    between atoms: N_5  and  C_6 
REMARK    3  A    between atoms: C_6  and  C_7 
REMARK    4  A    between atoms: N_23  and  C_24 
REMARK    5  A    between atoms: C_24  and  C_25 
REMARK       I    between atoms: C_25  and  N_26 
REMARK    6  A    between atoms: N_26  and  C_27 
REMARK    7  A    between atoms: C_29  and  C_30 
ROOT
HETATM    1  C   UNL     1      22.837  43.008  49.247  1.00  0.00     0.051 C 
HETATM    2  C   UNL     1      23.598  44.250  49.602  1.00  0.00    -0.021 C 
HETATM    3  C   UNL     1      23.239  45.540  49.209  1.00  0.00     0.081 C 
HETATM    4  S   UNL     1      24.284  46.717  49.899  1.00  0.00    -0.063 SA
HETATM    5  C   UNL     1      25.301  45.539  50.576  1.00  0.00     0.116 A 
HETATM    6  C   UNL     1      24.846  44.264  50.327  1.00  0.00     0.075 A 
HETATM    7  C   UNL     1      25.678  43.162  50.788  1.00  0.00     0.262 A 
HETATM    8  O   UNL     1      25.368  41.977  50.670  1.00  0.00    -0.267 OA
HETATM    9  N   UNL     1      26.880  43.559  51.370  1.00  0.00    -0.299 N 
HETATM   10  C   UNL     1      27.166  44.889  51.607  1.00  0.00     0.214 A 
HETATM   11  N   UNL     1      26.428  45.888  51.247  1.00  0.00    -0.235 NA
ENDROOT
BRANCH   3  12
HETATM   12  C   UNL     1      22.158  45.944  48.308  1.00  0.00     0.259 C 
HETATM   13  N   UNL     1      20.886  45.933  48.844  1.00  0.00    -0.354 N 
HETATM   14  H   UNL     1      20.757  45.526  49.763  1.00  0.00     0.162 HD
HETATM   15  O   UNL     1      22.341  46.312  47.148  1.00  0.00    -0.267 OA
BRANCH  13  16
HETATM   16  C   UNL     1      19.721  46.375  48.098  1.00  0.00     0.157 C 
BRANCH  16  17
HETATM   17  C   UNL     1      19.087  47.648  48.670  1.00  0.00     0.171 C 
HETATM   18  O   UNL     1      19.858  48.773  48.206  1.00  0.00    -0.339 OA
HETATM   19  C   UNL     1      19.196  49.956  48.409  1.00  0.00     0.102 A 
HETATM   20  C   UNL     1      17.825  50.030  48.676  1.00  0.00     0.102 A 
HETATM   21  C   UNL     1      19.954  51.121  48.327  1.00  0.00     0.039 A 
HETATM   22  O   UNL     1      17.011  48.928  48.743  1.00  0.00    -0.346 OA
HETATM   23  C   UNL     1      17.222  51.266  48.896  1.00  0.00     0.039 A 
HETATM   24  C   UNL     1      17.645  47.773  48.183  1.00  0.00     0.209 C 
HETATM   25  C   UNL     1      17.985  52.434  48.826  1.00  0.00     0.003 A 
HETATM   26  C   UNL     1      19.348  52.361  48.538  1.00  0.00     0.003 A 
ENDBRANCH  16  17
ENDBRANCH  13  16
ENDBRANCH   3  12
BRANCH   9  27
HETATM   27  C   UNL     1      27.858  42.537  51.693  1.00  0.00     0.236 C 
BRANCH  27  28
HETATM   28  C   UNL     1      28.200  42.560  53.179  1.00  0.00     0.240 C 
HETATM   29  N   UNL     1      29.359  43.266  53.454  1.00  0.00    -0.326 N 
HETATM   30  H   UNL     1      29.957  43.486  52.656  1.00  0.00     0.169 HD
HETATM   31  O   UNL     1      27.500  41.960  53.989  1.00  0.00    -0.271 OA
BRANCH  29  32
HETATM   32  C   UNL     1      29.853  43.635  54.719  1.00  0.00     0.035 A 
HETATM   33  C   UNL     1      29.295  44.646  55.506  1.00  0.00     0.045 A 
HETATM   34  C   UNL     1      29.870  45.000  56.739  1.00  0.00     0.050 A 
HETATM   35  C   UNL     1      31.011  44.315  57.182  1.00  0.00     0.016 A 
HETATM   36  C   UNL     1      31.571  43.305  56.404  1.00  0.00     0.003 A 
HETATM   37  C   UNL     1      30.998  42.972  55.176  1.00  0.00     0.029 A 
BRANCH  34  38
HETATM   38  C   UNL     1      29.285  46.105  57.584  1.00  0.00     0.417 C 
HETATM   39  F   UNL     1      28.396  45.675  58.521  1.00  0.00    -0.166 F 
HETATM   40  F   UNL     1      30.237  46.802  58.263  1.00  0.00    -0.166 F 
HETATM   41  F   UNL     1      28.614  47.027  56.835  1.00  0.00    -0.166 F 
ENDBRANCH  34  38
ENDBRANCH  29  32
ENDBRANCH  27  28
ENDBRANCH   9  27
TORSDOF 7
ENDMDL
MODEL 9
REMARK VINA RESULT:     -10.3      5.892     12.654
REMARK  7 active torsions:
REMARK  status: ('A' for Active; 'I' for Inactive)
REMARK    1  A    between atoms: C_3  and  C_4 
REMARK       I    between atoms: C_4  and  N_5 
REMARK    2  A    between atoms: N_5  and  C_6 
REMARK    3  A    between atoms: C_6  and  C_7 
REMARK    4  A    between atoms: N_23  and  C_24 
REMARK    5  A    between atoms: C_24  and  C_25 
REMARK       I    between atoms: C_25  and  N_26 
REMARK    6  A    between atoms: N_26  and  C_27 
REMARK    7  A    between atoms: C_29  and  C_30 
ROOT
HETATM    1  C   UNL     1      22.810  45.219  49.147  1.00  0.00     0.051 C 
HETATM    2  C   UNL     1      23.871  46.200  49.545  1.00  0.00    -0.021 C 
HETATM    3  C   UNL     1      24.861  45.954  50.498  1.00  0.00     0.081 C 
HETATM    4  S   UNL     1      25.965  47.267  50.605  1.00  0.00    -0.063 SA
HETATM    5  C   UNL     1      25.063  48.223  49.532  1.00  0.00     0.116 A 
HETATM    6  C   UNL     1      23.957  47.555  49.056  1.00  0.00     0.075 A 
HETATM    7  C   UNL     1      23.057  48.300  48.187  1.00  0.00     0.262 A 
HETATM    8  O   UNL     1      22.058  47.811  47.658  1.00  0.00    -0.267 OA
HETATM    9  N   UNL     1      23.411  49.635  48.009  1.00  0.00    -0.299 N 
HETATM   10  C   UNL     1      24.594  50.144  48.506  1.00  0.00     0.214 A 
HETATM   11  N   UNL     1      25.434  49.496  49.245  1.00  0.00    -0.235 NA
ENDROOT
BRANCH   3  12
HETATM   12  C   UNL     1      25.011  44.784  51.366  1.00  0.00     0.259 C 
HETATM   13  N   UNL     1      26.306  44.379  51.620  1.00  0.00    -0.354 N 
HETATM   14  H   UNL     1      27.056  44.816  51.096  1.00  0.00     0.162 HD
HETATM   15  O   UNL     1      24.063  44.197  51.885  1.00  0.00    -0.267 OA
BRANCH  13  16
HETATM   16  C   UNL     1      26.619  43.282  52.518  1.00  0.00     0.157 C 
BRANCH  16  17
HETATM   17  C   UNL     1      27.257  43.743  53.832  1.00  0.00     0.171 C 
HETATM   18  O   UNL     1      28.583  43.184  53.901  1.00  0.00    -0.339 OA
HETATM   19  C   UNL     1      29.332  43.783  54.880  1.00  0.00     0.102 A 
HETATM   20  C   UNL     1      28.991  45.006  55.465  1.00  0.00     0.102 A 
HETATM   21  C   UNL     1      30.491  43.119  55.277  1.00  0.00     0.039 A 
HETATM   22  O   UNL     1      27.883  45.729  55.105  1.00  0.00    -0.346 OA
HETATM   23  C   UNL     1      29.788  45.544  56.473  1.00  0.00     0.039 A 
HETATM   24  C   UNL     1      27.337  45.268  53.865  1.00  0.00     0.209 C 
HETATM   25  C   UNL     1      30.942  44.873  56.881  1.00  0.00     0.003 A 
HETATM   26  C   UNL     1      31.295  43.663  56.280  1.00  0.00     0.003 A 
ENDBRANCH  16  17
ENDBRANCH  13  16
ENDBRANCH   3  12
BRANCH   9  27
HETATM   27  C   UNL     1      22.481  50.505  47.314  1.00  0.00     0.236 C 
BRANCH  27  28
HETATM   28  C   UNL     1      21.166  50.619  48.077  1.00  0.00     0.240 C 
HETATM   29  N   UNL     1      20.055  50.519  47.256  1.00  0.00    -0.326 N 
HETATM   30  H   UNL     1      20.224  50.611  46.253  1.00  0.00     0.169 HD
HETATM   31  O   UNL     1      21.164  50.819  49.288  1.00  0.00    -0.271 OA
BRANCH  29  32
HETATM   32  C   UNL     1      18.710  50.399  47.652  1.00  0.00     0.035 A 
HETATM   33  C   UNL     1      17.969  51.444  48.211  1.00  0.00     0.045 A 
HETATM   34  C   UNL     1      16.643  51.241  48.633  1.00  0.00     0.050 A 
HETATM   35  C   UNL     1      16.062  49.975  48.473  1.00  0.00     0.016 A 
HETATM   36  C   UNL     1      16.794  48.930  47.914  1.00  0.00     0.003 A 
HETATM   37  C   UNL     1      18.113  49.141  47.511  1.00  0.00     0.029 A 
BRANCH  34  38
HETATM   38  C   UNL     1      15.845  52.359  49.258  1.00  0.00     0.417 C 
HETATM   39  F   UNL     1      15.342  53.250  48.360  1.00  0.00    -0.166 F 
HETATM   40  F   UNL     1      14.778  51.902  49.971  1.00  0.00    -0.166 F 
HETATM   41  F   UNL     1      16.587  53.097  50.133  1.00  0.00    -0.166 F 
ENDBRANCH  34  38
ENDBRANCH  29  32
ENDBRANCH  27  28
ENDBRANCH   9  27
TORSDOF 7
ENDMDL
MODEL 10
REMARK VINA RESULT:     -10.2      2.631      4.457
REMARK  7 active torsions:
REMARK  status: ('A' for Active; 'I' for Inactive)
REMARK    1  A    between atoms: C_3  and  C_4 
REMARK       I    between atoms: C_4  and  N_5 
REMARK    2  A    between atoms: N_5  and  C_6 
REMARK    3  A    between atoms: C_6  and  C_7 
REMARK    4  A    between atoms: N_23  and  C_24 
REMARK    5  A    between atoms: C_24  and  C_25 
REMARK       I    between atoms: C_25  and  N_26 
REMARK    6  A    between atoms: N_26  and  C_27 
REMARK    7  A    between atoms: C_29  and  C_30 
ROOT
HETATM    1  C   UNL     1      19.497  46.796  47.638  1.00  0.00     0.051 C 
HETATM    2  C   UNL     1      20.459  47.838  48.122  1.00  0.00    -0.021 C 
HETATM    3  C   UNL     1      20.254  49.215  48.021  1.00  0.00     0.081 C 
HETATM    4  S   UNL     1      21.520  50.092  48.785  1.00  0.00    -0.063 SA
HETATM    5  C   UNL     1      22.416  48.687  49.104  1.00  0.00     0.116 A 
HETATM    6  C   UNL     1      21.759  47.553  48.680  1.00  0.00     0.075 A 
HETATM    7  C   UNL     1      22.464  46.288  48.825  1.00  0.00     0.262 A 
HETATM    8  O   UNL     1      21.976  45.197  48.528  1.00  0.00    -0.267 OA
HETATM    9  N   UNL     1      23.760  46.409  49.320  1.00  0.00    -0.299 N 
HETATM   10  C   UNL     1      24.257  47.619  49.762  1.00  0.00     0.214 A 
HETATM   11  N   UNL     1      23.640  48.753  49.686  1.00  0.00    -0.235 NA
ENDROOT
BRANCH   3  12
HETATM   12  C   UNL     1      19.162  49.920  47.348  1.00  0.00     0.259 C 
HETATM   13  N   UNL     1      17.950  49.932  48.008  1.00  0.00    -0.354 N 
HETATM   14  H   UNL     1      17.848  49.352  48.833  1.00  0.00     0.162 HD
HETATM   15  O   UNL     1      19.292  50.510  46.276  1.00  0.00    -0.267 OA
BRANCH  13  16
HETATM   16  C   UNL     1      16.794  50.651  47.504  1.00  0.00     0.157 C 
BRANCH  16  17
HETATM   17  C   UNL     1      16.597  52.018  48.168  1.00  0.00     0.171 C 
HETATM   18  O   UNL     1      15.277  52.488  47.831  1.00  0.00    -0.339 OA
HETATM   19  C   UNL     1      14.902  53.544  48.620  1.00  0.00     0.102 A 
HETATM   20  C   UNL     1      15.543  53.870  49.819  1.00  0.00     0.102 A 
HETATM   21  C   UNL     1      13.817  54.300  48.182  1.00  0.00     0.039 A 
HETATM   22  O   UNL     1      16.598  53.155  50.327  1.00  0.00    -0.346 OA
HETATM   23  C   UNL     1      15.123  54.973  50.558  1.00  0.00     0.039 A 
HETATM   24  C   UNL     1      16.726  51.883  49.684  1.00  0.00     0.209 C 
HETATM   25  C   UNL     1      14.044  55.739  50.113  1.00  0.00     0.003 A 
HETATM   26  C   UNL     1      13.389  55.400  48.927  1.00  0.00     0.003 A 
ENDBRANCH  16  17
ENDBRANCH  13  16
ENDBRANCH   3  12
BRANCH   9  27
HETATM   27  C   UNL     1      24.606  45.230  49.327  1.00  0.00     0.236 C 
BRANCH  27  28
HETATM   28  C   UNL     1      24.989  44.843  50.751  1.00  0.00     0.240 C 
HETATM   29  N   UNL     1      26.349  44.947  50.992  1.00  0.00    -0.326 N 
HETATM   30  H   UNL     1      26.948  45.040  50.170  1.00  0.00     0.169 HD
HETATM   31  O   UNL     1      24.136  44.449  51.541  1.00  0.00    -0.271 OA
BRANCH  29  32
HETATM   32  C   UNL     1      27.007  44.845  52.232  1.00  0.00     0.035 A 
HETATM   33  C   UNL     1      27.972  43.877  52.520  1.00  0.00     0.045 A 
HETATM   34  C   UNL     1      28.554  43.799  53.798  1.00  0.00     0.050 A 
HETATM   35  C   UNL     1      28.162  44.716  54.785  1.00  0.00     0.016 A 
HETATM   36  C   UNL     1      27.202  45.685  54.502  1.00  0.00     0.003 A 
HETATM   37  C   UNL     1      26.624  45.744  53.234  1.00  0.00     0.029 A 
BRANCH  34  38
HETATM   38  C   UNL     1      29.581  42.743  54.123  1.00  0.00     0.417 C 
HETATM   39  F   UNL     1      30.615  42.685  53.240  1.00  0.00    -0.166 F 
HETATM   40  F   UNL     1      30.146  42.925  55.349  1.00  0.00    -0.166 F 
HETATM   41  F   UNL     1      29.044  41.489  54.146  1.00  0.00    -0.166 F 
ENDBRANCH  34  38
ENDBRANCH  29  32
ENDBRANCH  27  28
ENDBRANCH   9  27
TORSDOF 7
ENDMDL
