MODEL 1
REMARK VINA RESULT:      -8.1      0.000      0.000
REMARK  8 active torsions:
REMARK  status: ('A' for Active; 'I' for Inactive)
REMARK    1  A    between atoms: C_2  and  O_3 
REMARK    2  A    between atoms: O_3  and  C_4 
REMARK    3  A    between atoms: C_4  and  C_5 
REMARK    4  A    between atoms: C_5  and  C_6 
REMARK    5  A    between atoms: C_6  and  N_7 
REMARK    6  A    between atoms: C_12  and  C_13 
REMARK    7  A    between atoms: C_23  and  C_24 
REMARK    8  A    between atoms: C_25  and  O_26 
ROOT
HETATM    1  N   UNL     1      27.190  43.619  53.599  1.00  0.00    -0.334 N 
HETATM    2  C   UNL     1      28.323  42.797  53.513  1.00  0.00     0.273 A 
HETATM    3  O   UNL     1      29.239  42.666  54.301  1.00  0.00    -0.266 OA
HETATM    4  C   UNL     1      28.147  42.126  52.279  1.00  0.00     0.129 A 
HETATM    5  C   UNL     1      27.004  42.495  51.636  1.00  0.00     0.034 A 
HETATM    6  C   UNL     1      26.271  43.505  52.428  1.00  0.00     0.159 A 
HETATM    7  N   UNL     1      28.776  41.219  51.516  1.00  0.00    -0.272 N 
HETATM    8  H   UNL     1      29.658  40.744  51.678  1.00  0.00     0.189 HD
HETATM    9  N   UNL     1      28.068  40.944  50.391  1.00  0.00    -0.173 NA
HETATM   10  C   UNL     1      26.967  41.729  50.462  1.00  0.00     0.101 A 
ENDROOT
BRANCH  10  11
HETATM   11  C   UNL     1      25.943  41.709  49.424  1.00  0.00     0.028 A 
HETATM   12  C   UNL     1      26.260  41.569  48.065  1.00  0.00     0.078 A 
HETATM   13  C   UNL     1      25.258  41.467  47.101  1.00  0.00     0.037 A 
HETATM   14  C   UNL     1      23.919  41.544  47.483  1.00  0.00     0.003 A 
HETATM   15  C   UNL     1      23.586  41.721  48.826  1.00  0.00     0.001 A 
HETATM   16  C   UNL     1      24.593  41.801  49.791  1.00  0.00     0.017 A 
BRANCH  12  17
HETATM   17  O   UNL     1      27.551  41.568  47.605  1.00  0.00    -0.360 OA
HETATM   18  H   UNL     1      27.904  42.458  47.783  1.00  0.00     0.217 HD
ENDBRANCH  12  17
ENDBRANCH  10  11
BRANCH   6  19
HETATM   19  C   UNL     1      26.156  44.757  51.593  1.00  0.00    -0.031 A 
HETATM   20  C   UNL     1      25.142  45.684  51.891  1.00  0.00     0.011 A 
HETATM   21  C   UNL     1      25.007  46.863  51.152  1.00  0.00     0.024 A 
HETATM   22  C   UNL     1      25.884  47.125  50.103  1.00  0.00     0.034 A 
HETATM   23 CL   UNL     1      25.721  48.579  49.196  1.00  0.00    -0.084 Cl
HETATM   24  C   UNL     1      26.890  46.219  49.784  1.00  0.00     0.024 A 
HETATM   25  C   UNL     1      27.026  45.041  50.524  1.00  0.00     0.011 A 
ENDBRANCH   6  19
BRANCH   1  26
HETATM   26  C   UNL     1      26.912  44.480  54.737  1.00  0.00     0.129 C 
BRANCH  26  27
HETATM   27  C   UNL     1      27.745  45.765  54.755  1.00  0.00     0.046 C 
BRANCH  27  28
HETATM   28  C   UNL     1      28.564  45.925  56.031  1.00  0.00     0.169 C 
BRANCH  28  29
HETATM   29  O   UNL     1      29.927  45.626  55.744  1.00  0.00    -0.387 OA
BRANCH  29  30
HETATM   30  C   UNL     1      30.727  45.397  56.907  1.00  0.00     0.113 C 
HETATM   31  C   UNL     1      31.185  43.944  56.983  1.00  0.00     0.039 C 
HETATM   32  C   UNL     1      29.867  45.747  58.115  1.00  0.00     0.039 C 
ENDBRANCH  29  30
ENDBRANCH  28  29
ENDBRANCH  27  28
ENDBRANCH  26  27
ENDBRANCH   1  26
TORSDOF 8
ENDMDL
MODEL 2
REMARK VINA RESULT:      -7.9      5.635      8.909
REMARK  8 active torsions:
REMARK  status: ('A' for Active; 'I' for Inactive)
REMARK    1  A    between atoms: C_2  and  O_3 
REMARK    2  A    between atoms: O_3  and  C_4 
REMARK    3  A    between atoms: C_4  and  C_5 
REMARK    4  A    between atoms: C_5  and  C_6 
REMARK    5  A    between atoms: C_6  and  N_7 
REMARK    6  A    between atoms: C_12  and  C_13 
REMARK    7  A    between atoms: C_23  and  C_24 
REMARK    8  A    between atoms: C_25  and  O_26 
ROOT
HETATM    1  N   UNL     1      22.671  48.885  48.466  1.00  0.00    -0.334 N 
HETATM    2  C   UNL     1      23.685  49.721  47.977  1.00  0.00     0.273 A 
HETATM    3  O   UNL     1      23.602  50.673  47.225  1.00  0.00    -0.266 OA
HETATM    4  C   UNL     1      24.855  49.203  48.582  1.00  0.00     0.129 A 
HETATM    5  C   UNL     1      24.605  48.129  49.382  1.00  0.00     0.034 A 
HETATM    6  C   UNL     1      23.161  47.813  49.382  1.00  0.00     0.159 A 
HETATM    7  N   UNL     1      26.175  49.440  48.611  1.00  0.00    -0.272 N 
HETATM    8  H   UNL     1      26.712  50.151  48.124  1.00  0.00     0.189 HD
HETATM    9  N   UNL     1      26.816  48.573  49.436  1.00  0.00    -0.173 NA
HETATM   10  C   UNL     1      25.846  47.760  49.920  1.00  0.00     0.101 A 
ENDROOT
BRANCH  10  11
HETATM   11  C   UNL     1      26.144  46.687  50.862  1.00  0.00     0.028 A 
HETATM   12  C   UNL     1      26.739  45.483  50.459  1.00  0.00     0.078 A 
HETATM   13  C   UNL     1      27.092  44.510  51.392  1.00  0.00     0.037 A 
HETATM   14  C   UNL     1      26.816  44.714  52.744  1.00  0.00     0.003 A 
HETATM   15  C   UNL     1      26.191  45.889  53.158  1.00  0.00     0.001 A 
HETATM   16  C   UNL     1      25.859  46.872  52.222  1.00  0.00     0.017 A 
BRANCH  12  17
HETATM   17  O   UNL     1      26.966  45.177  49.143  1.00  0.00    -0.360 OA
HETATM   18  H   UNL     1      26.786  44.224  49.049  1.00  0.00     0.217 HD
ENDBRANCH  12  17
ENDBRANCH  10  11
BRANCH   6  19
HETATM   19  C   UNL     1      22.992  46.408  48.855  1.00  0.00    -0.031 A 
HETATM   20  C   UNL     1      23.265  45.324  49.707  1.00  0.00     0.011 A 
HETATM   21  C   UNL     1      23.110  44.006  49.265  1.00  0.00     0.024 A 
HETATM   22  C   UNL     1      22.684  43.760  47.964  1.00  0.00     0.034 A 
HETATM   23 CL   UNL     1      22.488  42.139  47.421  1.00  0.00    -0.084 Cl
HETATM   24  C   UNL     1      22.416  44.817  47.099  1.00  0.00     0.024 A 
HETATM   25  C   UNL     1      22.569  46.134  47.542  1.00  0.00     0.011 A 
ENDBRANCH   6  19
BRANCH   1  26
HETATM   26  C   UNL     1      21.265  49.062  48.141  1.00  0.00     0.129 C 
BRANCH  26  27
HETATM   27  C   UNL     1      20.346  49.076  49.365  1.00  0.00     0.046 C 
BRANCH  27  28
HETATM   28  C   UNL     1      20.208  50.459  49.991  1.00  0.00     0.169 C 
BRANCH  28  29
HETATM   29  O   UNL     1      18.824  50.773  50.115  1.00  0.00    -0.387 OA
BRANCH  29  30
HETATM   30  C   UNL     1      18.508  52.132  49.801  1.00  0.00     0.113 C 
HETATM   31  C   UNL     1      17.000  52.363  49.812  1.00  0.00     0.039 C 
HETATM   32  C   UNL     1      19.080  52.414  48.418  1.00  0.00     0.039 C 
ENDBRANCH  29  30
ENDBRANCH  28  29
ENDBRANCH  27  28
ENDBRANCH  26  27
ENDBRANCH   1  26
TORSDOF 8
ENDMDL
MODEL 3
REMARK VINA RESULT:      -7.7      1.898      2.508
REMARK  8 active torsions:
REMARK  status: ('A' for Active; 'I' for Inactive)
REMARK    1  A    between atoms: C_2  and  O_3 
REMARK    2  A    between atoms: O_3  and  C_4 
REMARK    3  A    between atoms: C_4  and  C_5 
REMARK    4  A    between atoms: C_5  and  C_6 
REMARK    5  A    between atoms: C_6  and  N_7 
REMARK    6  A    between atoms: C_12  and  C_13 
REMARK    7  A    between atoms: C_23  and  C_24 
REMARK    8  A    between atoms: C_25  and  O_26 
ROOT
HETATM    1  N   UNL     1      26.523  43.092  52.419  1.00  0.00    -0.334 N 
HETATM    2  C   UNL     1      26.963  41.875  51.878  1.00  0.00     0.273 A 
HETATM    3  O   UNL     1      27.818  41.114  52.290  1.00  0.00    -0.266 OA
HETATM    4  C   UNL     1      26.158  41.720  50.725  1.00  0.00     0.129 A 
HETATM    5  C   UNL     1      25.286  42.752  50.547  1.00  0.00     0.034 A 
HETATM    6  C   UNL     1      25.441  43.748  51.628  1.00  0.00     0.159 A 
HETATM    7  N   UNL     1      25.983  40.854  49.715  1.00  0.00    -0.272 N 
HETATM    8  H   UNL     1      26.470  39.984  49.523  1.00  0.00     0.189 HD
HETATM    9  N   UNL     1      24.992  41.260  48.881  1.00  0.00    -0.173 NA
HETATM   10  C   UNL     1      24.555  42.435  49.394  1.00  0.00     0.101 A 
ENDROOT
BRANCH  10  11
HETATM   11  C   UNL     1      23.471  43.187  48.771  1.00  0.00     0.028 A 
HETATM   12  C   UNL     1      23.284  43.216  47.382  1.00  0.00     0.078 A 
HETATM   13  C   UNL     1      22.191  43.871  46.818  1.00  0.00     0.037 A 
HETATM   14  C   UNL     1      21.288  44.544  47.640  1.00  0.00     0.003 A 
HETATM   15  C   UNL     1      21.478  44.557  49.021  1.00  0.00     0.001 A 
HETATM   16  C   UNL     1      22.563  43.880  49.584  1.00  0.00     0.017 A 
BRANCH  12  17
HETATM   17  O   UNL     1      24.173  42.649  46.506  1.00  0.00    -0.360 OA
HETATM   18  H   UNL     1      23.760  41.824  46.194  1.00  0.00     0.217 HD
ENDBRANCH  12  17
ENDBRANCH  10  11
BRANCH   6  19
HETATM   19  C   UNL     1      25.830  45.063  50.997  1.00  0.00    -0.031 A 
HETATM   20  C   UNL     1      26.949  45.106  50.146  1.00  0.00     0.011 A 
HETATM   21  C   UNL     1      27.337  46.299  49.530  1.00  0.00     0.024 A 
HETATM   22  C   UNL     1      26.613  47.464  49.763  1.00  0.00     0.034 A 
HETATM   23 CL   UNL     1      27.087  48.932  49.000  1.00  0.00    -0.084 Cl
HETATM   24  C   UNL     1      25.506  47.449  50.607  1.00  0.00     0.024 A 
HETATM   25  C   UNL     1      25.118  46.255  51.221  1.00  0.00     0.011 A 
ENDBRANCH   6  19
BRANCH   1  26
HETATM   26  C   UNL     1      27.046  43.652  53.655  1.00  0.00     0.129 C 
BRANCH  26  27
HETATM   27  C   UNL     1      28.452  44.242  53.518  1.00  0.00     0.046 C 
BRANCH  27  28
HETATM   28  C   UNL     1      29.384  43.828  54.652  1.00  0.00     0.169 C 
BRANCH  28  29
HETATM   29  O   UNL     1      29.409  44.864  55.629  1.00  0.00    -0.387 OA
BRANCH  29  30
HETATM   30  C   UNL     1      30.634  44.937  56.364  1.00  0.00     0.113 C 
HETATM   31  C   UNL     1      31.253  43.554  56.542  1.00  0.00     0.039 C 
HETATM   32  C   UNL     1      30.304  45.551  57.719  1.00  0.00     0.039 C 
ENDBRANCH  29  30
ENDBRANCH  28  29
ENDBRANCH  27  28
ENDBRANCH  26  27
ENDBRANCH   1  26
TORSDOF 8
ENDMDL
MODEL 4
REMARK VINA RESULT:      -7.6      7.425     10.297
REMARK  8 active torsions:
REMARK  status: ('A' for Active; 'I' for Inactive)
REMARK    1  A    between atoms: C_2  and  O_3 
REMARK    2  A    between atoms: O_3  and  C_4 
REMARK    3  A    between atoms: C_4  and  C_5 
REMARK    4  A    between atoms: C_5  and  C_6 
REMARK    5  A    between atoms: C_6  and  N_7 
REMARK    6  A    between atoms: C_12  and  C_13 
REMARK    7  A    between atoms: C_23  and  C_24 
REMARK    8  A    between atoms: C_25  and  O_26 
ROOT
HETATM    1  N   UNL     1      19.996  50.031  49.283  1.00  0.00    -0.334 N 
HETATM    2  C   UNL     1      19.217  49.181  50.082  1.00  0.00     0.273 A 
HETATM    3  O   UNL     1      18.514  49.454  51.036  1.00  0.00    -0.266 OA
HETATM    4  C   UNL     1      19.426  47.907  49.504  1.00  0.00     0.129 A 
HETATM    5  C   UNL     1      20.269  47.943  48.435  1.00  0.00     0.034 A 
HETATM    6  C   UNL     1      20.727  49.327  48.188  1.00  0.00     0.159 A 
HETATM    7  N   UNL     1      19.049  46.632  49.689  1.00  0.00    -0.272 N 
HETATM    8  H   UNL     1      18.440  46.238  50.400  1.00  0.00     0.189 HD
HETATM    9  N   UNL     1      19.591  45.815  48.751  1.00  0.00    -0.173 NA
HETATM   10  C   UNL     1      20.345  46.623  47.968  1.00  0.00     0.101 A 
ENDROOT
BRANCH  10  11
HETATM   11  C   UNL     1      21.090  46.106  46.826  1.00  0.00     0.028 A 
HETATM   12  C   UNL     1      22.231  45.306  46.977  1.00  0.00     0.078 A 
HETATM   13  C   UNL     1      22.874  44.754  45.871  1.00  0.00     0.037 A 
HETATM   14  C   UNL     1      22.403  45.031  44.587  1.00  0.00     0.003 A 
HETATM   15  C   UNL     1      21.291  45.854  44.415  1.00  0.00     0.001 A 
HETATM   16  C   UNL     1      20.637  46.388  45.529  1.00  0.00     0.017 A 
BRANCH  12  17
HETATM   17  O   UNL     1      22.800  45.058  48.199  1.00  0.00    -0.360 OA
HETATM   18  H   UNL     1      22.440  44.204  48.499  1.00  0.00     0.217 HD
ENDBRANCH  12  17
ENDBRANCH  10  11
BRANCH   6  19
HETATM   19  C   UNL     1      22.231  49.349  48.317  1.00  0.00    -0.031 A 
HETATM   20  C   UNL     1      22.961  50.324  47.615  1.00  0.00     0.011 A 
HETATM   21  C   UNL     1      24.354  50.389  47.716  1.00  0.00     0.024 A 
HETATM   22  C   UNL     1      25.032  49.476  48.518  1.00  0.00     0.034 A 
HETATM   23 CL   UNL     1      26.746  49.560  48.647  1.00  0.00    -0.084 Cl
HETATM   24  C   UNL     1      24.332  48.496  49.216  1.00  0.00     0.024 A 
HETATM   25  C   UNL     1      22.939  48.433  49.116  1.00  0.00     0.011 A 
ENDBRANCH   6  19
BRANCH   1  26
HETATM   26  C   UNL     1      20.065  51.469  49.477  1.00  0.00     0.129 C 
BRANCH  26  27
HETATM   27  C   UNL     1      19.041  52.253  48.651  1.00  0.00     0.046 C 
BRANCH  27  28
HETATM   28  C   UNL     1      17.817  52.669  49.459  1.00  0.00     0.169 C 
BRANCH  28  29
HETATM   29  O   UNL     1      16.832  51.645  49.361  1.00  0.00    -0.387 OA
BRANCH  29  30
HETATM   30  C   UNL     1      16.583  51.205  48.023  1.00  0.00     0.113 C 
HETATM   31  C   UNL     1      15.557  52.098  47.332  1.00  0.00     0.039 C 
HETATM   32  C   UNL     1      16.069  49.774  48.113  1.00  0.00     0.039 C 
ENDBRANCH  29  30
ENDBRANCH  28  29
ENDBRANCH  27  28
ENDBRANCH  26  27
ENDBRANCH   1  26
TORSDOF 8
ENDMDL
MODEL 5
REMARK VINA RESULT:      -7.6      5.418      8.681
REMARK  8 active torsions:
REMARK  status: ('A' for Active; 'I' for Inactive)
REMARK    1  A    between atoms: C_2  and  O_3 
REMARK    2  A    between atoms: O_3  and  C_4 
REMARK    3  A    between atoms: C_4  and  C_5 
REMARK    4  A    between atoms: C_5  and  C_6 
REMARK    5  A    between atoms: C_6  and  N_7 
REMARK    6  A    between atoms: C_12  and  C_13 
REMARK    7  A    between atoms: C_23  and  C_24 
REMARK    8  A    between atoms: C_25  and  O_26 
ROOT
HETATM    1  N   UNL     1      22.913  49.364  48.738  1.00  0.00    -0.334 N 
HETATM    2  C   UNL     1      23.952  50.139  48.201  1.00  0.00     0.273 A 
HETATM    3  O   UNL     1      23.890  51.169  47.559  1.00  0.00    -0.266 OA
HETATM    4  C   UNL     1      25.118  49.443  48.598  1.00  0.00     0.129 A 
HETATM    5  C   UNL     1      24.843  48.320  49.320  1.00  0.00     0.034 A 
HETATM    6  C   UNL     1      23.382  48.156  49.478  1.00  0.00     0.159 A 
HETATM    7  N   UNL     1      26.451  49.538  48.477  1.00  0.00    -0.272 N 
HETATM    8  H   UNL     1      27.003  50.238  47.992  1.00  0.00     0.189 HD
HETATM    9  N   UNL     1      27.081  48.527  49.127  1.00  0.00    -0.173 NA
HETATM   10  C   UNL     1      26.088  47.771  49.655  1.00  0.00     0.101 A 
ENDROOT
BRANCH  10  11
HETATM   11  C   UNL     1      26.371  46.579  50.446  1.00  0.00     0.028 A 
HETATM   12  C   UNL     1      26.019  46.479  51.799  1.00  0.00     0.078 A 
HETATM   13  C   UNL     1      26.223  45.297  52.509  1.00  0.00     0.037 A 
HETATM   14  C   UNL     1      26.823  44.206  51.880  1.00  0.00     0.003 A 
HETATM   15  C   UNL     1      27.213  44.300  50.545  1.00  0.00     0.001 A 
HETATM   16  C   UNL     1      26.987  45.479  49.831  1.00  0.00     0.017 A 
BRANCH  12  17
HETATM   17  O   UNL     1      25.502  47.533  52.506  1.00  0.00    -0.360 OA
HETATM   18  H   UNL     1      25.064  48.109  51.854  1.00  0.00     0.217 HD
ENDBRANCH  12  17
ENDBRANCH  10  11
BRANCH   6  19
HETATM   19  C   UNL     1      22.991  46.840  48.850  1.00  0.00    -0.031 A 
HETATM   20  C   UNL     1      22.297  46.849  47.627  1.00  0.00     0.011 A 
HETATM   21  C   UNL     1      21.928  45.654  47.002  1.00  0.00     0.024 A 
HETATM   22  C   UNL     1      22.244  44.437  47.598  1.00  0.00     0.034 A 
HETATM   23 CL   UNL     1      21.794  42.966  46.827  1.00  0.00    -0.084 Cl
HETATM   24  C   UNL     1      22.923  44.402  48.812  1.00  0.00     0.024 A 
HETATM   25  C   UNL     1      23.295  45.598  49.435  1.00  0.00     0.011 A 
ENDBRANCH   6  19
BRANCH   1  26
HETATM   26  C   UNL     1      21.508  49.718  48.617  1.00  0.00     0.129 C 
BRANCH  26  27
HETATM   27  C   UNL     1      21.066  50.825  49.577  1.00  0.00     0.046 C 
BRANCH  27  28
HETATM   28  C   UNL     1      19.640  50.640  50.083  1.00  0.00     0.169 C 
BRANCH  28  29
HETATM   29  O   UNL     1      18.922  49.834  49.153  1.00  0.00    -0.387 OA
BRANCH  29  30
HETATM   30  C   UNL     1      18.217  48.744  49.755  1.00  0.00     0.113 C 
HETATM   31  C   UNL     1      18.600  48.584  51.223  1.00  0.00     0.039 C 
HETATM   32  C   UNL     1      18.581  47.490  48.970  1.00  0.00     0.039 C 
ENDBRANCH  29  30
ENDBRANCH  28  29
ENDBRANCH  27  28
ENDBRANCH  26  27
ENDBRANCH   1  26
TORSDOF 8
ENDMDL
MODEL 6
REMARK VINA RESULT:      -7.6      3.150      5.810
REMARK  8 active torsions:
REMARK  status: ('A' for Active; 'I' for Inactive)
REMARK    1  A    between atoms: C_2  and  O_3 
REMARK    2  A    between atoms: O_3  and  C_4 
REMARK    3  A    between atoms: C_4  and  C_5 
REMARK    4  A    between atoms: C_5  and  C_6 
REMARK    5  A    between atoms: C_6  and  N_7 
REMARK    6  A    between atoms: C_12  and  C_13 
REMARK    7  A    between atoms: C_23  and  C_24 
REMARK    8  A    between atoms: C_25  and  O_26 
ROOT
HETATM    1  N   UNL     1      25.645  43.494  51.135  1.00  0.00    -0.334 N 
HETATM    2  C   UNL     1      25.779  43.966  52.449  1.00  0.00     0.273 A 
HETATM    3  O   UNL     1      25.938  43.339  53.478  1.00  0.00    -0.266 OA
HETATM    4  C   UNL     1      25.700  45.371  52.301  1.00  0.00     0.129 A 
HETATM    5  C   UNL     1      25.525  45.757  51.006  1.00  0.00     0.034 A 
HETATM    6  C   UNL     1      25.468  44.575  50.120  1.00  0.00     0.159 A 
HETATM    7  N   UNL     1      25.735  46.477  53.060  1.00  0.00    -0.272 N 
HETATM    8  H   UNL     1      25.836  46.563  54.066  1.00  0.00     0.189 HD
HETATM    9  N   UNL     1      25.623  47.599  52.304  1.00  0.00    -0.173 NA
HETATM   10  C   UNL     1      25.496  47.158  51.029  1.00  0.00     0.101 A 
ENDROOT
BRANCH  10  11
HETATM   11  C   UNL     1      25.360  48.082  49.909  1.00  0.00     0.028 A 
HETATM   12  C   UNL     1      24.111  48.426  49.373  1.00  0.00     0.078 A 
HETATM   13  C   UNL     1      24.002  49.377  48.359  1.00  0.00     0.037 A 
HETATM   14  C   UNL     1      25.153  49.969  47.839  1.00  0.00     0.003 A 
HETATM   15  C   UNL     1      26.406  49.612  48.335  1.00  0.00     0.001 A 
HETATM   16  C   UNL     1      26.509  48.675  49.366  1.00  0.00     0.017 A 
BRANCH  12  17
HETATM   17  O   UNL     1      22.946  47.828  49.775  1.00  0.00    -0.360 OA
HETATM   18  H   UNL     1      23.152  47.358  50.603  1.00  0.00     0.217 HD
ENDBRANCH  12  17
ENDBRANCH  10  11
BRANCH   6  19
HETATM   19  C   UNL     1      24.127  44.576  49.428  1.00  0.00    -0.031 A 
HETATM   20  C   UNL     1      24.067  44.887  48.058  1.00  0.00     0.011 A 
HETATM   21  C   UNL     1      22.848  44.887  47.375  1.00  0.00     0.024 A 
HETATM   22  C   UNL     1      21.673  44.583  48.056  1.00  0.00     0.034 A 
HETATM   23 CL   UNL     1      20.173  44.578  47.213  1.00  0.00    -0.084 Cl
HETATM   24  C   UNL     1      21.706  44.280  49.414  1.00  0.00     0.024 A 
HETATM   25  C   UNL     1      22.926  44.278  50.097  1.00  0.00     0.011 A 
ENDBRANCH   6  19
BRANCH   1  26
HETATM   26  C   UNL     1      25.706  42.085  50.782  1.00  0.00     0.129 C 
BRANCH  26  27
HETATM   27  C   UNL     1      26.995  41.684  50.060  1.00  0.00     0.046 C 
BRANCH  27  28
HETATM   28  C   UNL     1      28.053  41.119  51.001  1.00  0.00     0.169 C 
BRANCH  28  29
HETATM   29  O   UNL     1      28.766  42.199  51.595  1.00  0.00    -0.387 OA
BRANCH  29  30
HETATM   30  C   UNL     1      29.311  41.895  52.882  1.00  0.00     0.113 C 
HETATM   31  C   UNL     1      28.412  40.929  53.647  1.00  0.00     0.039 C 
HETATM   32  C   UNL     1      29.438  43.214  53.635  1.00  0.00     0.039 C 
ENDBRANCH  29  30
ENDBRANCH  28  29
ENDBRANCH  27  28
ENDBRANCH  26  27
ENDBRANCH   1  26
TORSDOF 8
ENDMDL
MODEL 7
REMARK VINA RESULT:      -7.5     12.269     13.844
REMARK  8 active torsions:
REMARK  status: ('A' for Active; 'I' for Inactive)
REMARK    1  A    between atoms: C_2  and  O_3 
REMARK    2  A    between atoms: O_3  and  C_4 
REMARK    3  A    between atoms: C_4  and  C_5 
REMARK    4  A    between atoms: C_5  and  C_6 
REMARK    5  A    between atoms: C_6  and  N_7 
REMARK    6  A    between atoms: C_12  and  C_13 
REMARK    7  A    between atoms: C_23  and  C_24 
REMARK    8  A    between atoms: C_25  and  O_26 
ROOT
HETATM    1  N   UNL     1      31.055  48.670  41.718  1.00  0.00    -0.334 N 
HETATM    2  C   UNL     1      31.710  47.760  40.876  1.00  0.00     0.273 A 
HETATM    3  O   UNL     1      32.821  47.277  40.982  1.00  0.00    -0.266 OA
HETATM    4  C   UNL     1      30.759  47.512  39.858  1.00  0.00     0.129 A 
HETATM    5  C   UNL     1      29.602  48.210  40.035  1.00  0.00     0.034 A 
HETATM    6  C   UNL     1      29.682  49.034  41.260  1.00  0.00     0.159 A 
HETATM    7  N   UNL     1      30.637  46.791  38.733  1.00  0.00    -0.272 N 
HETATM    8  H   UNL     1      31.309  46.171  38.291  1.00  0.00     0.189 HD
HETATM    9  N   UNL     1      29.415  46.960  38.167  1.00  0.00    -0.173 NA
HETATM   10  C   UNL     1      28.768  47.835  38.973  1.00  0.00     0.101 A 
ENDROOT
BRANCH  10  11
HETATM   11  C   UNL     1      27.401  48.264  38.697  1.00  0.00     0.028 A 
HETATM   12  C   UNL     1      26.308  47.394  38.809  1.00  0.00     0.078 A 
HETATM   13  C   UNL     1      25.004  47.851  38.623  1.00  0.00     0.037 A 
HETATM   14  C   UNL     1      24.780  49.185  38.283  1.00  0.00     0.003 A 
HETATM   15  C   UNL     1      25.858  50.056  38.131  1.00  0.00     0.001 A 
HETATM   16  C   UNL     1      27.162  49.599  38.340  1.00  0.00     0.017 A 
BRANCH  12  17
HETATM   17  O   UNL     1      26.454  46.055  39.059  1.00  0.00    -0.360 OA
HETATM   18  H   UNL     1      25.807  45.835  39.753  1.00  0.00     0.217 HD
ENDBRANCH  12  17
ENDBRANCH  10  11
BRANCH   6  19
HETATM   19  C   UNL     1      29.514  50.480  40.858  1.00  0.00    -0.031 A 
HETATM   20  C   UNL     1      30.310  50.996  39.820  1.00  0.00     0.011 A 
HETATM   21  C   UNL     1      30.179  52.325  39.407  1.00  0.00     0.024 A 
HETATM   22  C   UNL     1      29.252  53.154  40.032  1.00  0.00     0.034 A 
HETATM   23 CL   UNL     1      29.086  54.788  39.519  1.00  0.00    -0.084 Cl
HETATM   24  C   UNL     1      28.458  52.669  41.066  1.00  0.00     0.024 A 
HETATM   25  C   UNL     1      28.588  51.339  41.478  1.00  0.00     0.011 A 
ENDBRANCH   6  19
BRANCH   1  26
HETATM   26  C   UNL     1      31.640  49.189  42.943  1.00  0.00     0.129 C 
BRANCH  26  27
HETATM   27  C   UNL     1      32.177  50.617  42.813  1.00  0.00     0.046 C 
BRANCH  27  28
HETATM   28  C   UNL     1      33.635  50.666  42.371  1.00  0.00     0.169 C 
BRANCH  28  29
HETATM   29  O   UNL     1      33.835  51.830  41.574  1.00  0.00    -0.387 OA
BRANCH  29  30
HETATM   30  C   UNL     1      34.075  51.552  40.192  1.00  0.00     0.113 C 
HETATM   31  C   UNL     1      35.525  51.140  39.956  1.00  0.00     0.039 C 
HETATM   32  C   UNL     1      33.751  52.824  39.419  1.00  0.00     0.039 C 
ENDBRANCH  29  30
ENDBRANCH  28  29
ENDBRANCH  27  28
ENDBRANCH  26  27
ENDBRANCH   1  26
TORSDOF 8
ENDMDL
MODEL 8
REMARK VINA RESULT:      -7.4      2.523      6.905
REMARK  8 active torsions:
REMARK  status: ('A' for Active; 'I' for Inactive)
REMARK    1  A    between atoms: C_2  and  O_3 
REMARK    2  A    between atoms: O_3  and  C_4 
REMARK    3  A    between atoms: C_4  and  C_5 
REMARK    4  A    between atoms: C_5  and  C_6 
REMARK    5  A    between atoms: C_6  and  N_7 
REMARK    6  A    between atoms: C_12  and  C_13 
REMARK    7  A    between atoms: C_23  and  C_24 
REMARK    8  A    between atoms: C_25  and  O_26 
ROOT
HETATM    1  N   UNL     1      27.521  41.713  49.775  1.00  0.00    -0.334 N 
HETATM    2  C   UNL     1      27.836  40.771  50.764  1.00  0.00     0.273 A 
HETATM    3  O   UNL     1      28.179  39.611  50.640  1.00  0.00    -0.266 OA
HETATM    4  C   UNL     1      27.674  41.495  51.969  1.00  0.00     0.129 A 
HETATM    5  C   UNL     1      27.285  42.784  51.762  1.00  0.00     0.034 A 
HETATM    6  C   UNL     1      27.143  43.052  50.315  1.00  0.00     0.159 A 
HETATM    7  N   UNL     1      27.779  41.304  53.293  1.00  0.00    -0.272 N 
HETATM    8  H   UNL     1      28.031  40.463  53.803  1.00  0.00     0.189 HD
HETATM    9  N   UNL     1      27.503  42.441  53.981  1.00  0.00    -0.173 NA
HETATM   10  C   UNL     1      27.200  43.363  53.036  1.00  0.00     0.101 A 
ENDROOT
BRANCH  10  11
HETATM   11  C   UNL     1      26.852  44.735  53.388  1.00  0.00     0.028 A 
HETATM   12  C   UNL     1      27.645  45.511  54.246  1.00  0.00     0.078 A 
HETATM   13  C   UNL     1      27.336  46.846  54.498  1.00  0.00     0.037 A 
HETATM   14  C   UNL     1      26.200  47.414  53.922  1.00  0.00     0.003 A 
HETATM   15  C   UNL     1      25.379  46.648  53.095  1.00  0.00     0.001 A 
HETATM   16  C   UNL     1      25.705  45.315  52.828  1.00  0.00     0.017 A 
BRANCH  12  17
HETATM   17  O   UNL     1      28.728  44.999  54.912  1.00  0.00    -0.360 OA
HETATM   18  H   UNL     1      28.584  45.193  55.856  1.00  0.00     0.217 HD
ENDBRANCH  12  17
ENDBRANCH  10  11
BRANCH   6  19
HETATM   19  C   UNL     1      25.711  43.456  50.056  1.00  0.00    -0.031 A 
HETATM   20  C   UNL     1      25.456  44.638  49.339  1.00  0.00     0.011 A 
HETATM   21  C   UNL     1      24.146  45.042  49.065  1.00  0.00     0.024 A 
HETATM   22  C   UNL     1      23.077  44.271  49.510  1.00  0.00     0.034 A 
HETATM   23 CL   UNL     1      21.465  44.766  49.168  1.00  0.00    -0.084 Cl
HETATM   24  C   UNL     1      23.304  43.100  50.229  1.00  0.00     0.024 A 
HETATM   25  C   UNL     1      24.615  42.695  50.501  1.00  0.00     0.011 A 
ENDBRANCH   6  19
BRANCH   1  26
HETATM   26  C   UNL     1      27.586  41.429  48.351  1.00  0.00     0.129 C 
BRANCH  26  27
HETATM   27  C   UNL     1      26.371  40.665  47.817  1.00  0.00     0.046 C 
BRANCH  27  28
HETATM   28  C   UNL     1      26.747  39.367  47.111  1.00  0.00     0.169 C 
BRANCH  28  29
HETATM   29  O   UNL     1      26.131  38.278  47.792  1.00  0.00    -0.387 OA
BRANCH  29  30
HETATM   30  C   UNL     1      26.996  37.156  47.991  1.00  0.00     0.113 C 
HETATM   31  C   UNL     1      27.002  36.719  49.453  1.00  0.00     0.039 C 
HETATM   32  C   UNL     1      28.392  37.588  47.559  1.00  0.00     0.039 C 
ENDBRANCH  29  30
ENDBRANCH  28  29
ENDBRANCH  27  28
ENDBRANCH  26  27
ENDBRANCH   1  26
TORSDOF 8
ENDMDL
MODEL 9
REMARK VINA RESULT:      -7.2     16.952     19.311
REMARK  8 active torsions:
REMARK  status: ('A' for Active; 'I' for Inactive)
REMARK    1  A    between atoms: C_2  and  O_3 
REMARK    2  A    between atoms: O_3  and  C_4 
REMARK    3  A    between atoms: C_4  and  C_5 
REMARK    4  A    between atoms: C_5  and  C_6 
REMARK    5  A    between atoms: C_6  and  N_7 
REMARK    6  A    between atoms: C_12  and  C_13 
REMARK    7  A    between atoms: C_23  and  C_24 
REMARK    8  A    between atoms: C_25  and  O_26 
ROOT
HETATM    1  N   UNL     1      39.166  43.264  65.578  1.00  0.00    -0.334 N 
HETATM    2  C   UNL     1      38.180  43.028  64.609  1.00  0.00     0.273 A 
HETATM    3  O   UNL     1      37.805  41.973  64.135  1.00  0.00    -0.266 OA
HETATM    4  C   UNL     1      37.699  44.325  64.309  1.00  0.00     0.129 A 
HETATM    5  C   UNL     1      38.328  45.300  65.023  1.00  0.00     0.034 A 
HETATM    6  C   UNL     1      39.347  44.707  65.916  1.00  0.00     0.159 A 
HETATM    7  N   UNL     1      36.796  44.916  63.513  1.00  0.00    -0.272 N 
HETATM    8  H   UNL     1      36.162  44.497  62.838  1.00  0.00     0.189 HD
HETATM    9  N   UNL     1      36.777  46.260  63.697  1.00  0.00    -0.173 NA
HETATM   10  C   UNL     1      37.723  46.503  64.636  1.00  0.00     0.101 A 
ENDROOT
BRANCH  10  11
HETATM   11  C   UNL     1      37.999  47.853  65.114  1.00  0.00     0.028 A 
HETATM   12  C   UNL     1      37.139  48.524  65.995  1.00  0.00     0.078 A 
HETATM   13  C   UNL     1      37.468  49.778  66.505  1.00  0.00     0.037 A 
HETATM   14  C   UNL     1      38.652  50.399  66.105  1.00  0.00     0.003 A 
HETATM   15  C   UNL     1      39.502  49.763  65.201  1.00  0.00     0.001 A 
HETATM   16  C   UNL     1      39.178  48.495  64.710  1.00  0.00     0.017 A 
BRANCH  12  17
HETATM   17  O   UNL     1      35.922  48.015  66.368  1.00  0.00    -0.360 OA
HETATM   18  H   UNL     1      35.359  48.781  66.579  1.00  0.00     0.217 HD
ENDBRANCH  12  17
ENDBRANCH  10  11
BRANCH   6  19
HETATM   19  C   UNL     1      40.690  45.280  65.533  1.00  0.00    -0.031 A 
HETATM   20  C   UNL     1      41.430  45.985  66.499  1.00  0.00     0.011 A 
HETATM   21  C   UNL     1      42.685  46.521  66.192  1.00  0.00     0.024 A 
HETATM   22  C   UNL     1      43.209  46.362  64.913  1.00  0.00     0.034 A 
HETATM   23 CL   UNL     1      44.756  47.017  64.536  1.00  0.00    -0.084 Cl
HETATM   24  C   UNL     1      42.492  45.675  63.938  1.00  0.00     0.024 A 
HETATM   25  C   UNL     1      41.239  45.137  64.246  1.00  0.00     0.011 A 
ENDBRANCH   6  19
BRANCH   1  26
HETATM   26  C   UNL     1      39.921  42.203  66.224  1.00  0.00     0.129 C 
BRANCH  26  27
HETATM   27  C   UNL     1      41.224  41.847  65.503  1.00  0.00     0.046 C 
BRANCH  27  28
HETATM   28  C   UNL     1      41.481  40.345  65.446  1.00  0.00     0.169 C 
BRANCH  28  29
HETATM   29  O   UNL     1      40.230  39.664  65.424  1.00  0.00    -0.387 OA
BRANCH  29  30
HETATM   30  C   UNL     1      40.149  38.634  64.435  1.00  0.00     0.113 C 
HETATM   31  C   UNL     1      41.458  37.856  64.341  1.00  0.00     0.039 C 
HETATM   32  C   UNL     1      39.838  39.314  63.107  1.00  0.00     0.039 C 
ENDBRANCH  29  30
ENDBRANCH  28  29
ENDBRANCH  27  28
ENDBRANCH  26  27
ENDBRANCH   1  26
TORSDOF 8
ENDMDL
MODEL 10
REMARK VINA RESULT:      -7.2     11.146     14.275
REMARK  8 active torsions:
REMARK  status: ('A' for Active; 'I' for Inactive)
REMARK    1  A    between atoms: C_2  and  O_3 
REMARK    2  A    between atoms: O_3  and  C_4 
REMARK    3  A    between atoms: C_4  and  C_5 
REMARK    4  A    between atoms: C_5  and  C_6 
REMARK    5  A    between atoms: C_6  and  N_7 
REMARK    6  A    between atoms: C_12  and  C_13 
REMARK    7  A    between atoms: C_23  and  C_24 
REMARK    8  A    between atoms: C_25  and  O_26 
ROOT
HETATM    1  N   UNL     1      27.095  46.542  40.131  1.00  0.00    -0.334 N 
HETATM    2  C   UNL     1      26.528  46.556  38.848  1.00  0.00     0.273 A 
HETATM    3  O   UNL     1      26.007  45.649  38.228  1.00  0.00    -0.266 OA
HETATM    4  C   UNL     1      26.688  47.899  38.434  1.00  0.00     0.129 A 
HETATM    5  C   UNL     1      27.309  48.670  39.371  1.00  0.00     0.034 A 
HETATM    6  C   UNL     1      27.639  47.862  40.565  1.00  0.00     0.159 A 
HETATM    7  N   UNL     1      26.421  48.676  37.373  1.00  0.00    -0.272 N 
HETATM    8  H   UNL     1      25.981  48.431  36.492  1.00  0.00     0.189 HD
HETATM    9  N   UNL     1      26.816  49.957  37.585  1.00  0.00    -0.173 NA
HETATM   10  C   UNL     1      27.364  49.960  38.824  1.00  0.00     0.101 A 
ENDROOT
BRANCH  10  11
HETATM   11  C   UNL     1      27.902  51.176  39.421  1.00  0.00     0.028 A 
HETATM   12  C   UNL     1      28.713  52.066  38.702  1.00  0.00     0.078 A 
HETATM   13  C   UNL     1      29.144  53.264  39.270  1.00  0.00     0.037 A 
HETATM   14  C   UNL     1      28.799  53.570  40.586  1.00  0.00     0.003 A 
HETATM   15  C   UNL     1      28.024  52.679  41.329  1.00  0.00     0.001 A 
HETATM   16  C   UNL     1      27.577  51.490  40.749  1.00  0.00     0.017 A 
BRANCH  12  17
HETATM   17  O   UNL     1      29.160  51.796  37.435  1.00  0.00    -0.360 OA
HETATM   18  H   UNL     1      29.156  52.646  36.958  1.00  0.00     0.217 HD
ENDBRANCH  12  17
ENDBRANCH  10  11
BRANCH   6  19
HETATM   19  C   UNL     1      29.136  47.897  40.750  1.00  0.00    -0.031 A 
HETATM   20  C   UNL     1      29.668  48.559  41.871  1.00  0.00     0.011 A 
HETATM   21  C   UNL     1      31.049  48.604  42.090  1.00  0.00     0.024 A 
HETATM   22  C   UNL     1      31.912  47.993  41.186  1.00  0.00     0.034 A 
HETATM   23 CL   UNL     1      33.610  48.044  41.458  1.00  0.00    -0.084 Cl
HETATM   24  C   UNL     1      31.409  47.339  40.065  1.00  0.00     0.024 A 
HETATM   25  C   UNL     1      30.029  47.292  39.848  1.00  0.00     0.011 A 
ENDBRANCH   6  19
BRANCH   1  26
HETATM   26  C   UNL     1      27.124  45.361  40.978  1.00  0.00     0.129 C 
BRANCH  26  27
HETATM   27  C   UNL     1      26.087  45.384  42.104  1.00  0.00     0.046 C 
BRANCH  27  28
HETATM   28  C   UNL     1      24.666  45.138  41.611  1.00  0.00     0.169 C 
BRANCH  28  29
HETATM   29  O   UNL     1      23.826  46.186  42.085  1.00  0.00    -0.387 OA
BRANCH  29  30
HETATM   30  C   UNL     1      22.831  46.601  41.145  1.00  0.00     0.113 C 
HETATM   31  C   UNL     1      22.456  45.463  40.201  1.00  0.00     0.039 C 
HETATM   32  C   UNL     1      23.418  47.769  40.363  1.00  0.00     0.039 C 
ENDBRANCH  29  30
ENDBRANCH  28  29
ENDBRANCH  27  28
ENDBRANCH  26  27
ENDBRANCH   1  26
TORSDOF 8
ENDMDL
