MODEL 1
REMARK VINA RESULT:      -9.3      0.000      0.000
REMARK  3 active torsions:
REMARK  status: ('A' for Active; 'I' for Inactive)
REMARK    1  A    between atoms: C_2  and  O_3 
REMARK    2  A    between atoms: O_3  and  C_4 
REMARK    3  A    between atoms: C_7  and  N_8 
REMARK       I    between atoms: N_8  and  C_9 
REMARK       I    between atoms: C_9  and  N_10 
ROOT
HETATM    1  N   UNL     1      24.055  46.267  50.198  1.00  0.00    -0.309 N 
HETATM    2  C   UNL     1      24.197  47.533  49.677  1.00  0.00     0.323 C 
HETATM    3  N   UNL     1      23.196  47.937  48.802  1.00  0.00    -0.328 N 
HETATM    4  C   UNL     1      23.207  49.348  48.381  1.00  0.00     0.185 C 
HETATM    5  C   UNL     1      21.812  49.868  48.491  1.00  0.00     0.035 A 
HETATM    6  C   UNL     1      20.661  49.124  48.666  1.00  0.00    -0.020 A 
HETATM    7  C   UNL     1      20.714  47.639  48.784  1.00  0.00     0.061 C 
HETATM    8  C   UNL     1      22.075  47.133  48.259  1.00  0.00     0.132 C 
HETATM    9  N   UNL     1      21.462  51.187  48.441  1.00  0.00    -0.357 N 
HETATM   10  H   UNL     1      22.101  51.964  48.334  1.00  0.00     0.166 HD
HETATM   11  C   UNL     1      20.096  51.315  48.578  1.00  0.00     0.043 A 
HETATM   12  C   UNL     1      19.567  50.029  48.725  1.00  0.00    -0.001 A 
HETATM   13  C   UNL     1      19.297  52.463  48.592  1.00  0.00     0.030 A 
HETATM   14  C   UNL     1      17.919  52.294  48.762  1.00  0.00     0.002 A 
HETATM   15  C   UNL     1      17.364  51.025  48.913  1.00  0.00     0.001 A 
HETATM   16  C   UNL     1      18.176  49.884  48.896  1.00  0.00     0.014 A 
HETATM   17  O   UNL     1      25.127  48.289  49.955  1.00  0.00    -0.247 OA
HETATM   18  H   UNL     1      23.261  45.735  49.901  1.00  0.00     0.170 HD
ENDROOT
BRANCH   1  19
HETATM   19  C   UNL     1      24.862  45.631  51.168  1.00  0.00     0.036 A 
HETATM   20  C   UNL     1      25.524  46.295  52.201  1.00  0.00     0.032 A 
HETATM   21  C   UNL     1      26.263  45.578  53.148  1.00  0.00     0.039 A 
HETATM   22  C   UNL     1      26.331  44.190  53.074  1.00  0.00     0.070 A 
HETATM   23  C   UNL     1      25.722  43.517  52.022  1.00  0.00     0.039 A 
HETATM   24  C   UNL     1      24.978  44.235  51.081  1.00  0.00     0.032 A 
BRANCH  22  25
HETATM   25  O   UNL     1      27.073  43.537  54.009  1.00  0.00    -0.341 OA
BRANCH  25  26
HETATM   26  C   UNL     1      28.382  43.067  53.615  1.00  0.00     0.057 C 
HETATM   27  C   UNL     1      29.375  43.453  54.718  1.00  0.00     0.045 C 
HETATM   28  C   UNL     1      28.903  43.536  52.243  1.00  0.00     0.045 C 
HETATM   29  C   UNL     1      28.258  41.535  53.578  1.00  0.00     0.045 C 
ENDBRANCH  25  26
ENDBRANCH  22  25
ENDBRANCH   1  19
TORSDOF 3
ENDMDL
MODEL 2
REMARK VINA RESULT:      -8.6      2.224      9.940
REMARK  3 active torsions:
REMARK  status: ('A' for Active; 'I' for Inactive)
REMARK    1  A    between atoms: C_2  and  O_3 
REMARK    2  A    between atoms: O_3  and  C_4 
REMARK    3  A    between atoms: C_7  and  N_8 
REMARK       I    between atoms: N_8  and  C_9 
REMARK       I    between atoms: C_9  and  N_10 
ROOT
HETATM    1  N   UNL     1      23.124  49.014  49.120  1.00  0.00    -0.309 N 
HETATM    2  C   UNL     1      23.128  47.639  49.166  1.00  0.00     0.323 C 
HETATM    3  N   UNL     1      24.341  47.054  49.511  1.00  0.00    -0.328 N 
HETATM    4  C   UNL     1      24.334  45.603  49.761  1.00  0.00     0.185 C 
HETATM    5  C   UNL     1      25.103  45.354  51.016  1.00  0.00     0.035 A 
HETATM    6  C   UNL     1      25.923  46.248  51.679  1.00  0.00    -0.020 A 
HETATM    7  C   UNL     1      26.112  47.638  51.175  1.00  0.00     0.061 C 
HETATM    8  C   UNL     1      25.654  47.714  49.702  1.00  0.00     0.132 C 
HETATM    9  N   UNL     1      25.104  44.180  51.715  1.00  0.00    -0.357 N 
HETATM   10  H   UNL     1      24.580  43.349  51.473  1.00  0.00     0.166 HD
HETATM   11  C   UNL     1      25.915  44.295  52.824  1.00  0.00     0.043 A 
HETATM   12  C   UNL     1      26.442  45.591  52.826  1.00  0.00    -0.001 A 
HETATM   13  C   UNL     1      26.213  43.360  53.821  1.00  0.00     0.030 A 
HETATM   14  C   UNL     1      27.072  43.759  54.850  1.00  0.00     0.002 A 
HETATM   15  C   UNL     1      27.609  45.044  54.880  1.00  0.00     0.001 A 
HETATM   16  C   UNL     1      27.303  45.969  53.875  1.00  0.00     0.014 A 
HETATM   17  O   UNL     1      22.140  46.942  48.936  1.00  0.00    -0.247 OA
HETATM   18  H   UNL     1      23.986  49.483  49.321  1.00  0.00     0.170 HD
ENDROOT
BRANCH   1  19
HETATM   19  C   UNL     1      22.026  49.873  48.888  1.00  0.00     0.036 A 
HETATM   20  C   UNL     1      21.415  50.052  47.646  1.00  0.00     0.032 A 
HETATM   21  C   UNL     1      20.300  50.887  47.517  1.00  0.00     0.039 A 
HETATM   22  C   UNL     1      19.781  51.535  48.632  1.00  0.00     0.070 A 
HETATM   23  C   UNL     1      20.409  51.410  49.866  1.00  0.00     0.039 A 
HETATM   24  C   UNL     1      21.518  50.569  49.995  1.00  0.00     0.032 A 
BRANCH  22  25
HETATM   25  O   UNL     1      18.704  52.348  48.455  1.00  0.00    -0.341 OA
BRANCH  25  26
HETATM   26  C   UNL     1      17.396  51.794  48.719  1.00  0.00     0.057 C 
HETATM   27  C   UNL     1      16.755  52.610  49.849  1.00  0.00     0.045 C 
HETATM   28  C   UNL     1      17.335  50.290  49.049  1.00  0.00     0.045 C 
HETATM   29  C   UNL     1      16.598  52.030  47.426  1.00  0.00     0.045 C 
ENDBRANCH  25  26
ENDBRANCH  22  25
ENDBRANCH   1  19
TORSDOF 3
ENDMDL
MODEL 3
REMARK VINA RESULT:      -8.4      7.400     10.582
REMARK  3 active torsions:
REMARK  status: ('A' for Active; 'I' for Inactive)
REMARK    1  A    between atoms: C_2  and  O_3 
REMARK    2  A    between atoms: O_3  and  C_4 
REMARK    3  A    between atoms: C_7  and  N_8 
REMARK       I    between atoms: N_8  and  C_9 
REMARK       I    between atoms: C_9  and  N_10 
ROOT
HETATM    1  N   UNL     1      27.284  40.867  49.643  1.00  0.00    -0.309 N 
HETATM    2  C   UNL     1      26.731  41.960  50.270  1.00  0.00     0.323 C 
HETATM    3  N   UNL     1      26.893  42.005  51.650  1.00  0.00    -0.328 N 
HETATM    4  C   UNL     1      26.490  43.248  52.328  1.00  0.00     0.185 C 
HETATM    5  C   UNL     1      27.576  43.619  53.283  1.00  0.00     0.035 A 
HETATM    6  C   UNL     1      28.629  42.823  53.693  1.00  0.00    -0.020 A 
HETATM    7  C   UNL     1      28.795  41.436  53.170  1.00  0.00     0.061 C 
HETATM    8  C   UNL     1      27.466  40.967  52.539  1.00  0.00     0.132 C 
HETATM    9  N   UNL     1      27.695  44.831  53.902  1.00  0.00    -0.357 N 
HETATM   10  H   UNL     1      27.073  45.619  53.781  1.00  0.00     0.166 HD
HETATM   11  C   UNL     1      28.811  44.836  54.712  1.00  0.00     0.043 A 
HETATM   12  C   UNL     1      29.420  43.582  54.596  1.00  0.00    -0.001 A 
HETATM   13  C   UNL     1      29.327  45.851  55.525  1.00  0.00     0.030 A 
HETATM   14  C   UNL     1      30.499  45.579  56.239  1.00  0.00     0.002 A 
HETATM   15  C   UNL     1      31.128  44.339  56.140  1.00  0.00     0.001 A 
HETATM   16  C   UNL     1      30.600  43.333  55.323  1.00  0.00     0.014 A 
HETATM   17  O   UNL     1      26.137  42.861  49.680  1.00  0.00    -0.247 OA
HETATM   18  H   UNL     1      27.743  40.189  50.220  1.00  0.00     0.170 HD
ENDROOT
BRANCH   1  19
HETATM   19  C   UNL     1      27.351  40.602  48.257  1.00  0.00     0.036 A 
HETATM   20  C   UNL     1      28.265  41.195  47.384  1.00  0.00     0.032 A 
HETATM   21  C   UNL     1      28.292  40.836  46.032  1.00  0.00     0.039 A 
HETATM   22  C   UNL     1      27.415  39.870  45.550  1.00  0.00     0.070 A 
HETATM   23  C   UNL     1      26.463  39.308  46.392  1.00  0.00     0.039 A 
HETATM   24  C   UNL     1      26.443  39.663  47.745  1.00  0.00     0.032 A 
BRANCH  22  25
HETATM   25  O   UNL     1      27.468  39.564  44.225  1.00  0.00    -0.341 OA
BRANCH  25  26
HETATM   26  C   UNL     1      28.315  38.462  43.825  1.00  0.00     0.057 C 
HETATM   27  C   UNL     1      27.500  37.551  42.900  1.00  0.00     0.045 C 
HETATM   28  C   UNL     1      28.955  37.636  44.957  1.00  0.00     0.045 C 
HETATM   29  C   UNL     1      29.447  39.109  43.010  1.00  0.00     0.045 C 
ENDBRANCH  25  26
ENDBRANCH  22  25
ENDBRANCH   1  19
TORSDOF 3
ENDMDL
MODEL 4
REMARK VINA RESULT:      -8.3     19.497     21.336
REMARK  3 active torsions:
REMARK  status: ('A' for Active; 'I' for Inactive)
REMARK    1  A    between atoms: C_2  and  O_3 
REMARK    2  A    between atoms: O_3  and  C_4 
REMARK    3  A    between atoms: C_7  and  N_8 
REMARK       I    between atoms: N_8  and  C_9 
REMARK       I    between atoms: C_9  and  N_10 
ROOT
HETATM    1  N   UNL     1      37.515  42.873  64.213  1.00  0.00    -0.309 N 
HETATM    2  C   UNL     1      37.644  44.049  63.510  1.00  0.00     0.323 C 
HETATM    3  N   UNL     1      36.846  45.099  63.948  1.00  0.00    -0.328 N 
HETATM    4  C   UNL     1      37.098  46.421  63.352  1.00  0.00     0.185 C 
HETATM    5  C   UNL     1      37.129  47.422  64.459  1.00  0.00     0.035 A 
HETATM    6  C   UNL     1      36.714  47.230  65.763  1.00  0.00    -0.020 A 
HETATM    7  C   UNL     1      36.178  45.914  66.215  1.00  0.00     0.061 C 
HETATM    8  C   UNL     1      35.784  45.073  64.981  1.00  0.00     0.132 C 
HETATM    9  N   UNL     1      37.589  48.703  64.345  1.00  0.00    -0.357 N 
HETATM   10  H   UNL     1      37.970  49.120  63.506  1.00  0.00     0.166 HD
HETATM   11  C   UNL     1      37.478  49.351  65.557  1.00  0.00     0.043 A 
HETATM   12  C   UNL     1      36.932  48.443  66.470  1.00  0.00    -0.001 A 
HETATM   13  C   UNL     1      37.825  50.659  65.913  1.00  0.00     0.030 A 
HETATM   14  C   UNL     1      37.611  51.050  67.238  1.00  0.00     0.002 A 
HETATM   15  C   UNL     1      37.070  50.166  68.170  1.00  0.00     0.001 A 
HETATM   16  C   UNL     1      36.726  48.861  67.799  1.00  0.00     0.014 A 
HETATM   17  O   UNL     1      38.413  44.200  62.562  1.00  0.00    -0.247 OA
HETATM   18  H   UNL     1      36.855  42.857  64.966  1.00  0.00     0.170 HD
ENDROOT
BRANCH   1  19
HETATM   19  C   UNL     1      38.253  41.678  64.053  1.00  0.00     0.036 A 
HETATM   20  C   UNL     1      39.259  41.496  63.102  1.00  0.00     0.032 A 
HETATM   21  C   UNL     1      39.973  40.294  63.047  1.00  0.00     0.039 A 
HETATM   22  C   UNL     1      39.696  39.275  63.951  1.00  0.00     0.070 A 
HETATM   23  C   UNL     1      38.662  39.419  64.869  1.00  0.00     0.039 A 
HETATM   24  C   UNL     1      37.954  40.624  64.928  1.00  0.00     0.032 A 
BRANCH  22  25
HETATM   25  O   UNL     1      40.406  38.119  63.849  1.00  0.00    -0.341 OA
BRANCH  25  26
HETATM   26  C   UNL     1      41.329  37.804  64.916  1.00  0.00     0.057 C 
HETATM   27  C   UNL     1      40.581  36.960  65.955  1.00  0.00     0.045 C 
HETATM   28  C   UNL     1      42.028  38.994  65.601  1.00  0.00     0.045 C 
HETATM   29  C   UNL     1      42.411  36.932  64.258  1.00  0.00     0.045 C 
ENDBRANCH  25  26
ENDBRANCH  22  25
ENDBRANCH   1  19
TORSDOF 3
ENDMDL
MODEL 5
REMARK VINA RESULT:      -8.1     14.101     15.631
REMARK  3 active torsions:
REMARK  status: ('A' for Active; 'I' for Inactive)
REMARK    1  A    between atoms: C_2  and  O_3 
REMARK    2  A    between atoms: O_3  and  C_4 
REMARK    3  A    between atoms: C_7  and  N_8 
REMARK       I    between atoms: N_8  and  C_9 
REMARK       I    between atoms: C_9  and  N_10 
ROOT
HETATM    1  N   UNL     1      35.735  51.821  43.667  1.00  0.00    -0.309 N 
HETATM    2  C   UNL     1      35.495  51.050  42.553  1.00  0.00     0.323 C 
HETATM    3  N   UNL     1      34.162  50.733  42.320  1.00  0.00    -0.328 N 
HETATM    4  C   UNL     1      33.845  50.080  41.039  1.00  0.00     0.185 C 
HETATM    5  C   UNL     1      32.651  50.764  40.462  1.00  0.00     0.035 A 
HETATM    6  C   UNL     1      31.803  51.643  41.110  1.00  0.00    -0.020 A 
HETATM    7  C   UNL     1      32.032  52.024  42.533  1.00  0.00     0.061 C 
HETATM    8  C   UNL     1      32.991  51.006  43.186  1.00  0.00     0.132 C 
HETATM    9  N   UNL     1      32.213  50.624  39.175  1.00  0.00    -0.357 N 
HETATM   10  H   UNL     1      32.648  50.052  38.463  1.00  0.00     0.166 HD
HETATM   11  C   UNL     1      31.089  51.398  38.976  1.00  0.00     0.043 A 
HETATM   12  C   UNL     1      30.811  52.053  40.179  1.00  0.00    -0.001 A 
HETATM   13  C   UNL     1      30.309  51.571  37.827  1.00  0.00     0.030 A 
HETATM   14  C   UNL     1      29.216  52.440  37.908  1.00  0.00     0.002 A 
HETATM   15  C   UNL     1      28.917  53.108  39.094  1.00  0.00     0.001 A 
HETATM   16  C   UNL     1      29.706  52.924  40.236  1.00  0.00     0.014 A 
HETATM   17  O   UNL     1      36.374  50.660  41.786  1.00  0.00    -0.247 OA
HETATM   18  H   UNL     1      34.945  52.081  44.226  1.00  0.00     0.170 HD
ENDROOT
BRANCH   1  19
HETATM   19  C   UNL     1      36.966  52.364  44.099  1.00  0.00     0.036 A 
HETATM   20  C   UNL     1      38.115  51.611  44.348  1.00  0.00     0.032 A 
HETATM   21  C   UNL     1      39.307  52.238  44.727  1.00  0.00     0.039 A 
HETATM   22  C   UNL     1      39.359  53.623  44.844  1.00  0.00     0.070 A 
HETATM   23  C   UNL     1      38.212  54.384  44.653  1.00  0.00     0.039 A 
HETATM   24  C   UNL     1      37.024  53.756  44.266  1.00  0.00     0.032 A 
BRANCH  22  25
HETATM   25  O   UNL     1      40.537  54.187  45.229  1.00  0.00    -0.341 OA
BRANCH  25  26
HETATM   26  C   UNL     1      40.815  54.255  46.646  1.00  0.00     0.057 C 
HETATM   27  C   UNL     1      41.974  53.298  46.946  1.00  0.00     0.045 C 
HETATM   28  C   UNL     1      39.635  53.977  47.597  1.00  0.00     0.045 C 
HETATM   29  C   UNL     1      41.290  55.697  46.887  1.00  0.00     0.045 C 
ENDBRANCH  25  26
ENDBRANCH  22  25
ENDBRANCH   1  19
TORSDOF 3
ENDMDL
MODEL 6
REMARK VINA RESULT:      -8.0      3.584      9.940
REMARK  3 active torsions:
REMARK  status: ('A' for Active; 'I' for Inactive)
REMARK    1  A    between atoms: C_2  and  O_3 
REMARK    2  A    between atoms: O_3  and  C_4 
REMARK    3  A    between atoms: C_7  and  N_8 
REMARK       I    between atoms: N_8  and  C_9 
REMARK       I    between atoms: C_9  and  N_10 
ROOT
HETATM    1  N   UNL     1      24.251  45.162  51.010  1.00  0.00    -0.309 N 
HETATM    2  C   UNL     1      24.823  46.123  51.812  1.00  0.00     0.323 C 
HETATM    3  N   UNL     1      25.294  45.675  53.040  1.00  0.00    -0.328 N 
HETATM    4  C   UNL     1      26.085  46.627  53.838  1.00  0.00     0.185 C 
HETATM    5  C   UNL     1      27.291  45.907  54.343  1.00  0.00     0.035 A 
HETATM    6  C   UNL     1      27.509  44.542  54.332  1.00  0.00    -0.020 A 
HETATM    7  C   UNL     1      26.498  43.606  53.763  1.00  0.00     0.061 C 
HETATM    8  C   UNL     1      25.139  44.332  53.646  1.00  0.00     0.132 C 
HETATM    9  N   UNL     1      28.387  46.507  54.896  1.00  0.00    -0.357 N 
HETATM   10  H   UNL     1      28.515  47.502  55.020  1.00  0.00     0.166 HD
HETATM   11  C   UNL     1      29.316  45.551  55.249  1.00  0.00     0.043 A 
HETATM   12  C   UNL     1      28.788  44.304  54.901  1.00  0.00    -0.001 A 
HETATM   13  C   UNL     1      30.577  45.697  55.837  1.00  0.00     0.030 A 
HETATM   14  C   UNL     1      31.321  44.537  56.076  1.00  0.00     0.002 A 
HETATM   15  C   UNL     1      30.821  43.281  55.737  1.00  0.00     0.001 A 
HETATM   16  C   UNL     1      29.557  43.150  55.149  1.00  0.00     0.014 A 
HETATM   17  O   UNL     1      24.938  47.305  51.491  1.00  0.00    -0.247 OA
HETATM   18  H   UNL     1      24.205  44.229  51.372  1.00  0.00     0.170 HD
ENDROOT
BRANCH   1  19
HETATM   19  C   UNL     1      23.770  45.305  49.689  1.00  0.00     0.036 A 
HETATM   20  C   UNL     1      23.884  44.329  48.698  1.00  0.00     0.032 A 
HETATM   21  C   UNL     1      23.335  44.537  47.429  1.00  0.00     0.039 A 
HETATM   22  C   UNL     1      22.655  45.718  47.148  1.00  0.00     0.070 A 
HETATM   23  C   UNL     1      22.579  46.723  48.105  1.00  0.00     0.039 A 
HETATM   24  C   UNL     1      23.122  46.510  49.376  1.00  0.00     0.032 A 
BRANCH  22  25
HETATM   25  O   UNL     1      22.150  45.882  45.895  1.00  0.00    -0.341 OA
BRANCH  25  26
HETATM   26  C   UNL     1      20.765  45.533  45.681  1.00  0.00     0.057 C 
HETATM   27  C   UNL     1      19.939  46.824  45.722  1.00  0.00     0.045 C 
HETATM   28  C   UNL     1      20.159  44.484  46.633  1.00  0.00     0.045 C 
HETATM   29  C   UNL     1      20.717  44.963  44.253  1.00  0.00     0.045 C 
ENDBRANCH  25  26
ENDBRANCH  22  25
ENDBRANCH   1  19
TORSDOF 3
ENDMDL
MODEL 7
REMARK VINA RESULT:      -7.8     19.648     22.580
REMARK  3 active torsions:
REMARK  status: ('A' for Active; 'I' for Inactive)
REMARK    1  A    between atoms: C_2  and  O_3 
REMARK    2  A    between atoms: O_3  and  C_4 
REMARK    3  A    between atoms: C_7  and  N_8 
REMARK       I    between atoms: N_8  and  C_9 
REMARK       I    between atoms: C_9  and  N_10 
ROOT
HETATM    1  N   UNL     1      37.436  47.847  65.295  1.00  0.00    -0.309 N 
HETATM    2  C   UNL     1      36.852  46.738  65.862  1.00  0.00     0.323 C 
HETATM    3  N   UNL     1      36.611  45.678  64.995  1.00  0.00    -0.328 N 
HETATM    4  C   UNL     1      36.172  44.409  65.600  1.00  0.00     0.185 C 
HETATM    5  C   UNL     1      36.969  43.310  64.980  1.00  0.00     0.035 A 
HETATM    6  C   UNL     1      37.760  43.393  63.850  1.00  0.00    -0.020 A 
HETATM    7  C   UNL     1      37.912  44.679  63.109  1.00  0.00     0.061 C 
HETATM    8  C   UNL     1      36.780  45.643  63.524  1.00  0.00     0.132 C 
HETATM    9  N   UNL     1      37.040  42.031  65.454  1.00  0.00    -0.357 N 
HETATM   10  H   UNL     1      36.573  41.681  66.280  1.00  0.00     0.166 HD
HETATM   11  C   UNL     1      37.866  41.277  64.646  1.00  0.00     0.043 A 
HETATM   12  C   UNL     1      38.336  42.113  63.629  1.00  0.00    -0.001 A 
HETATM   13  C   UNL     1      38.235  39.931  64.745  1.00  0.00     0.030 A 
HETATM   14  C   UNL     1      39.110  39.425  63.779  1.00  0.00     0.002 A 
HETATM   15  C   UNL     1      39.597  40.236  62.755  1.00  0.00     0.001 A 
HETATM   16  C   UNL     1      39.218  41.581  62.669  1.00  0.00     0.014 A 
HETATM   17  O   UNL     1      36.560  46.650  67.054  1.00  0.00    -0.247 OA
HETATM   18  H   UNL     1      37.628  47.814  64.312  1.00  0.00     0.170 HD
ENDROOT
BRANCH   1  19
HETATM   19  C   UNL     1      37.872  49.026  65.940  1.00  0.00     0.036 A 
HETATM   20  C   UNL     1      38.965  49.792  65.530  1.00  0.00     0.032 A 
HETATM   21  C   UNL     1      39.295  50.974  66.201  1.00  0.00     0.039 A 
HETATM   22  C   UNL     1      38.526  51.405  67.276  1.00  0.00     0.070 A 
HETATM   23  C   UNL     1      37.467  50.628  67.732  1.00  0.00     0.039 A 
HETATM   24  C   UNL     1      37.133  49.451  67.055  1.00  0.00     0.032 A 
BRANCH  22  25
HETATM   25  O   UNL     1      38.895  52.553  67.906  1.00  0.00    -0.341 OA
BRANCH  25  26
HETATM   26  C   UNL     1      38.200  53.768  67.546  1.00  0.00     0.057 C 
HETATM   27  C   UNL     1      37.042  53.961  68.533  1.00  0.00     0.045 C 
HETATM   28  C   UNL     1      37.686  53.868  66.097  1.00  0.00     0.045 C 
HETATM   29  C   UNL     1      39.226  54.891  67.765  1.00  0.00     0.045 C 
ENDBRANCH  25  26
ENDBRANCH  22  25
ENDBRANCH   1  19
TORSDOF 3
ENDMDL
MODEL 8
REMARK VINA RESULT:      -7.7     19.741     22.401
REMARK  3 active torsions:
REMARK  status: ('A' for Active; 'I' for Inactive)
REMARK    1  A    between atoms: C_2  and  O_3 
REMARK    2  A    between atoms: O_3  and  C_4 
REMARK    3  A    between atoms: C_7  and  N_8 
REMARK       I    between atoms: N_8  and  C_9 
REMARK       I    between atoms: C_9  and  N_10 
ROOT
HETATM    1  N   UNL     1      38.935  40.183  64.854  1.00  0.00    -0.309 N 
HETATM    2  C   UNL     1      38.813  41.111  63.845  1.00  0.00     0.323 C 
HETATM    3  N   UNL     1      37.716  41.958  63.940  1.00  0.00    -0.328 N 
HETATM    4  C   UNL     1      37.660  43.085  62.994  1.00  0.00     0.185 C 
HETATM    5  C   UNL     1      37.296  44.310  63.765  1.00  0.00     0.035 A 
HETATM    6  C   UNL     1      36.811  44.363  65.058  1.00  0.00    -0.020 A 
HETATM    7  C   UNL     1      36.609  43.120  65.857  1.00  0.00     0.061 C 
HETATM    8  C   UNL     1      36.596  41.902  64.909  1.00  0.00     0.132 C 
HETATM    9  N   UNL     1      37.399  45.590  63.298  1.00  0.00    -0.357 N 
HETATM   10  H   UNL     1      37.740  45.859  62.384  1.00  0.00     0.166 HD
HETATM   11  C   UNL     1      36.984  46.478  64.268  1.00  0.00     0.043 A 
HETATM   12  C   UNL     1      36.611  45.730  65.390  1.00  0.00    -0.001 A 
HETATM   13  C   UNL     1      36.920  47.875  64.240  1.00  0.00     0.030 A 
HETATM   14  C   UNL     1      36.464  48.528  65.389  1.00  0.00     0.002 A 
HETATM   15  C   UNL     1      36.088  47.809  66.522  1.00  0.00     0.001 A 
HETATM   16  C   UNL     1      36.157  46.411  66.536  1.00  0.00     0.014 A 
HETATM   17  O   UNL     1      39.609  41.220  62.914  1.00  0.00    -0.247 OA
HETATM   18  H   UNL     1      38.226  40.178  65.562  1.00  0.00     0.170 HD
ENDROOT
BRANCH   1  19
HETATM   19  C   UNL     1      39.984  39.260  65.064  1.00  0.00     0.036 A 
HETATM   20  C   UNL     1      40.463  38.376  64.096  1.00  0.00     0.032 A 
HETATM   21  C   UNL     1      41.540  37.530  64.377  1.00  0.00     0.039 A 
HETATM   22  C   UNL     1      42.155  37.574  65.624  1.00  0.00     0.070 A 
HETATM   23  C   UNL     1      41.658  38.408  66.617  1.00  0.00     0.039 A 
HETATM   24  C   UNL     1      40.585  39.260  66.332  1.00  0.00     0.032 A 
BRANCH  22  25
HETATM   25  O   UNL     1      43.190  36.721  65.856  1.00  0.00    -0.341 OA
BRANCH  25  26
HETATM   26  C   UNL     1      44.516  37.161  65.485  1.00  0.00     0.057 C 
HETATM   27  C   UNL     1      45.406  37.079  66.731  1.00  0.00     0.045 C 
HETATM   28  C   UNL     1      44.628  38.557  64.843  1.00  0.00     0.045 C 
HETATM   29  C   UNL     1      45.004  36.125  64.460  1.00  0.00     0.045 C 
ENDBRANCH  25  26
ENDBRANCH  22  25
ENDBRANCH   1  19
TORSDOF 3
ENDMDL
MODEL 9
REMARK VINA RESULT:      -7.7     20.561     23.298
REMARK  3 active torsions:
REMARK  status: ('A' for Active; 'I' for Inactive)
REMARK    1  A    between atoms: C_2  and  O_3 
REMARK    2  A    between atoms: O_3  and  C_4 
REMARK    3  A    between atoms: C_7  and  N_8 
REMARK       I    between atoms: N_8  and  C_9 
REMARK       I    between atoms: C_9  and  N_10 
ROOT
HETATM    1  N   UNL     1      38.957  46.517  64.400  1.00  0.00    -0.309 N 
HETATM    2  C   UNL     1      38.028  45.516  64.574  1.00  0.00     0.323 C 
HETATM    3  N   UNL     1      38.272  44.343  63.868  1.00  0.00    -0.328 N 
HETATM    4  C   UNL     1      37.415  43.187  64.179  1.00  0.00     0.185 C 
HETATM    5  C   UNL     1      38.297  41.993  64.329  1.00  0.00     0.035 A 
HETATM    6  C   UNL     1      39.626  41.891  63.965  1.00  0.00    -0.020 A 
HETATM    7  C   UNL     1      40.351  43.048  63.365  1.00  0.00     0.061 C 
HETATM    8  C   UNL     1      39.325  44.085  62.857  1.00  0.00     0.132 C 
HETATM    9  N   UNL     1      37.913  40.798  64.868  1.00  0.00    -0.357 N 
HETATM   10  H   UNL     1      36.995  40.584  65.235  1.00  0.00     0.166 HD
HETATM   11  C   UNL     1      38.973  39.916  64.858  1.00  0.00     0.043 A 
HETATM   12  C   UNL     1      40.067  40.582  64.296  1.00  0.00    -0.001 A 
HETATM   13  C   UNL     1      39.047  38.594  65.308  1.00  0.00     0.030 A 
HETATM   14  C   UNL     1      40.273  37.932  65.183  1.00  0.00     0.002 A 
HETATM   15  C   UNL     1      41.381  38.572  64.629  1.00  0.00     0.001 A 
HETATM   16  C   UNL     1      41.292  39.896  64.182  1.00  0.00     0.014 A 
HETATM   17  O   UNL     1      37.044  45.613  65.305  1.00  0.00    -0.247 OA
HETATM   18  H   UNL     1      39.719  46.333  63.777  1.00  0.00     0.170 HD
ENDROOT
BRANCH   1  19
HETATM   19  C   UNL     1      39.015  47.771  65.049  1.00  0.00     0.036 A 
HETATM   20  C   UNL     1      38.275  48.891  64.666  1.00  0.00     0.032 A 
HETATM   21  C   UNL     1      38.358  50.080  65.397  1.00  0.00     0.039 A 
HETATM   22  C   UNL     1      39.170  50.151  66.525  1.00  0.00     0.070 A 
HETATM   23  C   UNL     1      39.954  49.063  66.889  1.00  0.00     0.039 A 
HETATM   24  C   UNL     1      39.864  47.872  66.161  1.00  0.00     0.032 A 
BRANCH  22  25
HETATM   25  O   UNL     1      39.230  51.333  67.196  1.00  0.00    -0.341 OA
BRANCH  25  26
HETATM   26  C   UNL     1      38.188  51.610  68.159  1.00  0.00     0.057 C 
HETATM   27  C   UNL     1      38.857  51.928  69.501  1.00  0.00     0.045 C 
HETATM   28  C   UNL     1      37.111  50.524  68.345  1.00  0.00     0.045 C 
HETATM   29  C   UNL     1      37.497  52.881  67.639  1.00  0.00     0.045 C 
ENDBRANCH  25  26
ENDBRANCH  22  25
ENDBRANCH   1  19
TORSDOF 3
ENDMDL
MODEL 10
REMARK VINA RESULT:      -7.5     11.217     14.280
REMARK  3 active torsions:
REMARK  status: ('A' for Active; 'I' for Inactive)
REMARK    1  A    between atoms: C_2  and  O_3 
REMARK    2  A    between atoms: O_3  and  C_4 
REMARK    3  A    between atoms: C_7  and  N_8 
REMARK       I    between atoms: N_8  and  C_9 
REMARK       I    between atoms: C_9  and  N_10 
ROOT
HETATM    1  N   UNL     1      26.236  50.434  39.581  1.00  0.00    -0.309 N 
HETATM    2  C   UNL     1      27.422  50.603  38.904  1.00  0.00     0.323 C 
HETATM    3  N   UNL     1      28.307  51.516  39.467  1.00  0.00    -0.328 N 
HETATM    4  C   UNL     1      29.659  51.578  38.886  1.00  0.00     0.185 C 
HETATM    5  C   UNL     1      30.638  51.590  40.013  1.00  0.00     0.035 A 
HETATM    6  C   UNL     1      30.363  51.801  41.350  1.00  0.00    -0.020 A 
HETATM    7  C   UNL     1      28.967  52.034  41.822  1.00  0.00     0.061 C 
HETATM    8  C   UNL     1      28.080  52.421  40.618  1.00  0.00     0.132 C 
HETATM    9  N   UNL     1      31.982  51.383  39.884  1.00  0.00    -0.357 N 
HETATM   10  H   UNL     1      32.469  51.188  39.019  1.00  0.00     0.166 HD
HETATM   11  C   UNL     1      32.588  51.458  41.121  1.00  0.00     0.043 A 
HETATM   12  C   UNL     1      31.588  51.717  42.063  1.00  0.00    -0.001 A 
HETATM   13  C   UNL     1      33.934  51.308  41.473  1.00  0.00     0.030 A 
HETATM   14  C   UNL     1      34.268  51.424  42.826  1.00  0.00     0.002 A 
HETATM   15  C   UNL     1      33.292  51.680  43.787  1.00  0.00     0.001 A 
HETATM   16  C   UNL     1      31.950  51.829  43.420  1.00  0.00     0.014 A 
HETATM   17  O   UNL     1      27.719  49.996  37.877  1.00  0.00    -0.247 OA
HETATM   18  H   UNL     1      26.095  50.983  40.406  1.00  0.00     0.170 HD
ENDROOT
BRANCH   1  19
HETATM   19  C   UNL     1      25.196  49.520  39.296  1.00  0.00     0.036 A 
HETATM   20  C   UNL     1      25.150  48.207  39.767  1.00  0.00     0.032 A 
HETATM   21  C   UNL     1      24.056  47.386  39.476  1.00  0.00     0.039 A 
HETATM   22  C   UNL     1      22.994  47.879  38.724  1.00  0.00     0.070 A 
HETATM   23  C   UNL     1      23.047  49.166  38.202  1.00  0.00     0.039 A 
HETATM   24  C   UNL     1      24.139  49.988  38.501  1.00  0.00     0.032 A 
BRANCH  22  25
HETATM   25  O   UNL     1      21.958  47.039  38.454  1.00  0.00    -0.341 OA
BRANCH  25  26
HETATM   26  C   UNL     1      20.785  47.131  39.292  1.00  0.00     0.057 C 
HETATM   27  C   UNL     1      19.658  47.755  38.461  1.00  0.00     0.045 C 
HETATM   28  C   UNL     1      20.944  47.888  40.625  1.00  0.00     0.045 C 
HETATM   29  C   UNL     1      20.412  45.674  39.614  1.00  0.00     0.045 C 
ENDBRANCH  25  26
ENDBRANCH  22  25
ENDBRANCH   1  19
TORSDOF 3
ENDMDL
