MODEL 1
REMARK VINA RESULT:      -8.2      0.000      0.000
REMARK  4 active torsions:
REMARK  status: ('A' for Active; 'I' for Inactive)
REMARK    1  A    between atoms: C_4  and  C_5 
REMARK    2  A    between atoms: C_7  and  C_8 
REMARK       I    between atoms: C_8  and  N_9 
REMARK    3  A    between atoms: N_9  and  C_10 
REMARK    4  A    between atoms: C_13  and  N_14 
ROOT
HETATM    1  C   UNL     1      25.836  44.146  53.059  1.00  0.00     0.252 C 
HETATM    2  N   UNL     1      26.548  43.243  52.300  1.00  0.00    -0.352 N 
HETATM    3  O   UNL     1      24.617  44.110  53.174  1.00  0.00    -0.268 OA
HETATM    4  H   UNL     1      27.557  43.259  52.395  1.00  0.00     0.163 HD
ENDROOT
BRANCH   1   5
HETATM    5  C   UNL     1      26.614  45.188  53.795  1.00  0.00     0.032 A 
HETATM    6  C   UNL     1      27.584  44.877  54.759  1.00  0.00     0.031 A 
HETATM    7  C   UNL     1      28.291  45.894  55.423  1.00  0.00    -0.001 A 
HETATM    8  C   UNL     1      28.023  47.230  55.090  1.00  0.00     0.014 A 
HETATM    9  C   UNL     1      27.070  47.548  54.122  1.00  0.00     0.002 A 
HETATM   10  C   UNL     1      26.369  46.530  53.477  1.00  0.00     0.017 A 
BRANCH   7  11
HETATM   11  C   UNL     1      29.285  45.576  56.442  1.00  0.00     0.086 A 
HETATM   12  O   UNL     1      30.165  44.574  56.135  1.00  0.00    -0.315 OA
HETATM   13  C   UNL     1      30.973  44.396  57.218  1.00  0.00     0.050 A 
HETATM   14  C   UNL     1      31.992  43.333  57.120  1.00  0.00     0.076 C 
HETATM   15  C   UNL     1      30.638  45.290  58.210  1.00  0.00     0.035 A 
HETATM   16  C   UNL     1      29.548  46.046  57.713  1.00  0.00     0.040 A 
ENDBRANCH   7  11
ENDBRANCH   1   5
BRANCH   2  17
HETATM   17  C   UNL     1      26.011  42.132  51.522  1.00  0.00     0.084 C 
HETATM   18  C   UNL     1      25.422  42.551  50.170  1.00  0.00     0.027 C 
HETATM   19  C   UNL     1      26.446  42.691  49.046  1.00  0.00     0.035 C 
HETATM   20  C   UNL     1      27.422  41.519  48.941  1.00  0.00     0.183 C 
HETATM   21  C   UNL     1      27.976  41.000  50.267  1.00  0.00     0.035 C 
HETATM   22  C   UNL     1      26.949  40.923  51.397  1.00  0.00     0.027 C 
BRANCH  20  23
HETATM   23  N   UNL     1      26.716  40.386  48.260  1.00  0.00    -0.075 N 
HETATM   24  H   UNL     1      27.300  39.546  48.178  1.00  0.00     0.274 HD
HETATM   25  H   UNL     1      25.862  40.126  48.771  1.00  0.00     0.274 HD
HETATM   26  H   UNL     1      26.422  40.657  47.312  1.00  0.00     0.274 HD
ENDBRANCH  20  23
ENDBRANCH   2  17
TORSDOF 4
ENDMDL
MODEL 2
REMARK VINA RESULT:      -8.2      6.583      8.639
REMARK  4 active torsions:
REMARK  status: ('A' for Active; 'I' for Inactive)
REMARK    1  A    between atoms: C_4  and  C_5 
REMARK    2  A    between atoms: C_7  and  C_8 
REMARK       I    between atoms: C_8  and  N_9 
REMARK    3  A    between atoms: N_9  and  C_10 
REMARK    4  A    between atoms: C_13  and  N_14 
ROOT
HETATM    1  C   UNL     1      23.488  49.757  48.030  1.00  0.00     0.252 C 
HETATM    2  N   UNL     1      22.297  49.353  48.595  1.00  0.00    -0.352 N 
HETATM    3  O   UNL     1      23.550  50.515  47.069  1.00  0.00    -0.268 OA
HETATM    4  H   UNL     1      22.353  48.857  49.477  1.00  0.00     0.163 HD
ENDROOT
BRANCH   1   5
HETATM    5  C   UNL     1      24.749  49.262  48.659  1.00  0.00     0.032 A 
HETATM    6  C   UNL     1      24.771  48.249  49.629  1.00  0.00     0.031 A 
HETATM    7  C   UNL     1      25.985  47.817  50.190  1.00  0.00    -0.001 A 
HETATM    8  C   UNL     1      27.179  48.403  49.749  1.00  0.00     0.014 A 
HETATM    9  C   UNL     1      27.168  49.402  48.775  1.00  0.00     0.002 A 
HETATM   10  C   UNL     1      25.957  49.829  48.232  1.00  0.00     0.017 A 
BRANCH   7  11
HETATM   11  C   UNL     1      26.010  46.778  51.215  1.00  0.00     0.086 A 
HETATM   12  O   UNL     1      26.409  45.535  50.805  1.00  0.00    -0.315 OA
HETATM   13  C   UNL     1      26.321  44.704  51.882  1.00  0.00     0.050 A 
HETATM   14  C   UNL     1      26.680  43.290  51.662  1.00  0.00     0.076 C 
HETATM   15  C   UNL     1      25.893  45.406  52.987  1.00  0.00     0.035 A 
HETATM   16  C   UNL     1      25.688  46.739  52.557  1.00  0.00     0.040 A 
ENDBRANCH   7  11
ENDBRANCH   1   5
BRANCH   2  17
HETATM   17  C   UNL     1      20.952  49.726  48.172  1.00  0.00     0.084 C 
HETATM   18  C   UNL     1      19.878  48.699  48.548  1.00  0.00     0.027 C 
HETATM   19  C   UNL     1      19.341  48.831  49.971  1.00  0.00     0.035 C 
HETATM   20  C   UNL     1      18.973  50.261  50.369  1.00  0.00     0.183 C 
HETATM   21  C   UNL     1      19.966  51.341  49.943  1.00  0.00     0.035 C 
HETATM   22  C   UNL     1      20.538  51.159  48.536  1.00  0.00     0.027 C 
BRANCH  20  23
HETATM   23  N   UNL     1      17.646  50.585  49.757  1.00  0.00    -0.075 N 
HETATM   24  H   UNL     1      16.893  50.651  50.452  1.00  0.00     0.274 HD
HETATM   25  H   UNL     1      17.684  51.480  49.250  1.00  0.00     0.274 HD
HETATM   26  H   UNL     1      17.375  49.868  49.070  1.00  0.00     0.274 HD
ENDBRANCH  20  23
ENDBRANCH   2  17
TORSDOF 4
ENDMDL
MODEL 3
REMARK VINA RESULT:      -8.1      2.239      3.307
REMARK  4 active torsions:
REMARK  status: ('A' for Active; 'I' for Inactive)
REMARK    1  A    between atoms: C_4  and  C_5 
REMARK    2  A    between atoms: C_7  and  C_8 
REMARK       I    between atoms: C_8  and  N_9 
REMARK    3  A    between atoms: N_9  and  C_10 
REMARK    4  A    between atoms: C_13  and  N_14 
ROOT
HETATM    1  C   UNL     1      27.207  42.737  50.297  1.00  0.00     0.252 C 
HETATM    2  N   UNL     1      27.500  41.393  50.204  1.00  0.00    -0.352 N 
HETATM    3  O   UNL     1      27.000  43.446  49.320  1.00  0.00    -0.268 OA
HETATM    4  H   UNL     1      27.498  40.863  51.068  1.00  0.00     0.163 HD
ENDROOT
BRANCH   1   5
HETATM    5  C   UNL     1      27.107  43.325  51.667  1.00  0.00     0.032 A 
HETATM    6  C   UNL     1      28.200  43.410  52.542  1.00  0.00     0.031 A 
HETATM    7  C   UNL     1      28.055  43.973  53.822  1.00  0.00    -0.001 A 
HETATM    8  C   UNL     1      26.800  44.469  54.202  1.00  0.00     0.014 A 
HETATM    9  C   UNL     1      25.711  44.402  53.333  1.00  0.00     0.002 A 
HETATM   10  C   UNL     1      25.865  43.832  52.070  1.00  0.00     0.017 A 
BRANCH   7  11
HETATM   11  C   UNL     1      29.184  44.043  54.743  1.00  0.00     0.086 A 
HETATM   12  O   UNL     1      29.112  45.004  55.715  1.00  0.00    -0.315 OA
HETATM   13  C   UNL     1      30.267  44.941  56.436  1.00  0.00     0.050 A 
HETATM   14  C   UNL     1      30.421  45.918  57.532  1.00  0.00     0.076 C 
HETATM   15  C   UNL     1      31.072  43.933  55.953  1.00  0.00     0.035 A 
HETATM   16  C   UNL     1      30.377  43.359  54.861  1.00  0.00     0.040 A 
ENDBRANCH   7  11
ENDBRANCH   1   5
BRANCH   2  17
HETATM   17  C   UNL     1      27.622  40.602  48.985  1.00  0.00     0.084 C 
HETATM   18  C   UNL     1      29.014  39.994  48.779  1.00  0.00     0.027 C 
HETATM   19  C   UNL     1      29.250  38.679  49.517  1.00  0.00     0.035 C 
HETATM   20  C   UNL     1      28.119  37.662  49.358  1.00  0.00     0.183 C 
HETATM   21  C   UNL     1      26.703  38.227  49.467  1.00  0.00     0.035 C 
HETATM   22  C   UNL     1      26.502  39.574  48.772  1.00  0.00     0.027 C 
BRANCH  20  23
HETATM   23  N   UNL     1      28.258  37.020  48.012  1.00  0.00    -0.075 N 
HETATM   24  H   UNL     1      29.198  37.131  47.614  1.00  0.00     0.274 HD
HETATM   25  H   UNL     1      28.055  36.013  48.064  1.00  0.00     0.274 HD
HETATM   26  H   UNL     1      27.586  37.423  47.345  1.00  0.00     0.274 HD
ENDBRANCH  20  23
ENDBRANCH   2  17
TORSDOF 4
ENDMDL
MODEL 4
REMARK VINA RESULT:      -8.1      2.033      2.634
REMARK  4 active torsions:
REMARK  status: ('A' for Active; 'I' for Inactive)
REMARK    1  A    between atoms: C_4  and  C_5 
REMARK    2  A    between atoms: C_7  and  C_8 
REMARK       I    between atoms: C_8  and  N_9 
REMARK    3  A    between atoms: N_9  and  C_10 
REMARK    4  A    between atoms: C_13  and  N_14 
ROOT
HETATM    1  C   UNL     1      25.575  46.556  52.179  1.00  0.00     0.252 C 
HETATM    2  N   UNL     1      25.429  45.345  51.538  1.00  0.00    -0.352 N 
HETATM    3  O   UNL     1      25.028  47.585  51.802  1.00  0.00    -0.268 OA
HETATM    4  H   UNL     1      25.791  44.527  52.015  1.00  0.00     0.163 HD
ENDROOT
BRANCH   1   5
HETATM    5  C   UNL     1      26.420  46.582  53.412  1.00  0.00     0.032 A 
HETATM    6  C   UNL     1      27.410  45.626  53.679  1.00  0.00     0.031 A 
HETATM    7  C   UNL     1      28.179  45.694  54.853  1.00  0.00    -0.001 A 
HETATM    8  C   UNL     1      27.954  46.751  55.746  1.00  0.00     0.014 A 
HETATM    9  C   UNL     1      26.981  47.716  55.482  1.00  0.00     0.002 A 
HETATM   10  C   UNL     1      26.217  47.631  54.318  1.00  0.00     0.017 A 
BRANCH   7  11
HETATM   11  C   UNL     1      29.195  44.689  55.145  1.00  0.00     0.086 A 
HETATM   12  O   UNL     1      29.952  44.901  56.264  1.00  0.00    -0.315 OA
HETATM   13  C   UNL     1      30.863  43.891  56.338  1.00  0.00     0.050 A 
HETATM   14  C   UNL     1      31.815  43.933  57.466  1.00  0.00     0.076 C 
HETATM   15  C   UNL     1      30.685  43.016  55.290  1.00  0.00     0.035 A 
HETATM   16  C   UNL     1      29.615  43.532  54.519  1.00  0.00     0.040 A 
ENDBRANCH   7  11
ENDBRANCH   1   5
BRANCH   2  17
HETATM   17  C   UNL     1      24.638  45.073  50.342  1.00  0.00     0.084 C 
HETATM   18  C   UNL     1      25.475  44.640  49.133  1.00  0.00     0.027 C 
HETATM   19  C   UNL     1      25.823  43.153  49.100  1.00  0.00     0.035 C 
HETATM   20  C   UNL     1      24.637  42.228  49.375  1.00  0.00     0.183 C 
HETATM   21  C   UNL     1      23.715  42.657  50.516  1.00  0.00     0.035 C 
HETATM   22  C   UNL     1      23.426  44.158  50.568  1.00  0.00     0.027 C 
BRANCH  20  23
HETATM   23  N   UNL     1      23.816  42.143  48.125  1.00  0.00    -0.075 N 
HETATM   24  H   UNL     1      24.086  41.354  47.526  1.00  0.00     0.274 HD
HETATM   25  H   UNL     1      22.817  42.039  48.348  1.00  0.00     0.274 HD
HETATM   26  H   UNL     1      23.907  43.004  47.569  1.00  0.00     0.274 HD
ENDBRANCH  20  23
ENDBRANCH   2  17
TORSDOF 4
ENDMDL
MODEL 5
REMARK VINA RESULT:      -8.0      2.373      3.241
REMARK  4 active torsions:
REMARK  status: ('A' for Active; 'I' for Inactive)
REMARK    1  A    between atoms: C_4  and  C_5 
REMARK    2  A    between atoms: C_7  and  C_8 
REMARK       I    between atoms: C_8  and  N_9 
REMARK    3  A    between atoms: N_9  and  C_10 
REMARK    4  A    between atoms: C_13  and  N_14 
ROOT
HETATM    1  C   UNL     1      28.586  40.995  51.765  1.00  0.00     0.252 C 
HETATM    2  N   UNL     1      28.000  41.030  50.518  1.00  0.00    -0.352 N 
HETATM    3  O   UNL     1      29.155  40.005  52.210  1.00  0.00    -0.268 OA
HETATM    4  H   UNL     1      27.696  41.936  50.180  1.00  0.00     0.163 HD
ENDROOT
BRANCH   1   5
HETATM    5  C   UNL     1      28.543  42.247  52.579  1.00  0.00     0.032 A 
HETATM    6  C   UNL     1      29.353  42.452  53.706  1.00  0.00     0.031 A 
HETATM    7  C   UNL     1      29.276  43.649  54.439  1.00  0.00    -0.001 A 
HETATM    8  C   UNL     1      28.388  44.646  54.011  1.00  0.00     0.014 A 
HETATM    9  C   UNL     1      27.590  44.457  52.883  1.00  0.00     0.002 A 
HETATM   10  C   UNL     1      27.668  43.261  52.170  1.00  0.00     0.017 A 
BRANCH   7  11
HETATM   11  C   UNL     1      30.100  43.858  55.624  1.00  0.00     0.086 A 
HETATM   12  O   UNL     1      29.827  44.978  56.361  1.00  0.00    -0.315 OA
HETATM   13  C   UNL     1      30.723  45.019  57.387  1.00  0.00     0.050 A 
HETATM   14  C   UNL     1      30.632  46.172  58.304  1.00  0.00     0.076 C 
HETATM   15  C   UNL     1      31.555  43.923  57.333  1.00  0.00     0.035 A 
HETATM   16  C   UNL     1      31.158  43.178  56.196  1.00  0.00     0.040 A 
ENDBRANCH   7  11
ENDBRANCH   1   5
BRANCH   2  17
HETATM   17  C   UNL     1      27.942  39.947  49.543  1.00  0.00     0.084 C 
HETATM   18  C   UNL     1      26.526  39.412  49.296  1.00  0.00     0.027 C 
HETATM   19  C   UNL     1      25.711  40.211  48.283  1.00  0.00     0.035 C 
HETATM   20  C   UNL     1      26.465  40.538  46.994  1.00  0.00     0.183 C 
HETATM   21  C   UNL     1      27.912  40.994  47.172  1.00  0.00     0.035 C 
HETATM   22  C   UNL     1      28.695  40.220  48.234  1.00  0.00     0.027 C 
BRANCH  20  23
HETATM   23  N   UNL     1      26.470  39.310  46.135  1.00  0.00    -0.075 N 
HETATM   24  H   UNL     1      26.509  38.443  46.684  1.00  0.00     0.274 HD
HETATM   25  H   UNL     1      25.628  39.272  45.545  1.00  0.00     0.274 HD
HETATM   26  H   UNL     1      27.277  39.314  45.498  1.00  0.00     0.274 HD
ENDBRANCH  20  23
ENDBRANCH   2  17
TORSDOF 4
ENDMDL
MODEL 6
REMARK VINA RESULT:      -8.0      5.206      6.927
REMARK  4 active torsions:
REMARK  status: ('A' for Active; 'I' for Inactive)
REMARK    1  A    between atoms: C_4  and  C_5 
REMARK    2  A    between atoms: C_7  and  C_8 
REMARK       I    between atoms: C_8  and  N_9 
REMARK    3  A    between atoms: N_9  and  C_10 
REMARK    4  A    between atoms: C_13  and  N_14 
ROOT
HETATM    1  C   UNL     1      24.452  47.947  49.936  1.00  0.00     0.252 C 
HETATM    2  N   UNL     1      23.102  48.121  49.719  1.00  0.00    -0.352 N 
HETATM    3  O   UNL     1      25.308  48.675  49.446  1.00  0.00    -0.268 OA
HETATM    4  H   UNL     1      22.472  47.570  50.291  1.00  0.00     0.163 HD
ENDROOT
BRANCH   1   5
HETATM    5  C   UNL     1      24.865  46.834  50.843  1.00  0.00     0.032 A 
HETATM    6  C   UNL     1      25.760  47.009  51.908  1.00  0.00     0.031 A 
HETATM    7  C   UNL     1      26.116  45.929  52.734  1.00  0.00    -0.001 A 
HETATM    8  C   UNL     1      25.542  44.674  52.488  1.00  0.00     0.014 A 
HETATM    9  C   UNL     1      24.640  44.494  51.440  1.00  0.00     0.002 A 
HETATM   10  C   UNL     1      24.302  45.570  50.621  1.00  0.00     0.017 A 
BRANCH   7  11
HETATM   11  C   UNL     1      27.064  46.103  53.829  1.00  0.00     0.086 A 
HETATM   12  O   UNL     1      28.000  45.116  53.980  1.00  0.00    -0.315 OA
HETATM   13  C   UNL     1      28.753  45.433  55.071  1.00  0.00     0.050 A 
HETATM   14  C   UNL     1      29.818  44.481  55.444  1.00  0.00     0.076 C 
HETATM   15  C   UNL     1      28.327  46.627  55.609  1.00  0.00     0.035 A 
HETATM   16  C   UNL     1      27.238  47.056  54.813  1.00  0.00     0.040 A 
ENDBRANCH   7  11
ENDBRANCH   1   5
BRANCH   2  17
HETATM   17  C   UNL     1      22.467  49.148  48.901  1.00  0.00     0.084 C 
HETATM   18  C   UNL     1      21.022  48.821  48.508  1.00  0.00     0.027 C 
HETATM   19  C   UNL     1      19.979  49.182  49.563  1.00  0.00     0.035 C 
HETATM   20  C   UNL     1      20.142  50.585  50.147  1.00  0.00     0.183 C 
HETATM   21  C   UNL     1      21.575  51.001  50.477  1.00  0.00     0.035 C 
HETATM   22  C   UNL     1      22.614  50.579  49.438  1.00  0.00     0.027 C 
BRANCH  20  23
HETATM   23  N   UNL     1      19.592  51.566  49.157  1.00  0.00    -0.075 N 
HETATM   24  H   UNL     1      19.676  51.241  48.187  1.00  0.00     0.274 HD
HETATM   25  H   UNL     1      18.597  51.754  49.340  1.00  0.00     0.274 HD
HETATM   26  H   UNL     1      20.081  52.469  49.228  1.00  0.00     0.274 HD
ENDBRANCH  20  23
ENDBRANCH   2  17
TORSDOF 4
ENDMDL
MODEL 7
REMARK VINA RESULT:      -7.7      4.977      8.278
REMARK  4 active torsions:
REMARK  status: ('A' for Active; 'I' for Inactive)
REMARK    1  A    between atoms: C_4  and  C_5 
REMARK    2  A    between atoms: C_7  and  C_8 
REMARK       I    between atoms: C_8  and  N_9 
REMARK    3  A    between atoms: N_9  and  C_10 
REMARK    4  A    between atoms: C_13  and  N_14 
ROOT
HETATM    1  C   UNL     1      25.343  45.720  51.077  1.00  0.00     0.252 C 
HETATM    2  N   UNL     1      26.449  45.413  51.841  1.00  0.00    -0.352 N 
HETATM    3  O   UNL     1      24.337  45.022  51.044  1.00  0.00    -0.268 OA
HETATM    4  H   UNL     1      27.162  46.129  51.924  1.00  0.00     0.163 HD
ENDROOT
BRANCH   1   5
HETATM    5  C   UNL     1      25.384  46.989  50.289  1.00  0.00     0.032 A 
HETATM    6  C   UNL     1      24.234  47.724  49.965  1.00  0.00     0.031 A 
HETATM    7  C   UNL     1      24.325  48.913  49.222  1.00  0.00    -0.001 A 
HETATM    8  C   UNL     1      25.591  49.365  48.826  1.00  0.00     0.014 A 
HETATM    9  C   UNL     1      26.742  48.649  49.156  1.00  0.00     0.002 A 
HETATM   10  C   UNL     1      26.638  47.465  49.886  1.00  0.00     0.017 A 
BRANCH   7  11
HETATM   11  C   UNL     1      23.129  49.668  48.864  1.00  0.00     0.086 A 
HETATM   12  O   UNL     1      22.008  48.932  48.592  1.00  0.00    -0.315 OA
HETATM   13  C   UNL     1      21.024  49.805  48.237  1.00  0.00     0.050 A 
HETATM   14  C   UNL     1      19.719  49.222  47.869  1.00  0.00     0.076 C 
HETATM   15  C   UNL     1      21.493  51.098  48.301  1.00  0.00     0.035 A 
HETATM   16  C   UNL     1      22.849  51.010  48.700  1.00  0.00     0.040 A 
ENDBRANCH   7  11
ENDBRANCH   1   5
BRANCH   2  17
HETATM   17  C   UNL     1      26.625  44.252  52.706  1.00  0.00     0.084 C 
HETATM   18  C   UNL     1      27.618  43.219  52.159  1.00  0.00     0.027 C 
HETATM   19  C   UNL     1      29.083  43.522  52.463  1.00  0.00     0.035 C 
HETATM   20  C   UNL     1      29.353  43.906  53.918  1.00  0.00     0.183 C 
HETATM   21  C   UNL     1      28.344  44.868  54.546  1.00  0.00     0.035 C 
HETATM   22  C   UNL     1      26.886  44.583  54.181  1.00  0.00     0.027 C 
BRANCH  20  23
HETATM   23  N   UNL     1      29.364  42.651  54.735  1.00  0.00    -0.075 N 
HETATM   24  H   UNL     1      29.827  42.772  55.643  1.00  0.00     0.274 HD
HETATM   25  H   UNL     1      28.406  42.319  54.912  1.00  0.00     0.274 HD
HETATM   26  H   UNL     1      29.850  41.894  54.235  1.00  0.00     0.274 HD
ENDBRANCH  20  23
ENDBRANCH   2  17
TORSDOF 4
ENDMDL
MODEL 8
REMARK VINA RESULT:      -7.6      2.269      4.155
REMARK  4 active torsions:
REMARK  status: ('A' for Active; 'I' for Inactive)
REMARK    1  A    between atoms: C_4  and  C_5 
REMARK    2  A    between atoms: C_7  and  C_8 
REMARK       I    between atoms: C_8  and  N_9 
REMARK    3  A    between atoms: N_9  and  C_10 
REMARK    4  A    between atoms: C_13  and  N_14 
ROOT
HETATM    1  C   UNL     1      28.551  41.192  52.563  1.00  0.00     0.252 C 
HETATM    2  N   UNL     1      27.903  41.336  51.354  1.00  0.00    -0.352 N 
HETATM    3  O   UNL     1      28.969  40.117  52.974  1.00  0.00    -0.268 OA
HETATM    4  H   UNL     1      27.738  42.283  51.033  1.00  0.00     0.163 HD
ENDROOT
BRANCH   1   5
HETATM    5  C   UNL     1      28.772  42.427  53.375  1.00  0.00     0.032 A 
HETATM    6  C   UNL     1      27.906  43.530  53.337  1.00  0.00     0.031 A 
HETATM    7  C   UNL     1      28.157  44.668  54.121  1.00  0.00    -0.001 A 
HETATM    8  C   UNL     1      29.279  44.675  54.961  1.00  0.00     0.014 A 
HETATM    9  C   UNL     1      30.138  43.577  55.016  1.00  0.00     0.002 A 
HETATM   10  C   UNL     1      29.884  42.457  54.226  1.00  0.00     0.017 A 
BRANCH   7  11
HETATM   11  C   UNL     1      27.271  45.826  54.068  1.00  0.00     0.086 A 
HETATM   12  O   UNL     1      27.361  46.704  55.114  1.00  0.00    -0.315 OA
HETATM   13  C   UNL     1      26.433  47.681  54.907  1.00  0.00     0.050 A 
HETATM   14  C   UNL     1      26.332  48.732  55.937  1.00  0.00     0.076 C 
HETATM   15  C   UNL     1      25.763  47.453  53.725  1.00  0.00     0.035 A 
HETATM   16  C   UNL     1      26.298  46.257  53.188  1.00  0.00     0.040 A 
ENDBRANCH   7  11
ENDBRANCH   1   5
BRANCH   2  17
HETATM   17  C   UNL     1      27.602  40.286  50.387  1.00  0.00     0.084 C 
HETATM   18  C   UNL     1      26.104  40.000  50.233  1.00  0.00     0.027 C 
HETATM   19  C   UNL     1      25.373  40.934  49.271  1.00  0.00     0.035 C 
HETATM   20  C   UNL     1      26.089  41.139  47.936  1.00  0.00     0.183 C 
HETATM   21  C   UNL     1      27.601  41.343  48.021  1.00  0.00     0.035 C 
HETATM   22  C   UNL     1      28.307  40.439  49.032  1.00  0.00     0.027 C 
BRANCH  20  23
HETATM   23  N   UNL     1      25.832  39.936  47.082  1.00  0.00    -0.075 N 
HETATM   24  H   UNL     1      24.957  39.456  47.325  1.00  0.00     0.274 HD
HETATM   25  H   UNL     1      25.783  40.195  46.087  1.00  0.00     0.274 HD
HETATM   26  H   UNL     1      26.597  39.254  47.172  1.00  0.00     0.274 HD
ENDBRANCH  20  23
ENDBRANCH   2  17
TORSDOF 4
ENDMDL
MODEL 9
REMARK VINA RESULT:      -7.5      2.776      4.070
REMARK  4 active torsions:
REMARK  status: ('A' for Active; 'I' for Inactive)
REMARK    1  A    between atoms: C_4  and  C_5 
REMARK    2  A    between atoms: C_7  and  C_8 
REMARK       I    between atoms: C_8  and  N_9 
REMARK    3  A    between atoms: N_9  and  C_10 
REMARK    4  A    between atoms: C_13  and  N_14 
ROOT
HETATM    1  C   UNL     1      28.801  40.409  51.298  1.00  0.00     0.252 C 
HETATM    2  N   UNL     1      28.603  40.362  49.934  1.00  0.00    -0.352 N 
HETATM    3  O   UNL     1      29.357  39.515  51.925  1.00  0.00    -0.268 OA
HETATM    4  H   UNL     1      28.279  41.213  49.489  1.00  0.00     0.163 HD
ENDROOT
BRANCH   1   5
HETATM    5  C   UNL     1      28.338  41.634  52.017  1.00  0.00     0.032 A 
HETATM    6  C   UNL     1      29.080  42.246  53.037  1.00  0.00     0.031 A 
HETATM    7  C   UNL     1      28.602  43.399  53.684  1.00  0.00    -0.001 A 
HETATM    8  C   UNL     1      27.375  43.941  53.275  1.00  0.00     0.014 A 
HETATM    9  C   UNL     1      26.636  43.347  52.251  1.00  0.00     0.002 A 
HETATM   10  C   UNL     1      27.117  42.198  51.624  1.00  0.00     0.017 A 
BRANCH   7  11
HETATM   11  C   UNL     1      29.360  44.025  54.760  1.00  0.00     0.086 A 
HETATM   12  O   UNL     1      30.356  43.270  55.317  1.00  0.00    -0.315 OA
HETATM   13  C   UNL     1      30.909  44.004  56.323  1.00  0.00     0.050 A 
HETATM   14  C   UNL     1      31.997  43.367  57.091  1.00  0.00     0.076 C 
HETATM   15  C   UNL     1      30.296  45.234  56.404  1.00  0.00     0.035 A 
HETATM   16  C   UNL     1      29.296  45.247  55.402  1.00  0.00     0.040 A 
ENDBRANCH   7  11
ENDBRANCH   1   5
BRANCH   2  17
HETATM   17  C   UNL     1      28.992  39.290  49.025  1.00  0.00     0.084 C 
HETATM   18  C   UNL     1      28.973  37.898  49.667  1.00  0.00     0.027 C 
HETATM   19  C   UNL     1      27.602  37.225  49.687  1.00  0.00     0.035 C 
HETATM   20  C   UNL     1      26.858  37.285  48.352  1.00  0.00     0.183 C 
HETATM   21  C   UNL     1      26.917  38.626  47.623  1.00  0.00     0.035 C 
HETATM   22  C   UNL     1      28.283  39.312  47.664  1.00  0.00     0.027 C 
BRANCH  20  23
HETATM   23  N   UNL     1      27.441  36.241  47.449  1.00  0.00    -0.075 N 
HETATM   24  H   UNL     1      28.006  36.643  46.691  1.00  0.00     0.274 HD
HETATM   25  H   UNL     1      28.040  35.592  47.977  1.00  0.00     0.274 HD
HETATM   26  H   UNL     1      26.698  35.675  47.019  1.00  0.00     0.274 HD
ENDBRANCH  20  23
ENDBRANCH   2  17
TORSDOF 4
ENDMDL
MODEL 10
REMARK VINA RESULT:      -7.4     14.983     17.831
REMARK  4 active torsions:
REMARK  status: ('A' for Active; 'I' for Inactive)
REMARK    1  A    between atoms: C_4  and  C_5 
REMARK    2  A    between atoms: C_7  and  C_8 
REMARK       I    between atoms: C_8  and  N_9 
REMARK    3  A    between atoms: N_9  and  C_10 
REMARK    4  A    between atoms: C_13  and  N_14 
ROOT
HETATM    1  C   UNL     1      40.420  45.662  63.994  1.00  0.00     0.252 C 
HETATM    2  N   UNL     1      39.711  46.715  64.532  1.00  0.00    -0.352 N 
HETATM    3  O   UNL     1      41.620  45.715  63.757  1.00  0.00    -0.268 OA
HETATM    4  H   UNL     1      38.764  46.522  64.837  1.00  0.00     0.163 HD
ENDROOT
BRANCH   1   5
HETATM    5  C   UNL     1      39.672  44.395  63.730  1.00  0.00     0.032 A 
HETATM    6  C   UNL     1      40.228  43.124  63.937  1.00  0.00     0.031 A 
HETATM    7  C   UNL     1      39.484  41.962  63.675  1.00  0.00    -0.001 A 
HETATM    8  C   UNL     1      38.163  42.095  63.222  1.00  0.00     0.014 A 
HETATM    9  C   UNL     1      37.597  43.354  63.028  1.00  0.00     0.002 A 
HETATM   10  C   UNL     1      38.350  44.501  63.282  1.00  0.00     0.017 A 
BRANCH   7  11
HETATM   11  C   UNL     1      40.065  40.638  63.867  1.00  0.00     0.086 A 
HETATM   12  O   UNL     1      41.152  40.570  64.695  1.00  0.00    -0.315 OA
HETATM   13  C   UNL     1      41.574  39.274  64.708  1.00  0.00     0.050 A 
HETATM   14  C   UNL     1      42.766  38.970  65.523  1.00  0.00     0.076 C 
HETATM   15  C   UNL     1      40.755  38.502  63.915  1.00  0.00     0.035 A 
HETATM   16  C   UNL     1      39.787  39.380  63.370  1.00  0.00     0.040 A 
ENDBRANCH   7  11
ENDBRANCH   1   5
BRANCH   2  17
HETATM   17  C   UNL     1      40.229  48.030  64.895  1.00  0.00     0.084 C 
HETATM   18  C   UNL     1      39.356  49.193  64.413  1.00  0.00     0.027 C 
HETATM   19  C   UNL     1      38.183  49.532  65.329  1.00  0.00     0.035 C 
HETATM   20  C   UNL     1      38.555  49.630  66.809  1.00  0.00     0.183 C 
HETATM   21  C   UNL     1      39.496  48.544  67.327  1.00  0.00     0.035 C 
HETATM   22  C   UNL     1      40.631  48.177  66.369  1.00  0.00     0.027 C 
BRANCH  20  23
HETATM   23  N   UNL     1      39.213  50.957  67.034  1.00  0.00    -0.075 N 
HETATM   24  H   UNL     1      40.234  50.886  67.108  1.00  0.00     0.274 HD
HETATM   25  H   UNL     1      38.997  51.609  66.268  1.00  0.00     0.274 HD
HETATM   26  H   UNL     1      38.866  51.394  67.900  1.00  0.00     0.274 HD
ENDBRANCH  20  23
ENDBRANCH   2  17
TORSDOF 4
ENDMDL
