MODEL 1
REMARK VINA RESULT:     -10.0      0.000      0.000
REMARK  8 active torsions:
REMARK  status: ('A' for Active; 'I' for Inactive)
REMARK    1  A    between atoms: C_3  and  N_4 
REMARK       I    between atoms: N_4  and  C_5 
REMARK    2  A    between atoms: C_5  and  C_6 
REMARK    3  A    between atoms: C_6  and  S_7 
REMARK    4  A    between atoms: S_7  and  C_8 
REMARK    5  A    between atoms: N_9  and  C_10 
REMARK    6  A    between atoms: C_10  and  C_11 
REMARK       I    between atoms: C_11  and  N_12 
REMARK    7  A    between atoms: N_12  and  C_13 
REMARK    8  A    between atoms: C_20  and  C_21 
ROOT
HETATM    1  C   UNL     1      27.362  44.322  52.079  1.00  0.00     0.169 A 
HETATM    2  N   UNL     1      28.408  43.815  52.816  1.00  0.00    -0.315 N 
HETATM    3  C   UNL     1      28.359  44.427  54.060  1.00  0.00     0.065 A 
HETATM    4  C   UNL     1      27.194  45.175  54.020  1.00  0.00     0.150 A 
HETATM    5  N   UNL     1      26.574  45.080  52.803  1.00  0.00    -0.234 NA
ENDROOT
BRANCH   1   6
HETATM    6  S   UNL     1      27.164  44.034  50.383  1.00  0.00    -0.083 SA
BRANCH   6   7
HETATM    7  C   UNL     1      25.626  43.080  50.346  1.00  0.00     0.185 C 
BRANCH   7   8
HETATM    8  C   UNL     1      24.396  43.975  50.279  1.00  0.00     0.231 C 
HETATM    9  N   UNL     1      24.500  44.972  49.326  1.00  0.00    -0.326 N 
HETATM   10  H   UNL     1      25.396  45.012  48.839  1.00  0.00     0.169 HD
HETATM   11  O   UNL     1      23.483  43.837  51.090  1.00  0.00    -0.272 OA
BRANCH   9  12
HETATM   12  C   UNL     1      23.636  46.074  49.136  1.00  0.00     0.046 A 
HETATM   13  C   UNL     1      24.104  47.338  49.576  1.00  0.00    -0.035 A 
HETATM   14  C   UNL     1      25.445  47.512  50.242  1.00  0.00     0.050 C 
HETATM   15  C   UNL     1      23.286  48.472  49.437  1.00  0.00     0.009 A 
HETATM   16  C   UNL     1      22.023  48.366  48.871  1.00  0.00     0.001 A 
HETATM   17  C   UNL     1      21.575  47.133  48.409  1.00  0.00     0.009 A 
HETATM   18  C   UNL     1      22.380  45.981  48.505  1.00  0.00    -0.035 A 
HETATM   19  C   UNL     1      21.847  44.733  47.854  1.00  0.00     0.050 C 
ENDBRANCH   9  12
ENDBRANCH   7   8
ENDBRANCH   6   7
ENDBRANCH   1   6
BRANCH   2  20
HETATM   20  C   UNL     1      29.300  42.740  52.407  1.00  0.00     0.234 C 
BRANCH  20  21
HETATM   21  C   UNL     1      28.731  41.344  52.277  1.00  0.00     0.236 C 
HETATM   22  N   UNL     1      28.712  40.748  51.042  1.00  0.00    -0.355 N 
HETATM   23  H   UNL     1      29.122  41.251  50.266  1.00  0.00     0.162 HD
HETATM   24  O   UNL     1      28.310  40.796  53.294  1.00  0.00    -0.272 OA
BRANCH  22  25
HETATM   25  C   UNL     1      28.406  39.340  50.765  1.00  0.00     0.084 C 
HETATM   26  C   UNL     1      27.398  39.176  49.620  1.00  0.00     0.025 C 
HETATM   27  C   UNL     1      28.034  39.090  48.240  1.00  0.00     0.002 C 
HETATM   28  C   UNL     1      29.074  37.980  48.187  1.00  0.00     0.000 C 
HETATM   29  C   UNL     1      30.161  38.155  49.241  1.00  0.00     0.002 C 
HETATM   30  C   UNL     1      29.616  38.398  50.650  1.00  0.00     0.025 C 
ENDBRANCH  22  25
ENDBRANCH  20  21
ENDBRANCH   2  20
BRANCH   3  31
HETATM   31  C   UNL     1      29.365  44.365  55.115  1.00  0.00    -0.008 A 
HETATM   32  C   UNL     1      30.225  43.270  55.258  1.00  0.00     0.017 A 
HETATM   33  C   UNL     1      31.177  43.250  56.281  1.00  0.00     0.043 A 
HETATM   34  C   UNL     1      31.256  44.315  57.171  1.00  0.00     0.116 A 
HETATM   35  F   UNL     1      32.167  44.291  58.152  1.00  0.00    -0.206 F 
HETATM   36  C   UNL     1      30.396  45.400  57.062  1.00  0.00     0.043 A 
HETATM   37  C   UNL     1      29.451  45.424  56.035  1.00  0.00     0.017 A 
ENDBRANCH   3  31
TORSDOF 8
ENDMDL
MODEL 2
REMARK VINA RESULT:      -9.9      1.763      2.240
REMARK  8 active torsions:
REMARK  status: ('A' for Active; 'I' for Inactive)
REMARK    1  A    between atoms: C_3  and  N_4 
REMARK       I    between atoms: N_4  and  C_5 
REMARK    2  A    between atoms: C_5  and  C_6 
REMARK    3  A    between atoms: C_6  and  S_7 
REMARK    4  A    between atoms: S_7  and  C_8 
REMARK    5  A    between atoms: N_9  and  C_10 
REMARK    6  A    between atoms: C_10  and  C_11 
REMARK       I    between atoms: C_11  and  N_12 
REMARK    7  A    between atoms: N_12  and  C_13 
REMARK    8  A    between atoms: C_20  and  C_21 
ROOT
HETATM    1  C   UNL     1      25.277  44.150  51.864  1.00  0.00     0.169 A 
HETATM    2  N   UNL     1      26.559  43.723  52.126  1.00  0.00    -0.315 N 
HETATM    3  C   UNL     1      26.802  43.976  53.468  1.00  0.00     0.065 A 
HETATM    4  C   UNL     1      25.585  44.429  53.950  1.00  0.00     0.150 A 
HETATM    5  N   UNL     1      24.645  44.505  52.959  1.00  0.00    -0.234 NA
ENDROOT
BRANCH   1   6
HETATM    6  S   UNL     1      24.616  44.260  50.268  1.00  0.00    -0.083 SA
BRANCH   6   7
HETATM    7  C   UNL     1      25.378  45.783  49.655  1.00  0.00     0.185 C 
BRANCH   7   8
HETATM    8  C   UNL     1      24.532  47.011  49.957  1.00  0.00     0.231 C 
HETATM    9  N   UNL     1      23.799  47.449  48.867  1.00  0.00    -0.326 N 
HETATM   10  H   UNL     1      23.962  46.932  48.003  1.00  0.00     0.169 HD
HETATM   11  O   UNL     1      24.618  47.572  51.047  1.00  0.00    -0.272 OA
BRANCH   9  12
HETATM   12  C   UNL     1      23.071  48.653  48.749  1.00  0.00     0.046 A 
HETATM   13  C   UNL     1      23.817  49.829  48.478  1.00  0.00    -0.035 A 
HETATM   14  C   UNL     1      25.318  49.816  48.348  1.00  0.00     0.050 C 
HETATM   15  C   UNL     1      23.157  51.064  48.369  1.00  0.00     0.009 A 
HETATM   16  C   UNL     1      21.780  51.145  48.522  1.00  0.00     0.001 A 
HETATM   17  C   UNL     1      21.042  49.989  48.755  1.00  0.00     0.009 A 
HETATM   18  C   UNL     1      21.667  48.729  48.840  1.00  0.00    -0.035 A 
HETATM   19  C   UNL     1      20.759  47.535  48.962  1.00  0.00     0.050 C 
ENDBRANCH   9  12
ENDBRANCH   7   8
ENDBRANCH   6   7
ENDBRANCH   1   6
BRANCH   2  20
HETATM   20  C   UNL     1      27.429  43.015  51.200  1.00  0.00     0.234 C 
BRANCH  20  21
HETATM   21  C   UNL     1      27.123  41.565  50.891  1.00  0.00     0.236 C 
HETATM   22  N   UNL     1      28.136  40.751  50.456  1.00  0.00    -0.355 N 
HETATM   23  H   UNL     1      29.068  41.143  50.399  1.00  0.00     0.162 HD
HETATM   24  O   UNL     1      25.968  41.174  51.050  1.00  0.00    -0.272 OA
BRANCH  22  25
HETATM   25  C   UNL     1      28.077  39.292  50.319  1.00  0.00     0.084 C 
HETATM   26  C   UNL     1      27.234  38.851  49.116  1.00  0.00     0.025 C 
HETATM   27  C   UNL     1      28.021  38.728  47.818  1.00  0.00     0.002 C 
HETATM   28  C   UNL     1      29.215  37.801  47.991  1.00  0.00     0.000 C 
HETATM   29  C   UNL     1      30.144  38.256  49.110  1.00  0.00     0.002 C 
HETATM   30  C   UNL     1      29.420  38.550  50.426  1.00  0.00     0.025 C 
ENDBRANCH  22  25
ENDBRANCH  20  21
ENDBRANCH   2  20
BRANCH   3  31
HETATM   31  C   UNL     1      28.078  43.880  54.168  1.00  0.00    -0.008 A 
HETATM   32  C   UNL     1      28.852  42.714  54.144  1.00  0.00     0.017 A 
HETATM   33  C   UNL     1      30.071  42.662  54.826  1.00  0.00     0.043 A 
HETATM   34  C   UNL     1      30.506  43.769  55.546  1.00  0.00     0.116 A 
HETATM   35  F   UNL     1      31.673  43.715  56.200  1.00  0.00    -0.206 F 
HETATM   36  C   UNL     1      29.743  44.927  55.604  1.00  0.00     0.043 A 
HETATM   37  C   UNL     1      28.529  44.982  54.915  1.00  0.00     0.017 A 
ENDBRANCH   3  31
TORSDOF 8
ENDMDL
MODEL 3
REMARK VINA RESULT:      -9.8      2.391      3.447
REMARK  8 active torsions:
REMARK  status: ('A' for Active; 'I' for Inactive)
REMARK    1  A    between atoms: C_3  and  N_4 
REMARK       I    between atoms: N_4  and  C_5 
REMARK    2  A    between atoms: C_5  and  C_6 
REMARK    3  A    between atoms: C_6  and  S_7 
REMARK    4  A    between atoms: S_7  and  C_8 
REMARK    5  A    between atoms: N_9  and  C_10 
REMARK    6  A    between atoms: C_10  and  C_11 
REMARK       I    between atoms: C_11  and  N_12 
REMARK    7  A    between atoms: N_12  and  C_13 
REMARK    8  A    between atoms: C_20  and  C_21 
ROOT
HETATM    1  C   UNL     1      25.618  46.786  51.482  1.00  0.00     0.169 A 
HETATM    2  N   UNL     1      26.552  45.790  51.655  1.00  0.00    -0.315 N 
HETATM    3  C   UNL     1      26.721  45.630  53.023  1.00  0.00     0.065 A 
HETATM    4  C   UNL     1      25.769  46.467  53.580  1.00  0.00     0.150 A 
HETATM    5  N   UNL     1      25.076  47.153  52.619  1.00  0.00    -0.234 NA
ENDROOT
BRANCH   1   6
HETATM    6  S   UNL     1      25.261  47.500  49.946  1.00  0.00    -0.083 SA
BRANCH   6   7
HETATM    7  C   UNL     1      23.711  46.675  49.504  1.00  0.00     0.185 C 
BRANCH   7   8
HETATM    8  C   UNL     1      22.763  47.597  48.750  1.00  0.00     0.231 C 
HETATM    9  N   UNL     1      22.196  48.569  49.554  1.00  0.00    -0.326 N 
HETATM   10  H   UNL     1      22.439  48.508  50.543  1.00  0.00     0.169 HD
HETATM   11  O   UNL     1      22.491  47.378  47.572  1.00  0.00    -0.272 OA
BRANCH   9  12
HETATM   12  C   UNL     1      21.143  49.452  49.223  1.00  0.00     0.046 A 
HETATM   13  C   UNL     1      21.511  50.747  48.776  1.00  0.00    -0.035 A 
HETATM   14  C   UNL     1      22.950  51.186  48.679  1.00  0.00     0.050 C 
HETATM   15  C   UNL     1      20.514  51.681  48.450  1.00  0.00     0.009 A 
HETATM   16  C   UNL     1      19.171  51.349  48.562  1.00  0.00     0.001 A 
HETATM   17  C   UNL     1      18.808  50.069  48.969  1.00  0.00     0.009 A 
HETATM   18  C   UNL     1      19.781  49.097  49.274  1.00  0.00    -0.035 A 
HETATM   19  C   UNL     1      19.276  47.712  49.574  1.00  0.00     0.050 C 
ENDBRANCH   9  12
ENDBRANCH   7   8
ENDBRANCH   6   7
ENDBRANCH   1   6
BRANCH   2  20
HETATM   20  C   UNL     1      27.137  44.974  50.603  1.00  0.00     0.234 C 
BRANCH  20  21
HETATM   21  C   UNL     1      26.470  43.660  50.258  1.00  0.00     0.236 C 
HETATM   22  N   UNL     1      27.244  42.622  49.806  1.00  0.00    -0.355 N 
HETATM   23  H   UNL     1      28.245  42.762  49.760  1.00  0.00     0.162 HD
HETATM   24  O   UNL     1      25.252  43.576  50.404  1.00  0.00    -0.272 OA
BRANCH  22  25
HETATM   25  C   UNL     1      26.812  41.231  49.634  1.00  0.00     0.084 C 
HETATM   26  C   UNL     1      26.334  40.939  48.205  1.00  0.00     0.025 C 
HETATM   27  C   UNL     1      27.440  40.490  47.260  1.00  0.00     0.002 C 
HETATM   28  C   UNL     1      28.181  39.286  47.823  1.00  0.00     0.000 C 
HETATM   29  C   UNL     1      28.767  39.559  49.202  1.00  0.00     0.002 C 
HETATM   30  C   UNL     1      27.762  40.157  50.189  1.00  0.00     0.025 C 
ENDBRANCH  22  25
ENDBRANCH  20  21
ENDBRANCH   2  20
BRANCH   3  31
HETATM   31  C   UNL     1      27.741  44.836  53.700  1.00  0.00    -0.008 A 
HETATM   32  C   UNL     1      27.925  43.475  53.428  1.00  0.00     0.017 A 
HETATM   33  C   UNL     1      28.915  42.750  54.096  1.00  0.00     0.043 A 
HETATM   34  C   UNL     1      29.707  43.379  55.049  1.00  0.00     0.116 A 
HETATM   35  F   UNL     1      30.653  42.681  55.690  1.00  0.00    -0.206 F 
HETATM   36  C   UNL     1      29.525  44.722  55.352  1.00  0.00     0.043 A 
HETATM   37  C   UNL     1      28.542  45.449  54.678  1.00  0.00     0.017 A 
ENDBRANCH   3  31
TORSDOF 8
ENDMDL
MODEL 4
REMARK VINA RESULT:      -9.7      1.318      2.299
REMARK  8 active torsions:
REMARK  status: ('A' for Active; 'I' for Inactive)
REMARK    1  A    between atoms: C_3  and  N_4 
REMARK       I    between atoms: N_4  and  C_5 
REMARK    2  A    between atoms: C_5  and  C_6 
REMARK    3  A    between atoms: C_6  and  S_7 
REMARK    4  A    between atoms: S_7  and  C_8 
REMARK    5  A    between atoms: N_9  and  C_10 
REMARK    6  A    between atoms: C_10  and  C_11 
REMARK       I    between atoms: C_11  and  N_12 
REMARK    7  A    between atoms: N_12  and  C_13 
REMARK    8  A    between atoms: C_20  and  C_21 
ROOT
HETATM    1  C   UNL     1      26.919  44.831  52.302  1.00  0.00     0.169 A 
HETATM    2  N   UNL     1      28.025  44.211  52.836  1.00  0.00    -0.315 N 
HETATM    3  C   UNL     1      28.129  44.635  54.153  1.00  0.00     0.065 A 
HETATM    4  C   UNL     1      26.987  45.393  54.352  1.00  0.00     0.150 A 
HETATM    5  N   UNL     1      26.235  45.483  53.213  1.00  0.00    -0.234 NA
ENDROOT
BRANCH   1   6
HETATM    6  S   UNL     1      26.528  44.797  50.616  1.00  0.00    -0.083 SA
BRANCH   6   7
HETATM    7  C   UNL     1      24.760  45.186  50.637  1.00  0.00     0.185 C 
BRANCH   7   8
HETATM    8  C   UNL     1      24.499  46.683  50.548  1.00  0.00     0.231 C 
HETATM    9  N   UNL     1      24.010  47.077  49.315  1.00  0.00    -0.326 N 
HETATM   10  H   UNL     1      23.942  46.334  48.620  1.00  0.00     0.169 HD
HETATM   11  O   UNL     1      24.813  47.424  51.476  1.00  0.00    -0.272 OA
BRANCH   9  12
HETATM   12  C   UNL     1      23.846  48.397  48.838  1.00  0.00     0.046 A 
HETATM   13  C   UNL     1      22.514  48.849  48.652  1.00  0.00    -0.035 A 
HETATM   14  C   UNL     1      21.321  47.968  48.920  1.00  0.00     0.050 C 
HETATM   15  C   UNL     1      22.280  50.144  48.161  1.00  0.00     0.009 A 
HETATM   16  C   UNL     1      23.340  50.987  47.854  1.00  0.00     0.001 A 
HETATM   17  C   UNL     1      24.646  50.556  48.067  1.00  0.00     0.009 A 
HETATM   18  C   UNL     1      24.917  49.277  48.588  1.00  0.00    -0.035 A 
HETATM   19  C   UNL     1      26.358  48.969  48.899  1.00  0.00     0.050 C 
ENDBRANCH   9  12
ENDBRANCH   7   8
ENDBRANCH   6   7
ENDBRANCH   1   6
BRANCH   2  20
HETATM   20  C   UNL     1      28.838  43.199  52.179  1.00  0.00     0.234 C 
BRANCH  20  21
HETATM   21  C   UNL     1      28.287  41.794  52.070  1.00  0.00     0.236 C 
HETATM   22  N   UNL     1      28.548  41.065  50.938  1.00  0.00    -0.355 N 
HETATM   23  H   UNL     1      29.140  41.482  50.232  1.00  0.00     0.162 HD
HETATM   24  O   UNL     1      27.627  41.359  53.012  1.00  0.00    -0.272 OA
BRANCH  22  25
HETATM   25  C   UNL     1      28.287  39.633  50.751  1.00  0.00     0.084 C 
HETATM   26  C   UNL     1      27.389  39.357  49.539  1.00  0.00     0.025 C 
HETATM   27  C   UNL     1      28.148  39.173  48.232  1.00  0.00     0.002 C 
HETATM   28  C   UNL     1      29.203  38.084  48.364  1.00  0.00     0.000 C 
HETATM   29  C   UNL     1      30.188  38.365  49.492  1.00  0.00     0.002 C 
HETATM   30  C   UNL     1      29.515  38.710  50.822  1.00  0.00     0.025 C 
ENDBRANCH  22  25
ENDBRANCH  20  21
ENDBRANCH   2  20
BRANCH   3  31
HETATM   31  C   UNL     1      29.242  44.409  55.069  1.00  0.00    -0.008 A 
HETATM   32  C   UNL     1      29.644  45.374  56.000  1.00  0.00     0.017 A 
HETATM   33  C   UNL     1      30.714  45.120  56.862  1.00  0.00     0.043 A 
HETATM   34  C   UNL     1      31.393  43.909  56.781  1.00  0.00     0.116 A 
HETATM   35  F   UNL     1      32.419  43.670  57.607  1.00  0.00    -0.206 F 
HETATM   36  C   UNL     1      31.026  42.948  55.849  1.00  0.00     0.043 A 
HETATM   37  C   UNL     1      29.951  43.199  54.993  1.00  0.00     0.017 A 
ENDBRANCH   3  31
TORSDOF 8
ENDMDL
MODEL 5
REMARK VINA RESULT:      -9.6      4.259     10.655
REMARK  8 active torsions:
REMARK  status: ('A' for Active; 'I' for Inactive)
REMARK    1  A    between atoms: C_3  and  N_4 
REMARK       I    between atoms: N_4  and  C_5 
REMARK    2  A    between atoms: C_5  and  C_6 
REMARK    3  A    between atoms: C_6  and  S_7 
REMARK    4  A    between atoms: S_7  and  C_8 
REMARK    5  A    between atoms: N_9  and  C_10 
REMARK    6  A    between atoms: C_10  and  C_11 
REMARK       I    between atoms: C_11  and  N_12 
REMARK    7  A    between atoms: N_12  and  C_13 
REMARK    8  A    between atoms: C_20  and  C_21 
ROOT
HETATM    1  C   UNL     1      25.056  44.643  49.149  1.00  0.00     0.169 A 
HETATM    2  N   UNL     1      23.961  45.472  49.226  1.00  0.00    -0.315 N 
HETATM    3  C   UNL     1      22.995  44.944  48.382  1.00  0.00     0.065 A 
HETATM    4  C   UNL     1      23.544  43.748  47.950  1.00  0.00     0.150 A 
HETATM    5  N   UNL     1      24.804  43.560  48.451  1.00  0.00    -0.234 NA
ENDROOT
BRANCH   1   6
HETATM    6  S   UNL     1      26.595  45.029  49.842  1.00  0.00    -0.083 SA
BRANCH   6   7
HETATM    7  C   UNL     1      26.373  44.498  51.559  1.00  0.00     0.185 C 
BRANCH   7   8
HETATM    8  C   UNL     1      27.696  44.168  52.235  1.00  0.00     0.231 C 
HETATM    9  N   UNL     1      27.670  44.361  53.604  1.00  0.00    -0.326 N 
HETATM   10  H   UNL     1      26.799  44.746  53.970  1.00  0.00     0.169 HD
HETATM   11  O   UNL     1      28.679  43.869  51.561  1.00  0.00    -0.272 OA
BRANCH   9  12
HETATM   12  C   UNL     1      28.765  44.335  54.497  1.00  0.00     0.046 A 
HETATM   13  C   UNL     1      29.010  45.515  55.244  1.00  0.00    -0.035 A 
HETATM   14  C   UNL     1      28.169  46.756  55.086  1.00  0.00     0.050 C 
HETATM   15  C   UNL     1      30.095  45.564  56.135  1.00  0.00     0.009 A 
HETATM   16  C   UNL     1      30.931  44.466  56.291  1.00  0.00     0.001 A 
HETATM   17  C   UNL     1      30.673  43.297  55.583  1.00  0.00     0.009 A 
HETATM   18  C   UNL     1      29.576  43.202  54.705  1.00  0.00    -0.035 A 
HETATM   19  C   UNL     1      29.318  41.850  54.096  1.00  0.00     0.050 C 
ENDBRANCH   9  12
ENDBRANCH   7   8
ENDBRANCH   6   7
ENDBRANCH   1   6
BRANCH   2  20
HETATM   20  C   UNL     1      23.806  46.602  50.130  1.00  0.00     0.234 C 
BRANCH  20  21
HETATM   21  C   UNL     1      23.833  47.998  49.547  1.00  0.00     0.236 C 
HETATM   22  N   UNL     1      22.679  48.739  49.546  1.00  0.00    -0.355 N 
HETATM   23  H   UNL     1      21.857  48.337  49.977  1.00  0.00     0.162 HD
HETATM   24  O   UNL     1      24.900  48.416  49.100  1.00  0.00    -0.272 OA
BRANCH  22  25
HETATM   25  C   UNL     1      22.567  50.167  49.229  1.00  0.00     0.084 C 
HETATM   26  C   UNL     1      22.185  50.412  47.763  1.00  0.00     0.025 C 
HETATM   27  C   UNL     1      20.684  50.455  47.511  1.00  0.00     0.002 C 
HETATM   28  C   UNL     1      20.011  51.483  48.409  1.00  0.00     0.000 C 
HETATM   29  C   UNL     1      20.273  51.222  49.887  1.00  0.00     0.002 C 
HETATM   30  C   UNL     1      21.753  51.015  50.220  1.00  0.00     0.025 C 
ENDBRANCH  22  25
ENDBRANCH  20  21
ENDBRANCH   2  20
BRANCH   3  31
HETATM   31  C   UNL     1      21.740  45.567  47.976  1.00  0.00    -0.008 A 
HETATM   32  C   UNL     1      21.661  46.426  46.874  1.00  0.00     0.017 A 
HETATM   33  C   UNL     1      20.439  47.002  46.514  1.00  0.00     0.043 A 
HETATM   34  C   UNL     1      19.302  46.734  47.267  1.00  0.00     0.116 A 
HETATM   35  F   UNL     1      18.134  47.289  46.922  1.00  0.00    -0.206 F 
HETATM   36  C   UNL     1      19.363  45.904  48.379  1.00  0.00     0.043 A 
HETATM   37  C   UNL     1      20.582  45.322  48.733  1.00  0.00     0.017 A 
ENDBRANCH   3  31
TORSDOF 8
ENDMDL
MODEL 6
REMARK VINA RESULT:      -9.6      4.063     10.245
REMARK  8 active torsions:
REMARK  status: ('A' for Active; 'I' for Inactive)
REMARK    1  A    between atoms: C_3  and  N_4 
REMARK       I    between atoms: N_4  and  C_5 
REMARK    2  A    between atoms: C_5  and  C_6 
REMARK    3  A    between atoms: C_6  and  S_7 
REMARK    4  A    between atoms: S_7  and  C_8 
REMARK    5  A    between atoms: N_9  and  C_10 
REMARK    6  A    between atoms: C_10  and  C_11 
REMARK       I    between atoms: C_11  and  N_12 
REMARK    7  A    between atoms: N_12  and  C_13 
REMARK    8  A    between atoms: C_20  and  C_21 
ROOT
HETATM    1  C   UNL     1      25.609  46.734  49.876  1.00  0.00     0.169 A 
HETATM    2  N   UNL     1      24.339  47.166  49.566  1.00  0.00    -0.315 N 
HETATM    3  C   UNL     1      24.445  48.500  49.201  1.00  0.00     0.065 A 
HETATM    4  C   UNL     1      25.809  48.741  49.199  1.00  0.00     0.150 A 
HETATM    5  N   UNL     1      26.517  47.637  49.590  1.00  0.00    -0.234 NA
ENDROOT
BRANCH   1   6
HETATM    6  S   UNL     1      25.941  45.205  50.616  1.00  0.00    -0.083 SA
BRANCH   6   7
HETATM    7  C   UNL     1      25.104  45.375  52.213  1.00  0.00     0.185 C 
BRANCH   7   8
HETATM    8  C   UNL     1      25.968  44.891  53.369  1.00  0.00     0.231 C 
HETATM    9  N   UNL     1      27.312  45.170  53.198  1.00  0.00    -0.326 N 
HETATM   10  H   UNL     1      27.552  45.607  52.309  1.00  0.00     0.169 HD
HETATM   11  O   UNL     1      25.472  44.231  54.280  1.00  0.00    -0.272 OA
BRANCH   9  12
HETATM   12  C   UNL     1      28.393  44.697  53.975  1.00  0.00     0.046 A 
HETATM   13  C   UNL     1      29.069  43.545  53.498  1.00  0.00    -0.035 A 
HETATM   14  C   UNL     1      28.650  42.830  52.240  1.00  0.00     0.050 C 
HETATM   15  C   UNL     1      30.141  43.011  54.233  1.00  0.00     0.009 A 
HETATM   16  C   UNL     1      30.545  43.600  55.424  1.00  0.00     0.001 A 
HETATM   17  C   UNL     1      29.904  44.750  55.876  1.00  0.00     0.009 A 
HETATM   18  C   UNL     1      28.847  45.330  55.149  1.00  0.00    -0.035 A 
HETATM   19  C   UNL     1      28.318  46.642  55.664  1.00  0.00     0.050 C 
ENDBRANCH   9  12
ENDBRANCH   7   8
ENDBRANCH   6   7
ENDBRANCH   1   6
BRANCH   2  20
HETATM   20  C   UNL     1      23.147  46.335  49.499  1.00  0.00     0.234 C 
BRANCH  20  21
HETATM   21  C   UNL     1      22.118  46.638  48.431  1.00  0.00     0.236 C 
HETATM   22  N   UNL     1      20.845  46.975  48.813  1.00  0.00    -0.355 N 
HETATM   23  H   UNL     1      20.652  47.052  49.803  1.00  0.00     0.162 HD
HETATM   24  O   UNL     1      22.472  46.574  47.255  1.00  0.00    -0.272 OA
BRANCH  22  25
HETATM   25  C   UNL     1      19.792  47.506  47.941  1.00  0.00     0.084 C 
HETATM   26  C   UNL     1      18.976  46.396  47.267  1.00  0.00     0.025 C 
HETATM   27  C   UNL     1      17.775  45.928  48.078  1.00  0.00     0.002 C 
HETATM   28  C   UNL     1      16.872  47.098  48.438  1.00  0.00     0.000 C 
HETATM   29  C   UNL     1      17.613  48.187  49.205  1.00  0.00     0.002 C 
HETATM   30  C   UNL     1      18.920  48.623  48.540  1.00  0.00     0.025 C 
ENDBRANCH  22  25
ENDBRANCH  20  21
ENDBRANCH   2  20
BRANCH   3  31
HETATM   31  C   UNL     1      23.355  49.444  48.976  1.00  0.00    -0.008 A 
HETATM   32  C   UNL     1      23.059  49.946  47.704  1.00  0.00     0.017 A 
HETATM   33  C   UNL     1      22.005  50.847  47.529  1.00  0.00     0.043 A 
HETATM   34  C   UNL     1      21.260  51.259  48.628  1.00  0.00     0.116 A 
HETATM   35  F   UNL     1      20.253  52.125  48.457  1.00  0.00    -0.206 F 
HETATM   36  C   UNL     1      21.552  50.793  49.902  1.00  0.00     0.043 A 
HETATM   37  C   UNL     1      22.600  49.886  50.076  1.00  0.00     0.017 A 
ENDBRANCH   3  31
TORSDOF 8
ENDMDL
MODEL 7
REMARK VINA RESULT:      -9.6      3.169      6.527
REMARK  8 active torsions:
REMARK  status: ('A' for Active; 'I' for Inactive)
REMARK    1  A    between atoms: C_3  and  N_4 
REMARK       I    between atoms: N_4  and  C_5 
REMARK    2  A    between atoms: C_5  and  C_6 
REMARK    3  A    between atoms: C_6  and  S_7 
REMARK    4  A    between atoms: S_7  and  C_8 
REMARK    5  A    between atoms: N_9  and  C_10 
REMARK    6  A    between atoms: C_10  and  C_11 
REMARK       I    between atoms: C_11  and  N_12 
REMARK    7  A    between atoms: N_12  and  C_13 
REMARK    8  A    between atoms: C_20  and  C_21 
ROOT
HETATM    1  C   UNL     1      23.899  44.544  48.676  1.00  0.00     0.169 A 
HETATM    2  N   UNL     1      25.000  43.947  49.246  1.00  0.00    -0.315 N 
HETATM    3  C   UNL     1      25.144  42.707  48.642  1.00  0.00     0.065 A 
HETATM    4  C   UNL     1      24.178  42.702  47.650  1.00  0.00     0.150 A 
HETATM    5  N   UNL     1      23.435  43.851  47.663  1.00  0.00    -0.234 NA
ENDROOT
BRANCH   1   6
HETATM    6  S   UNL     1      23.186  46.002  49.280  1.00  0.00    -0.083 SA
BRANCH   6   7
HETATM    7  C   UNL     1      21.502  45.890  48.625  1.00  0.00     0.185 C 
BRANCH   7   8
HETATM    8  C   UNL     1      20.951  47.250  48.222  1.00  0.00     0.231 C 
HETATM    9  N   UNL     1      21.008  48.185  49.241  1.00  0.00    -0.326 N 
HETATM   10  H   UNL     1      21.355  47.830  50.132  1.00  0.00     0.169 HD
HETATM   11  O   UNL     1      20.425  47.406  47.122  1.00  0.00    -0.272 OA
BRANCH   9  12
HETATM   12  C   UNL     1      20.415  49.467  49.266  1.00  0.00     0.046 A 
HETATM   13  C   UNL     1      19.235  49.611  50.039  1.00  0.00    -0.035 A 
HETATM   14  C   UNL     1      18.614  48.456  50.782  1.00  0.00     0.050 C 
HETATM   15  C   UNL     1      18.583  50.854  50.091  1.00  0.00     0.009 A 
HETATM   16  C   UNL     1      19.083  51.944  49.392  1.00  0.00     0.001 A 
HETATM   17  C   UNL     1      20.259  51.813  48.659  1.00  0.00     0.009 A 
HETATM   18  C   UNL     1      20.955  50.590  48.610  1.00  0.00    -0.035 A 
HETATM   19  C   UNL     1      22.281  50.600  47.897  1.00  0.00     0.050 C 
ENDBRANCH   9  12
ENDBRANCH   7   8
ENDBRANCH   6   7
ENDBRANCH   1   6
BRANCH   2  20
HETATM   20  C   UNL     1      25.913  44.566  50.195  1.00  0.00     0.234 C 
BRANCH  20  21
HETATM   21  C   UNL     1      25.878  44.100  51.634  1.00  0.00     0.236 C 
HETATM   22  N   UNL     1      27.015  43.571  52.188  1.00  0.00    -0.355 N 
HETATM   23  H   UNL     1      27.854  43.552  51.622  1.00  0.00     0.162 HD
HETATM   24  O   UNL     1      24.823  44.221  52.254  1.00  0.00    -0.272 OA
BRANCH  22  25
HETATM   25  C   UNL     1      27.230  43.274  53.608  1.00  0.00     0.084 C 
HETATM   26  C   UNL     1      28.261  42.158  53.823  1.00  0.00     0.025 C 
HETATM   27  C   UNL     1      29.697  42.651  53.928  1.00  0.00     0.002 C 
HETATM   28  C   UNL     1      29.833  43.708  55.014  1.00  0.00     0.000 C 
HETATM   29  C   UNL     1      28.901  44.893  54.790  1.00  0.00     0.002 C 
HETATM   30  C   UNL     1      27.448  44.489  54.526  1.00  0.00     0.025 C 
ENDBRANCH  22  25
ENDBRANCH  20  21
ENDBRANCH   2  20
BRANCH   3  31
HETATM   31  C   UNL     1      26.043  41.628  49.040  1.00  0.00    -0.008 A 
HETATM   32  C   UNL     1      25.764  40.793  50.127  1.00  0.00     0.017 A 
HETATM   33  C   UNL     1      26.649  39.769  50.476  1.00  0.00     0.043 A 
HETATM   34  C   UNL     1      27.821  39.593  49.750  1.00  0.00     0.116 A 
HETATM   35  F   UNL     1      28.668  38.613  50.088  1.00  0.00    -0.206 F 
HETATM   36  C   UNL     1      28.130  40.426  48.683  1.00  0.00     0.043 A 
HETATM   37  C   UNL     1      27.241  41.444  48.329  1.00  0.00     0.017 A 
ENDBRANCH   3  31
TORSDOF 8
ENDMDL
MODEL 8
REMARK VINA RESULT:      -9.5      3.998     10.505
REMARK  8 active torsions:
REMARK  status: ('A' for Active; 'I' for Inactive)
REMARK    1  A    between atoms: C_3  and  N_4 
REMARK       I    between atoms: N_4  and  C_5 
REMARK    2  A    between atoms: C_5  and  C_6 
REMARK    3  A    between atoms: C_6  and  S_7 
REMARK    4  A    between atoms: S_7  and  C_8 
REMARK    5  A    between atoms: N_9  and  C_10 
REMARK    6  A    between atoms: C_10  and  C_11 
REMARK       I    between atoms: C_11  and  N_12 
REMARK    7  A    between atoms: N_12  and  C_13 
REMARK    8  A    between atoms: C_20  and  C_21 
ROOT
HETATM    1  C   UNL     1      24.195  46.108  49.513  1.00  0.00     0.169 A 
HETATM    2  N   UNL     1      23.159  46.787  48.913  1.00  0.00    -0.315 N 
HETATM    3  C   UNL     1      23.334  48.132  49.208  1.00  0.00     0.065 A 
HETATM    4  C   UNL     1      24.551  48.174  49.869  1.00  0.00     0.150 A 
HETATM    5  N   UNL     1      25.085  46.924  50.026  1.00  0.00    -0.234 NA
ENDROOT
BRANCH   1   6
HETATM    6  S   UNL     1      24.264  44.381  49.624  1.00  0.00    -0.083 SA
BRANCH   6   7
HETATM    7  C   UNL     1      24.541  44.135  51.396  1.00  0.00     0.185 C 
BRANCH   7   8
HETATM    8  C   UNL     1      26.016  43.959  51.728  1.00  0.00     0.231 C 
HETATM    9  N   UNL     1      26.246  43.704  53.068  1.00  0.00    -0.326 N 
HETATM   10  H   UNL     1      25.415  43.721  53.659  1.00  0.00     0.169 HD
HETATM   11  O   UNL     1      26.873  44.145  50.866  1.00  0.00    -0.272 OA
BRANCH   9  12
HETATM   12  C   UNL     1      27.490  43.681  53.738  1.00  0.00     0.046 A 
HETATM   13  C   UNL     1      27.841  44.841  54.475  1.00  0.00    -0.035 A 
HETATM   14  C   UNL     1      26.955  46.059  54.528  1.00  0.00     0.050 C 
HETATM   15  C   UNL     1      29.073  44.893  55.148  1.00  0.00     0.009 A 
HETATM   16  C   UNL     1      29.951  43.819  55.099  1.00  0.00     0.001 A 
HETATM   17  C   UNL     1      29.593  42.667  54.405  1.00  0.00     0.009 A 
HETATM   18  C   UNL     1      28.354  42.568  53.744  1.00  0.00    -0.035 A 
HETATM   19  C   UNL     1      28.019  41.232  53.139  1.00  0.00     0.050 C 
ENDBRANCH   9  12
ENDBRANCH   7   8
ENDBRANCH   6   7
ENDBRANCH   1   6
BRANCH   2  20
HETATM   20  C   UNL     1      22.161  46.213  48.025  1.00  0.00     0.234 C 
BRANCH  20  21
HETATM   21  C   UNL     1      20.772  45.962  48.571  1.00  0.00     0.236 C 
HETATM   22  N   UNL     1      19.873  46.996  48.598  1.00  0.00    -0.355 N 
HETATM   23  H   UNL     1      20.160  47.884  48.208  1.00  0.00     0.162 HD
HETATM   24  O   UNL     1      20.504  44.828  48.966  1.00  0.00    -0.272 OA
BRANCH  22  25
HETATM   25  C   UNL     1      18.438  46.889  48.883  1.00  0.00     0.084 C 
HETATM   26  C   UNL     1      17.877  48.154  49.546  1.00  0.00     0.025 C 
HETATM   27  C   UNL     1      17.387  49.206  48.562  1.00  0.00     0.002 C 
HETATM   28  C   UNL     1      16.363  48.620  47.602  1.00  0.00     0.000 C 
HETATM   29  C   UNL     1      16.908  47.419  46.837  1.00  0.00     0.002 C 
HETATM   30  C   UNL     1      17.560  46.365  47.734  1.00  0.00     0.025 C 
ENDBRANCH  22  25
ENDBRANCH  20  21
ENDBRANCH   2  20
BRANCH   3  31
HETATM   31  C   UNL     1      22.395  49.221  48.961  1.00  0.00    -0.008 A 
HETATM   32  C   UNL     1      21.996  49.579  47.668  1.00  0.00     0.017 A 
HETATM   33  C   UNL     1      21.092  50.626  47.474  1.00  0.00     0.043 A 
HETATM   34  C   UNL     1      20.602  51.327  48.570  1.00  0.00     0.116 A 
HETATM   35  F   UNL     1      19.738  52.332  48.380  1.00  0.00    -0.206 F 
HETATM   36  C   UNL     1      21.002  51.004  49.859  1.00  0.00     0.043 A 
HETATM   37  C   UNL     1      21.899  49.951  50.054  1.00  0.00     0.017 A 
ENDBRANCH   3  31
TORSDOF 8
ENDMDL
MODEL 9
REMARK VINA RESULT:      -9.4      2.159      3.387
REMARK  8 active torsions:
REMARK  status: ('A' for Active; 'I' for Inactive)
REMARK    1  A    between atoms: C_3  and  N_4 
REMARK       I    between atoms: N_4  and  C_5 
REMARK    2  A    between atoms: C_5  and  C_6 
REMARK    3  A    between atoms: C_6  and  S_7 
REMARK    4  A    between atoms: S_7  and  C_8 
REMARK    5  A    between atoms: N_9  and  C_10 
REMARK    6  A    between atoms: C_10  and  C_11 
REMARK       I    between atoms: C_11  and  N_12 
REMARK    7  A    between atoms: N_12  and  C_13 
REMARK    8  A    between atoms: C_20  and  C_21 
ROOT
HETATM    1  C   UNL     1      24.931  44.546  50.555  1.00  0.00     0.169 A 
HETATM    2  N   UNL     1      26.124  43.954  50.899  1.00  0.00    -0.315 N 
HETATM    3  C   UNL     1      26.214  44.003  52.283  1.00  0.00     0.065 A 
HETATM    4  C   UNL     1      24.991  44.517  52.681  1.00  0.00     0.150 A 
HETATM    5  N   UNL     1      24.198  44.822  51.608  1.00  0.00    -0.234 NA
ENDROOT
BRANCH   1   6
HETATM    6  S   UNL     1      24.494  44.933  48.925  1.00  0.00    -0.083 SA
BRANCH   6   7
HETATM    7  C   UNL     1      22.750  45.387  49.105  1.00  0.00     0.185 C 
BRANCH   7   8
HETATM    8  C   UNL     1      22.432  46.720  48.444  1.00  0.00     0.231 C 
HETATM    9  N   UNL     1      22.180  47.732  49.353  1.00  0.00    -0.326 N 
HETATM   10  H   UNL     1      22.185  47.444  50.331  1.00  0.00     0.169 HD
HETATM   11  O   UNL     1      22.321  46.796  47.222  1.00  0.00    -0.272 OA
BRANCH   9  12
HETATM   12  C   UNL     1      21.672  49.023  49.084  1.00  0.00     0.046 A 
HETATM   13  C   UNL     1      20.295  49.236  49.344  1.00  0.00    -0.035 A 
HETATM   14  C   UNL     1      19.395  48.142  49.857  1.00  0.00     0.050 C 
HETATM   15  C   UNL     1      19.721  50.491  49.079  1.00  0.00     0.009 A 
HETATM   16  C   UNL     1      20.490  51.525  48.564  1.00  0.00     0.001 A 
HETATM   17  C   UNL     1      21.849  51.328  48.339  1.00  0.00     0.009 A 
HETATM   18  C   UNL     1      22.464  50.093  48.622  1.00  0.00    -0.035 A 
HETATM   19  C   UNL     1      23.960  50.035  48.464  1.00  0.00     0.050 C 
ENDBRANCH   9  12
ENDBRANCH   7   8
ENDBRANCH   6   7
ENDBRANCH   1   6
BRANCH   2  20
HETATM   20  C   UNL     1      27.039  43.283  49.989  1.00  0.00     0.234 C 
BRANCH  20  21
HETATM   21  C   UNL     1      26.811  41.817  49.691  1.00  0.00     0.236 C 
HETATM   22  N   UNL     1      27.846  40.935  49.868  1.00  0.00    -0.355 N 
HETATM   23  H   UNL     1      28.717  41.294  50.235  1.00  0.00     0.162 HD
HETATM   24  O   UNL     1      25.695  41.475  49.304  1.00  0.00    -0.272 OA
BRANCH  22  25
HETATM   25  C   UNL     1      27.750  39.472  49.840  1.00  0.00     0.084 C 
HETATM   26  C   UNL     1      27.152  38.950  48.528  1.00  0.00     0.025 C 
HETATM   27  C   UNL     1      28.180  38.691  47.435  1.00  0.00     0.002 C 
HETATM   28  C   UNL     1      29.272  37.751  47.926  1.00  0.00     0.000 C 
HETATM   29  C   UNL     1      29.972  38.277  49.173  1.00  0.00     0.002 C 
HETATM   30  C   UNL     1      29.009  38.706  50.282  1.00  0.00     0.025 C 
ENDBRANCH  22  25
ENDBRANCH  20  21
ENDBRANCH   2  20
BRANCH   3  31
HETATM   31  C   UNL     1      27.376  43.681  53.105  1.00  0.00    -0.008 A 
HETATM   32  C   UNL     1      27.873  42.376  53.208  1.00  0.00     0.017 A 
HETATM   33  C   UNL     1      28.989  42.108  54.004  1.00  0.00     0.043 A 
HETATM   34  C   UNL     1      29.597  43.139  54.711  1.00  0.00     0.116 A 
HETATM   35  F   UNL     1      30.665  42.878  55.475  1.00  0.00    -0.206 F 
HETATM   36  C   UNL     1      29.106  44.436  54.642  1.00  0.00     0.043 A 
HETATM   37  C   UNL     1      27.995  44.706  53.839  1.00  0.00     0.017 A 
ENDBRANCH   3  31
TORSDOF 8
ENDMDL
MODEL 10
REMARK VINA RESULT:      -9.4      4.880     11.509
REMARK  8 active torsions:
REMARK  status: ('A' for Active; 'I' for Inactive)
REMARK    1  A    between atoms: C_3  and  N_4 
REMARK       I    between atoms: N_4  and  C_5 
REMARK    2  A    between atoms: C_5  and  C_6 
REMARK    3  A    between atoms: C_6  and  S_7 
REMARK    4  A    between atoms: S_7  and  C_8 
REMARK    5  A    between atoms: N_9  and  C_10 
REMARK    6  A    between atoms: C_10  and  C_11 
REMARK       I    between atoms: C_11  and  N_12 
REMARK    7  A    between atoms: N_12  and  C_13 
REMARK    8  A    between atoms: C_20  and  C_21 
ROOT
HETATM    1  C   UNL     1      23.439  48.213  49.280  1.00  0.00     0.169 A 
HETATM    2  N   UNL     1      22.095  48.484  49.155  1.00  0.00    -0.315 N 
HETATM    3  C   UNL     1      21.961  49.865  49.150  1.00  0.00     0.065 A 
HETATM    4  C   UNL     1      23.266  50.329  49.146  1.00  0.00     0.150 A 
HETATM    5  N   UNL     1      24.168  49.301  49.198  1.00  0.00    -0.234 NA
ENDROOT
BRANCH   1   6
HETATM    6  S   UNL     1      24.068  46.627  49.574  1.00  0.00    -0.083 SA
BRANCH   6   7
HETATM    7  C   UNL     1      24.924  46.854  51.152  1.00  0.00     0.185 C 
BRANCH   7   8
HETATM    8  C   UNL     1      25.214  45.530  51.845  1.00  0.00     0.231 C 
HETATM    9  N   UNL     1      26.565  45.240  51.919  1.00  0.00    -0.326 N 
HETATM   10  H   UNL     1      27.177  45.913  51.458  1.00  0.00     0.169 HD
HETATM   11  O   UNL     1      24.293  44.792  52.185  1.00  0.00    -0.272 OA
BRANCH   9  12
HETATM   12  C   UNL     1      27.162  44.023  52.319  1.00  0.00     0.046 A 
HETATM   13  C   UNL     1      27.359  43.045  51.311  1.00  0.00    -0.035 A 
HETATM   14  C   UNL     1      26.932  43.266  49.883  1.00  0.00     0.050 C 
HETATM   15  C   UNL     1      27.929  41.805  51.645  1.00  0.00     0.009 A 
HETATM   16  C   UNL     1      28.301  41.527  52.953  1.00  0.00     0.001 A 
HETATM   17  C   UNL     1      28.139  42.498  53.937  1.00  0.00     0.009 A 
HETATM   18  C   UNL     1      27.600  43.763  53.633  1.00  0.00    -0.035 A 
HETATM   19  C   UNL     1      27.594  44.776  54.746  1.00  0.00     0.050 C 
ENDBRANCH   9  12
ENDBRANCH   7   8
ENDBRANCH   6   7
ENDBRANCH   1   6
BRANCH   2  20
HETATM   20  C   UNL     1      21.043  47.505  48.929  1.00  0.00     0.234 C 
BRANCH  20  21
HETATM   21  C   UNL     1      20.284  47.554  47.621  1.00  0.00     0.236 C 
HETATM   22  N   UNL     1      18.965  47.927  47.634  1.00  0.00    -0.355 N 
HETATM   23  H   UNL     1      18.558  48.200  48.519  1.00  0.00     0.162 HD
HETATM   24  O   UNL     1      20.889  47.259  46.592  1.00  0.00    -0.272 OA
BRANCH  22  25
HETATM   25  C   UNL     1      18.142  48.239  46.460  1.00  0.00     0.084 C 
HETATM   26  C   UNL     1      16.826  47.450  46.443  1.00  0.00     0.025 C 
HETATM   27  C   UNL     1      15.678  48.141  47.166  1.00  0.00     0.002 C 
HETATM   28  C   UNL     1      15.457  49.544  46.623  1.00  0.00     0.000 C 
HETATM   29  C   UNL     1      16.710  50.406  46.714  1.00  0.00     0.002 C 
HETATM   30  C   UNL     1      17.960  49.733  46.142  1.00  0.00     0.025 C 
ENDBRANCH  22  25
ENDBRANCH  20  21
ENDBRANCH   2  20
BRANCH   3  31
HETATM   31  C   UNL     1      20.723  50.633  49.234  1.00  0.00    -0.008 A 
HETATM   32  C   UNL     1      19.732  50.341  50.178  1.00  0.00     0.017 A 
HETATM   33  C   UNL     1      18.560  51.102  50.229  1.00  0.00     0.043 A 
HETATM   34  C   UNL     1      18.373  52.141  49.324  1.00  0.00     0.116 A 
HETATM   35  F   UNL     1      17.249  52.866  49.374  1.00  0.00    -0.206 F 
HETATM   36  C   UNL     1      19.333  52.432  48.364  1.00  0.00     0.043 A 
HETATM   37  C   UNL     1      20.508  51.677  48.320  1.00  0.00     0.017 A 
ENDBRANCH   3  31
TORSDOF 8
ENDMDL
