MODEL 1
REMARK VINA RESULT:      -9.0      0.000      0.000
REMARK  6 active torsions:
REMARK  status: ('A' for Active; 'I' for Inactive)
REMARK    1  A    between atoms: C_5  and  C_6 
REMARK    2  A    between atoms: C_6  and  O_7 
REMARK    3  A    between atoms: C_6  and  C_8 
REMARK    4  A    between atoms: C_8  and  N_9 
REMARK    5  A    between atoms: C_11  and  C_12 
REMARK    6  A    between atoms: C_13  and  O_14 
ROOT
HETATM    1  N   UNL     1      25.899  44.009  52.598  1.00  0.00    -0.395 N 
HETATM    2  H   UNL     1      25.225  44.385  53.282  1.00  0.00     0.159 HD
HETATM    3  C   UNL     1      27.144  44.232  52.836  1.00  0.00     0.098 C 
ENDROOT
BRANCH   1   4
HETATM    4  C   UNL     1      25.345  43.249  51.451  1.00  0.00     0.155 C 
BRANCH   4   5
HETATM    5  C   UNL     1      24.569  44.186  50.511  1.00  0.00     0.170 C 
BRANCH   5   6
HETATM    6  C   UNL     1      25.327  45.441  50.159  1.00  0.00    -0.011 A 
HETATM    7  C   UNL     1      26.580  45.351  49.557  1.00  0.00     0.126 A 
HETATM    8  N   UNL     1      27.350  46.413  49.248  1.00  0.00    -0.265 NA
HETATM    9  C   UNL     1      26.857  47.647  49.498  1.00  0.00     0.030 A 
HETATM   10  C   UNL     1      27.696  48.822  49.091  1.00  0.00     0.070 C 
HETATM   11  C   UNL     1      25.611  47.841  50.081  1.00  0.00     0.027 A 
HETATM   12  C   UNL     1      24.846  46.728  50.424  1.00  0.00     0.013 A 
ENDBRANCH   5   6
BRANCH   5  13
HETATM   13  O   UNL     1      23.306  44.486  51.112  1.00  0.00    -0.389 OA
HETATM   14  H   UNL     1      22.846  45.109  50.515  1.00  0.00     0.210 HD
ENDBRANCH   5  13
ENDBRANCH   4   5
ENDBRANCH   1   4
BRANCH   3  15
HETATM   15  C   UNL     1      27.632  45.012  54.001  1.00  0.00     0.023 A 
HETATM   16  C   UNL     1      26.962  46.191  54.389  1.00  0.00     0.078 A 
HETATM   17  C   UNL     1      27.433  46.968  55.439  1.00  0.00     0.038 A 
HETATM   18  C   UNL     1      28.582  46.572  56.118  1.00  0.00     0.015 A 
HETATM   19  C   UNL     1      29.264  45.398  55.771  1.00  0.00    -0.025 A 
HETATM   20  C   UNL     1      28.800  44.584  54.703  1.00  0.00    -0.012 A 
HETATM   21  C   UNL     1      30.412  45.034  56.494  1.00  0.00     0.012 A 
HETATM   22  C   UNL     1      29.537  43.400  54.433  1.00  0.00     0.013 A 
HETATM   23  C   UNL     1      30.675  43.052  55.167  1.00  0.00     0.001 A 
HETATM   24  C   UNL     1      31.113  43.872  56.195  1.00  0.00     0.001 A 
BRANCH  16  25
HETATM   25  O   UNL     1      25.825  46.589  53.726  1.00  0.00    -0.360 OA
HETATM   26  H   UNL     1      26.080  47.267  53.065  1.00  0.00     0.217 HD
ENDBRANCH  16  25
ENDBRANCH   3  15
TORSDOF 6
ENDMDL
MODEL 2
REMARK VINA RESULT:      -8.9      1.870      3.458
REMARK  6 active torsions:
REMARK  status: ('A' for Active; 'I' for Inactive)
REMARK    1  A    between atoms: C_5  and  C_6 
REMARK    2  A    between atoms: C_6  and  O_7 
REMARK    3  A    between atoms: C_6  and  C_8 
REMARK    4  A    between atoms: C_8  and  N_9 
REMARK    5  A    between atoms: C_11  and  C_12 
REMARK    6  A    between atoms: C_13  and  O_14 
ROOT
HETATM    1  N   UNL     1      26.984  46.161  53.375  1.00  0.00    -0.395 N 
HETATM    2  H   UNL     1      27.642  46.037  52.590  1.00  0.00     0.159 HD
HETATM    3  C   UNL     1      27.315  45.616  54.493  1.00  0.00     0.098 C 
ENDROOT
BRANCH   1   4
HETATM    4  C   UNL     1      25.763  46.962  53.114  1.00  0.00     0.155 C 
BRANCH   4   5
HETATM    5  C   UNL     1      25.367  46.869  51.631  1.00  0.00     0.170 C 
BRANCH   5   6
HETATM    6  C   UNL     1      25.611  45.506  51.033  1.00  0.00    -0.011 A 
HETATM    7  C   UNL     1      26.633  45.327  50.104  1.00  0.00     0.126 A 
HETATM    8  N   UNL     1      26.898  44.160  49.484  1.00  0.00    -0.265 NA
HETATM    9  C   UNL     1      26.151  43.083  49.816  1.00  0.00     0.030 A 
HETATM   10  C   UNL     1      26.496  41.776  49.166  1.00  0.00     0.070 C 
HETATM   11  C   UNL     1      25.119  43.156  50.744  1.00  0.00     0.027 A 
HETATM   12  C   UNL     1      24.841  44.381  51.348  1.00  0.00     0.013 A 
ENDBRANCH   5   6
BRANCH   5  13
HETATM   13  O   UNL     1      26.062  47.891  50.912  1.00  0.00    -0.389 OA
HETATM   14  H   UNL     1      25.406  48.329  50.332  1.00  0.00     0.210 HD
ENDBRANCH   5  13
ENDBRANCH   4   5
ENDBRANCH   1   4
BRANCH   3  15
HETATM   15  C   UNL     1      28.550  44.815  54.685  1.00  0.00     0.023 A 
HETATM   16  C   UNL     1      28.943  43.881  53.704  1.00  0.00     0.078 A 
HETATM   17  C   UNL     1      30.062  43.081  53.887  1.00  0.00     0.038 A 
HETATM   18  C   UNL     1      30.806  43.207  55.056  1.00  0.00     0.015 A 
HETATM   19  C   UNL     1      30.456  44.136  56.045  1.00  0.00    -0.025 A 
HETATM   20  C   UNL     1      29.318  44.969  55.879  1.00  0.00    -0.012 A 
HETATM   21  C   UNL     1      31.247  44.234  57.201  1.00  0.00     0.012 A 
HETATM   22  C   UNL     1      29.047  45.899  56.919  1.00  0.00     0.013 A 
HETATM   23  C   UNL     1      29.849  45.985  58.061  1.00  0.00     0.001 A 
HETATM   24  C   UNL     1      30.946  45.151  58.204  1.00  0.00     0.001 A 
BRANCH  16  25
HETATM   25  O   UNL     1      28.214  43.751  52.544  1.00  0.00    -0.360 OA
HETATM   26  H   UNL     1      28.730  44.156  51.815  1.00  0.00     0.217 HD
ENDBRANCH  16  25
ENDBRANCH   3  15
TORSDOF 6
ENDMDL
MODEL 3
REMARK VINA RESULT:      -8.9      1.909      2.763
REMARK  6 active torsions:
REMARK  status: ('A' for Active; 'I' for Inactive)
REMARK    1  A    between atoms: C_5  and  C_6 
REMARK    2  A    between atoms: C_6  and  O_7 
REMARK    3  A    between atoms: C_6  and  C_8 
REMARK    4  A    between atoms: C_8  and  N_9 
REMARK    5  A    between atoms: C_11  and  C_12 
REMARK    6  A    between atoms: C_13  and  O_14 
ROOT
HETATM    1  N   UNL     1      28.318  42.500  52.902  1.00  0.00    -0.395 N 
HETATM    2  H   UNL     1      27.416  42.536  53.403  1.00  0.00     0.159 HD
HETATM    3  C   UNL     1      29.228  43.319  53.298  1.00  0.00     0.098 C 
ENDROOT
BRANCH   1   4
HETATM    4  C   UNL     1      28.447  41.501  51.813  1.00  0.00     0.155 C 
BRANCH   4   5
HETATM    5  C   UNL     1      27.141  41.417  51.004  1.00  0.00     0.170 C 
BRANCH   5   6
HETATM    6  C   UNL     1      26.501  42.761  50.764  1.00  0.00    -0.011 A 
HETATM    7  C   UNL     1      25.300  43.081  51.392  1.00  0.00     0.126 A 
HETATM    8  N   UNL     1      24.631  44.236  51.205  1.00  0.00    -0.265 NA
HETATM    9  C   UNL     1      25.183  45.162  50.388  1.00  0.00     0.030 A 
HETATM   10  C   UNL     1      24.461  46.468  50.238  1.00  0.00     0.070 C 
HETATM   11  C   UNL     1      26.386  44.943  49.729  1.00  0.00     0.027 A 
HETATM   12  C   UNL     1      27.043  43.727  49.911  1.00  0.00     0.013 A 
ENDBRANCH   5   6
BRANCH   5  13
HETATM   13  O   UNL     1      26.250  40.522  51.675  1.00  0.00    -0.389 OA
HETATM   14  H   UNL     1      26.427  39.626  51.325  1.00  0.00     0.210 HD
ENDBRANCH   5  13
ENDBRANCH   4   5
ENDBRANCH   1   4
BRANCH   3  15
HETATM   15  C   UNL     1      29.030  44.304  54.391  1.00  0.00     0.023 A 
HETATM   16  C   UNL     1      28.024  45.287  54.278  1.00  0.00     0.078 A 
HETATM   17  C   UNL     1      27.857  46.254  55.261  1.00  0.00     0.038 A 
HETATM   18  C   UNL     1      28.694  46.248  56.372  1.00  0.00     0.015 A 
HETATM   19  C   UNL     1      29.693  45.276  56.526  1.00  0.00    -0.025 A 
HETATM   20  C   UNL     1      29.881  44.274  55.537  1.00  0.00    -0.012 A 
HETATM   21  C   UNL     1      30.504  45.305  57.672  1.00  0.00     0.012 A 
HETATM   22  C   UNL     1      30.900  43.315  55.783  1.00  0.00     0.013 A 
HETATM   23  C   UNL     1      31.695  43.357  56.932  1.00  0.00     0.001 A 
HETATM   24  C   UNL     1      31.498  44.354  57.875  1.00  0.00     0.001 A 
BRANCH  16  25
HETATM   25  O   UNL     1      27.190  45.299  53.184  1.00  0.00    -0.360 OA
HETATM   26  H   UNL     1      26.265  45.271  53.507  1.00  0.00     0.217 HD
ENDBRANCH  16  25
ENDBRANCH   3  15
TORSDOF 6
ENDMDL
MODEL 4
REMARK VINA RESULT:      -8.8      1.367      2.409
REMARK  6 active torsions:
REMARK  status: ('A' for Active; 'I' for Inactive)
REMARK    1  A    between atoms: C_5  and  C_6 
REMARK    2  A    between atoms: C_6  and  O_7 
REMARK    3  A    between atoms: C_6  and  C_8 
REMARK    4  A    between atoms: C_8  and  N_9 
REMARK    5  A    between atoms: C_11  and  C_12 
REMARK    6  A    between atoms: C_13  and  O_14 
ROOT
HETATM    1  N   UNL     1      26.237  44.036  53.520  1.00  0.00    -0.395 N 
HETATM    2  H   UNL     1      26.399  43.030  53.682  1.00  0.00     0.159 HD
HETATM    3  C   UNL     1      27.236  44.819  53.731  1.00  0.00     0.098 C 
ENDROOT
BRANCH   1   4
HETATM    4  C   UNL     1      24.889  44.437  53.048  1.00  0.00     0.155 C 
BRANCH   4   5
HETATM    5  C   UNL     1      24.824  44.398  51.512  1.00  0.00     0.170 C 
BRANCH   5   6
HETATM    6  C   UNL     1      25.535  45.554  50.856  1.00  0.00    -0.011 A 
HETATM    7  C   UNL     1      26.528  45.314  49.910  1.00  0.00     0.126 A 
HETATM    8  N   UNL     1      27.248  46.279  49.304  1.00  0.00    -0.265 NA
HETATM    9  C   UNL     1      26.959  47.566  49.601  1.00  0.00     0.030 A 
HETATM   10  C   UNL     1      27.723  48.632  48.874  1.00  0.00     0.070 C 
HETATM   11  C   UNL     1      25.974  47.909  50.520  1.00  0.00     0.027 A 
HETATM   12  C   UNL     1      25.266  46.893  51.160  1.00  0.00     0.013 A 
ENDBRANCH   5   6
BRANCH   5  13
HETATM   13  O   UNL     1      23.451  44.334  51.118  1.00  0.00    -0.389 OA
HETATM   14  H   UNL     1      23.362  44.867  50.302  1.00  0.00     0.210 HD
ENDBRANCH   5  13
ENDBRANCH   4   5
ENDBRANCH   1   4
BRANCH   3  15
HETATM   15  C   UNL     1      28.560  44.353  54.214  1.00  0.00     0.023 A 
HETATM   16  C   UNL     1      29.295  43.415  53.459  1.00  0.00     0.078 A 
HETATM   17  C   UNL     1      30.509  42.922  53.918  1.00  0.00     0.038 A 
HETATM   18  C   UNL     1      31.006  43.365  55.140  1.00  0.00     0.015 A 
HETATM   19  C   UNL     1      30.312  44.310  55.909  1.00  0.00    -0.025 A 
HETATM   20  C   UNL     1      29.070  44.832  55.459  1.00  0.00    -0.012 A 
HETATM   21  C   UNL     1      30.862  44.735  57.129  1.00  0.00     0.012 A 
HETATM   22  C   UNL     1      28.445  45.802  56.288  1.00  0.00     0.013 A 
HETATM   23  C   UNL     1      29.010  46.217  57.498  1.00  0.00     0.001 A 
HETATM   24  C   UNL     1      30.217  45.680  57.919  1.00  0.00     0.001 A 
BRANCH  16  25
HETATM   25  O   UNL     1      28.812  42.973  52.250  1.00  0.00    -0.360 OA
HETATM   26  H   UNL     1      28.255  43.684  51.866  1.00  0.00     0.217 HD
ENDBRANCH  16  25
ENDBRANCH   3  15
TORSDOF 6
ENDMDL
MODEL 5
REMARK VINA RESULT:      -8.5      1.867      3.216
REMARK  6 active torsions:
REMARK  status: ('A' for Active; 'I' for Inactive)
REMARK    1  A    between atoms: C_5  and  C_6 
REMARK    2  A    between atoms: C_6  and  O_7 
REMARK    3  A    between atoms: C_6  and  C_8 
REMARK    4  A    between atoms: C_8  and  N_9 
REMARK    5  A    between atoms: C_11  and  C_12 
REMARK    6  A    between atoms: C_13  and  O_14 
ROOT
HETATM    1  N   UNL     1      26.556  46.827  53.337  1.00  0.00    -0.395 N 
HETATM    2  H   UNL     1      27.456  47.178  52.974  1.00  0.00     0.159 HD
HETATM    3  C   UNL     1      26.616  46.016  54.333  1.00  0.00     0.098 C 
ENDROOT
BRANCH   1   4
HETATM    4  C   UNL     1      25.322  47.320  52.677  1.00  0.00     0.155 C 
BRANCH   4   5
HETATM    5  C   UNL     1      25.395  47.084  51.159  1.00  0.00     0.170 C 
BRANCH   5   6
HETATM    6  C   UNL     1      25.712  45.656  50.791  1.00  0.00    -0.011 A 
HETATM    7  C   UNL     1      26.813  45.373  49.986  1.00  0.00     0.126 A 
HETATM    8  N   UNL     1      27.149  44.136  49.570  1.00  0.00    -0.265 NA
HETATM    9  C   UNL     1      26.394  43.097  49.995  1.00  0.00     0.030 A 
HETATM   10  C   UNL     1      26.815  41.720  49.577  1.00  0.00     0.070 C 
HETATM   11  C   UNL     1      25.285  43.275  50.814  1.00  0.00     0.027 A 
HETATM   12  C   UNL     1      24.936  44.567  51.205  1.00  0.00     0.013 A 
ENDBRANCH   5   6
BRANCH   5  13
HETATM   13  O   UNL     1      26.350  47.993  50.605  1.00  0.00    -0.389 OA
HETATM   14  H   UNL     1      27.126  47.992  51.201  1.00  0.00     0.210 HD
ENDBRANCH   5  13
ENDBRANCH   4   5
ENDBRANCH   1   4
BRANCH   3  15
HETATM   15  C   UNL     1      27.889  45.552  54.943  1.00  0.00     0.023 A 
HETATM   16  C   UNL     1      28.385  46.185  56.102  1.00  0.00     0.078 A 
HETATM   17  C   UNL     1      29.600  45.807  56.657  1.00  0.00     0.038 A 
HETATM   18  C   UNL     1      30.334  44.787  56.060  1.00  0.00     0.015 A 
HETATM   19  C   UNL     1      29.865  44.124  54.917  1.00  0.00    -0.025 A 
HETATM   20  C   UNL     1      28.623  44.490  54.333  1.00  0.00    -0.012 A 
HETATM   21  C   UNL     1      30.637  43.092  54.359  1.00  0.00     0.012 A 
HETATM   22  C   UNL     1      28.210  43.752  53.191  1.00  0.00     0.013 A 
HETATM   23  C   UNL     1      28.990  42.725  52.652  1.00  0.00     0.001 A 
HETATM   24  C   UNL     1      30.205  42.398  53.234  1.00  0.00     0.001 A 
BRANCH  16  25
HETATM   25  O   UNL     1      27.665  47.192  56.700  1.00  0.00    -0.360 OA
HETATM   26  H   UNL     1      27.835  47.154  57.666  1.00  0.00     0.217 HD
ENDBRANCH  16  25
ENDBRANCH   3  15
TORSDOF 6
ENDMDL
MODEL 6
REMARK VINA RESULT:      -8.4      1.928      2.317
REMARK  6 active torsions:
REMARK  status: ('A' for Active; 'I' for Inactive)
REMARK    1  A    between atoms: C_5  and  C_6 
REMARK    2  A    between atoms: C_6  and  O_7 
REMARK    3  A    between atoms: C_6  and  C_8 
REMARK    4  A    between atoms: C_8  and  N_9 
REMARK    5  A    between atoms: C_11  and  C_12 
REMARK    6  A    between atoms: C_13  and  O_14 
ROOT
HETATM    1  N   UNL     1      25.612  45.624  52.186  1.00  0.00    -0.395 N 
HETATM    2  H   UNL     1      25.903  46.614  52.189  1.00  0.00     0.159 HD
HETATM    3  C   UNL     1      26.101  44.878  53.113  1.00  0.00     0.098 C 
ENDROOT
BRANCH   1   4
HETATM    4  C   UNL     1      24.659  45.204  51.129  1.00  0.00     0.155 C 
BRANCH   4   5
HETATM    5  C   UNL     1      25.106  45.740  49.759  1.00  0.00     0.170 C 
BRANCH   5   6
HETATM    6  C   UNL     1      24.426  47.029  49.372  1.00  0.00    -0.011 A 
HETATM    7  C   UNL     1      25.118  48.235  49.462  1.00  0.00     0.126 A 
HETATM    8  N   UNL     1      24.582  49.439  49.182  1.00  0.00    -0.265 NA
HETATM    9  C   UNL     1      23.303  49.477  48.745  1.00  0.00     0.030 A 
HETATM   10  C   UNL     1      22.738  50.816  48.376  1.00  0.00     0.070 C 
HETATM   11  C   UNL     1      22.534  48.327  48.606  1.00  0.00     0.027 A 
HETATM   12  C   UNL     1      23.099  47.095  48.934  1.00  0.00     0.013 A 
ENDBRANCH   5   6
BRANCH   5  13
HETATM   13  O   UNL     1      24.891  44.719  48.781  1.00  0.00    -0.389 OA
HETATM   14  H   UNL     1      25.722  44.206  48.717  1.00  0.00     0.210 HD
ENDBRANCH   5  13
ENDBRANCH   4   5
ENDBRANCH   1   4
BRANCH   3  15
HETATM   15  C   UNL     1      27.063  45.360  54.137  1.00  0.00     0.023 A 
HETATM   16  C   UNL     1      26.835  46.588  54.793  1.00  0.00     0.078 A 
HETATM   17  C   UNL     1      27.748  47.087  55.712  1.00  0.00     0.038 A 
HETATM   18  C   UNL     1      28.901  46.360  55.990  1.00  0.00     0.015 A 
HETATM   19  C   UNL     1      29.153  45.127  55.370  1.00  0.00    -0.025 A 
HETATM   20  C   UNL     1      28.232  44.595  54.429  1.00  0.00    -0.012 A 
HETATM   21  C   UNL     1      30.325  44.426  55.694  1.00  0.00     0.012 A 
HETATM   22  C   UNL     1      28.552  43.330  53.866  1.00  0.00     0.013 A 
HETATM   23  C   UNL     1      29.722  42.644  54.203  1.00  0.00     0.001 A 
HETATM   24  C   UNL     1      30.610  43.194  55.115  1.00  0.00     0.001 A 
BRANCH  16  25
HETATM   25  O   UNL     1      25.696  47.312  54.526  1.00  0.00    -0.360 OA
HETATM   26  H   UNL     1      25.414  47.107  53.610  1.00  0.00     0.217 HD
ENDBRANCH  16  25
ENDBRANCH   3  15
TORSDOF 6
ENDMDL
MODEL 7
REMARK VINA RESULT:      -8.3      3.864      5.105
REMARK  6 active torsions:
REMARK  status: ('A' for Active; 'I' for Inactive)
REMARK    1  A    between atoms: C_5  and  C_6 
REMARK    2  A    between atoms: C_6  and  O_7 
REMARK    3  A    between atoms: C_6  and  C_8 
REMARK    4  A    between atoms: C_8  and  N_9 
REMARK    5  A    between atoms: C_11  and  C_12 
REMARK    6  A    between atoms: C_13  and  O_14 
ROOT
HETATM    1  N   UNL     1      27.541  43.423  51.521  1.00  0.00    -0.395 N 
HETATM    2  H   UNL     1      28.008  44.260  51.139  1.00  0.00     0.159 HD
HETATM    3  C   UNL     1      27.285  43.433  52.782  1.00  0.00     0.098 C 
ENDROOT
BRANCH   1   4
HETATM    4  C   UNL     1      27.213  42.336  50.566  1.00  0.00     0.155 C 
BRANCH   4   5
HETATM    5  C   UNL     1      27.728  40.986  51.091  1.00  0.00     0.170 C 
BRANCH   5   6
HETATM    6  C   UNL     1      28.091  40.018  49.994  1.00  0.00    -0.011 A 
HETATM    7  C   UNL     1      27.651  40.245  48.692  1.00  0.00     0.126 A 
HETATM    8  N   UNL     1      27.886  39.415  47.657  1.00  0.00    -0.265 NA
HETATM    9  C   UNL     1      28.635  38.312  47.886  1.00  0.00     0.030 A 
HETATM   10  C   UNL     1      28.944  37.430  46.714  1.00  0.00     0.070 C 
HETATM   11  C   UNL     1      29.134  38.006  49.147  1.00  0.00     0.027 A 
HETATM   12  C   UNL     1      28.849  38.862  50.210  1.00  0.00     0.013 A 
ENDBRANCH   5   6
BRANCH   5  13
HETATM   13  O   UNL     1      26.744  40.437  51.972  1.00  0.00    -0.389 OA
HETATM   14  H   UNL     1      25.883  40.825  51.715  1.00  0.00     0.210 HD
ENDBRANCH   5  13
ENDBRANCH   4   5
ENDBRANCH   1   4
BRANCH   3  15
HETATM   15  C   UNL     1      27.652  44.552  53.687  1.00  0.00     0.023 A 
HETATM   16  C   UNL     1      26.898  45.744  53.673  1.00  0.00     0.078 A 
HETATM   17  C   UNL     1      27.255  46.824  54.470  1.00  0.00     0.038 A 
HETATM   18  C   UNL     1      28.371  46.723  55.294  1.00  0.00     0.015 A 
HETATM   19  C   UNL     1      29.134  45.548  55.347  1.00  0.00    -0.025 A 
HETATM   20  C   UNL     1      28.786  44.428  54.545  1.00  0.00    -0.012 A 
HETATM   21  C   UNL     1      30.244  45.491  56.205  1.00  0.00     0.012 A 
HETATM   22  C   UNL     1      29.599  43.270  54.677  1.00  0.00     0.013 A 
HETATM   23  C   UNL     1      30.697  43.230  55.540  1.00  0.00     0.001 A 
HETATM   24  C   UNL     1      31.022  44.343  56.301  1.00  0.00     0.001 A 
BRANCH  16  25
HETATM   25  O   UNL     1      25.792  45.852  52.863  1.00  0.00    -0.360 OA
HETATM   26  H   UNL     1      26.092  45.802  51.931  1.00  0.00     0.217 HD
ENDBRANCH  16  25
ENDBRANCH   3  15
TORSDOF 6
ENDMDL
MODEL 8
REMARK VINA RESULT:      -8.1      2.244      3.464
REMARK  6 active torsions:
REMARK  status: ('A' for Active; 'I' for Inactive)
REMARK    1  A    between atoms: C_5  and  C_6 
REMARK    2  A    between atoms: C_6  and  O_7 
REMARK    3  A    between atoms: C_6  and  C_8 
REMARK    4  A    between atoms: C_8  and  N_9 
REMARK    5  A    between atoms: C_11  and  C_12 
REMARK    6  A    between atoms: C_13  and  O_14 
ROOT
HETATM    1  N   UNL     1      25.129  44.934  51.999  1.00  0.00    -0.395 N 
HETATM    2  H   UNL     1      24.575  45.036  52.863  1.00  0.00     0.159 HD
HETATM    3  C   UNL     1      26.384  45.204  52.087  1.00  0.00     0.098 C 
ENDROOT
BRANCH   1   4
HETATM    4  C   UNL     1      24.411  44.474  50.785  1.00  0.00     0.155 C 
BRANCH   4   5
HETATM    5  C   UNL     1      24.266  42.942  50.796  1.00  0.00     0.170 C 
BRANCH   5   6
HETATM    6  C   UNL     1      25.476  42.225  50.252  1.00  0.00    -0.011 A 
HETATM    7  C   UNL     1      25.686  42.160  48.877  1.00  0.00     0.126 A 
HETATM    8  N   UNL     1      26.710  41.504  48.297  1.00  0.00    -0.265 NA
HETATM    9  C   UNL     1      27.618  40.907  49.102  1.00  0.00     0.030 A 
HETATM   10  C   UNL     1      28.788  40.236  48.447  1.00  0.00     0.070 C 
HETATM   11  C   UNL     1      27.505  40.930  50.487  1.00  0.00     0.027 A 
HETATM   12  C   UNL     1      26.418  41.585  51.064  1.00  0.00     0.013 A 
ENDBRANCH   5   6
BRANCH   5  13
HETATM   13  O   UNL     1      23.081  42.595  50.076  1.00  0.00    -0.389 OA
HETATM   14  H   UNL     1      22.322  42.931  50.595  1.00  0.00     0.210 HD
ENDBRANCH   5  13
ENDBRANCH   4   5
ENDBRANCH   1   4
BRANCH   3  15
HETATM   15  C   UNL     1      27.040  45.672  53.334  1.00  0.00     0.023 A 
HETATM   16  C   UNL     1      26.626  46.878  53.937  1.00  0.00     0.078 A 
HETATM   17  C   UNL     1      27.262  47.365  55.071  1.00  0.00     0.038 A 
HETATM   18  C   UNL     1      28.321  46.648  55.619  1.00  0.00     0.015 A 
HETATM   19  C   UNL     1      28.749  45.437  55.057  1.00  0.00    -0.025 A 
HETATM   20  C   UNL     1      28.111  44.916  53.900  1.00  0.00    -0.012 A 
HETATM   21  C   UNL     1      29.814  44.744  55.656  1.00  0.00     0.012 A 
HETATM   22  C   UNL     1      28.592  43.672  53.409  1.00  0.00     0.013 A 
HETATM   23  C   UNL     1      29.651  42.994  54.021  1.00  0.00     0.001 A 
HETATM   24  C   UNL     1      30.263  43.532  55.142  1.00  0.00     0.001 A 
BRANCH  16  25
HETATM   25  O   UNL     1      25.579  47.593  53.403  1.00  0.00    -0.360 OA
HETATM   26  H   UNL     1      25.800  48.547  53.464  1.00  0.00     0.217 HD
ENDBRANCH  16  25
ENDBRANCH   3  15
TORSDOF 6
ENDMDL
MODEL 9
REMARK VINA RESULT:      -8.0      2.098      3.240
REMARK  6 active torsions:
REMARK  status: ('A' for Active; 'I' for Inactive)
REMARK    1  A    between atoms: C_5  and  C_6 
REMARK    2  A    between atoms: C_6  and  O_7 
REMARK    3  A    between atoms: C_6  and  C_8 
REMARK    4  A    between atoms: C_8  and  N_9 
REMARK    5  A    between atoms: C_11  and  C_12 
REMARK    6  A    between atoms: C_13  and  O_14 
ROOT
HETATM    1  N   UNL     1      25.925  43.408  51.965  1.00  0.00    -0.395 N 
HETATM    2  H   UNL     1      25.694  43.010  52.889  1.00  0.00     0.159 HD
HETATM    3  C   UNL     1      27.140  43.798  51.796  1.00  0.00     0.098 C 
ENDROOT
BRANCH   1   4
HETATM    4  C   UNL     1      24.838  43.455  50.957  1.00  0.00     0.155 C 
BRANCH   4   5
HETATM    5  C   UNL     1      25.287  44.251  49.720  1.00  0.00     0.170 C 
BRANCH   5   6
HETATM    6  C   UNL     1      24.577  45.574  49.572  1.00  0.00    -0.011 A 
HETATM    7  C   UNL     1      25.077  46.707  50.208  1.00  0.00     0.126 A 
HETATM    8  N   UNL     1      24.489  47.919  50.171  1.00  0.00    -0.265 NA
HETATM    9  C   UNL     1      23.364  48.055  49.432  1.00  0.00     0.030 A 
HETATM   10  C   UNL     1      22.755  49.422  49.346  1.00  0.00     0.070 C 
HETATM   11  C   UNL     1      22.796  46.987  48.747  1.00  0.00     0.027 A 
HETATM   12  C   UNL     1      23.403  45.735  48.828  1.00  0.00     0.013 A 
ENDBRANCH   5   6
BRANCH   5  13
HETATM   13  O   UNL     1      25.111  43.428  48.564  1.00  0.00    -0.389 OA
HETATM   14  H   UNL     1      25.180  42.499  48.862  1.00  0.00     0.210 HD
ENDBRANCH   5  13
ENDBRANCH   4   5
ENDBRANCH   1   4
BRANCH   3  15
HETATM   15  C   UNL     1      28.181  43.732  52.853  1.00  0.00     0.023 A 
HETATM   16  C   UNL     1      29.134  42.693  52.837  1.00  0.00     0.078 A 
HETATM   17  C   UNL     1      30.082  42.578  53.846  1.00  0.00     0.038 A 
HETATM   18  C   UNL     1      30.090  43.506  54.882  1.00  0.00     0.015 A 
HETATM   19  C   UNL     1      29.169  44.562  54.921  1.00  0.00    -0.025 A 
HETATM   20  C   UNL     1      28.192  44.703  53.899  1.00  0.00    -0.012 A 
HETATM   21  C   UNL     1      29.226  45.480  55.982  1.00  0.00     0.012 A 
HETATM   22  C   UNL     1      27.313  45.815  54.003  1.00  0.00     0.013 A 
HETATM   23  C   UNL     1      27.388  46.721  55.065  1.00  0.00     0.001 A 
HETATM   24  C   UNL     1      28.342  46.552  56.056  1.00  0.00     0.001 A 
BRANCH  16  25
HETATM   25  O   UNL     1      29.135  41.772  51.816  1.00  0.00    -0.360 OA
HETATM   26  H   UNL     1      29.559  40.951  52.147  1.00  0.00     0.217 HD
ENDBRANCH  16  25
ENDBRANCH   3  15
TORSDOF 6
ENDMDL
MODEL 10
REMARK VINA RESULT:      -7.8      2.357      3.797
REMARK  6 active torsions:
REMARK  status: ('A' for Active; 'I' for Inactive)
REMARK    1  A    between atoms: C_5  and  C_6 
REMARK    2  A    between atoms: C_6  and  O_7 
REMARK    3  A    between atoms: C_6  and  C_8 
REMARK    4  A    between atoms: C_8  and  N_9 
REMARK    5  A    between atoms: C_11  and  C_12 
REMARK    6  A    between atoms: C_13  and  O_14 
ROOT
HETATM    1  N   UNL     1      28.714  42.801  52.216  1.00  0.00    -0.395 N 
HETATM    2  H   UNL     1      28.893  43.716  51.773  1.00  0.00     0.159 HD
HETATM    3  C   UNL     1      28.634  42.791  53.500  1.00  0.00     0.098 C 
ENDROOT
BRANCH   1   4
HETATM    4  C   UNL     1      28.553  41.633  51.315  1.00  0.00     0.155 C 
BRANCH   4   5
HETATM    5  C   UNL     1      27.074  41.446  50.937  1.00  0.00     0.170 C 
BRANCH   5   6
HETATM    6  C   UNL     1      26.372  42.742  50.618  1.00  0.00    -0.011 A 
HETATM    7  C   UNL     1      25.071  42.957  51.066  1.00  0.00     0.126 A 
HETATM    8  N   UNL     1      24.348  44.061  50.794  1.00  0.00    -0.265 NA
HETATM    9  C   UNL     1      24.938  45.043  50.074  1.00  0.00     0.030 A 
HETATM   10  C   UNL     1      24.145  46.293  49.831  1.00  0.00     0.070 C 
HETATM   11  C   UNL     1      26.237  44.930  49.596  1.00  0.00     0.027 A 
HETATM   12  C   UNL     1      26.955  43.764  49.861  1.00  0.00     0.013 A 
ENDBRANCH   5   6
BRANCH   5  13
HETATM   13  O   UNL     1      26.422  40.742  51.997  1.00  0.00    -0.389 OA
HETATM   14  H   UNL     1      25.522  41.119  52.080  1.00  0.00     0.210 HD
ENDBRANCH   5  13
ENDBRANCH   4   5
ENDBRANCH   1   4
BRANCH   3  15
HETATM   15  C   UNL     1      28.816  43.997  54.347  1.00  0.00     0.023 A 
HETATM   16  C   UNL     1      29.891  44.061  55.258  1.00  0.00     0.078 A 
HETATM   17  C   UNL     1      30.049  45.154  56.100  1.00  0.00     0.038 A 
HETATM   18  C   UNL     1      29.133  46.200  56.038  1.00  0.00     0.015 A 
HETATM   19  C   UNL     1      28.062  46.178  55.133  1.00  0.00    -0.025 A 
HETATM   20  C   UNL     1      27.882  45.073  54.259  1.00  0.00    -0.012 A 
HETATM   21  C   UNL     1      27.173  47.264  55.100  1.00  0.00     0.012 A 
HETATM   22  C   UNL     1      26.785  45.143  53.357  1.00  0.00     0.013 A 
HETATM   23  C   UNL     1      25.912  46.234  53.336  1.00  0.00     0.001 A 
HETATM   24  C   UNL     1      26.104  47.293  54.210  1.00  0.00     0.001 A 
BRANCH  16  25
HETATM   25  O   UNL     1      30.802  43.034  55.324  1.00  0.00    -0.360 OA
HETATM   26  H   UNL     1      30.475  42.301  54.760  1.00  0.00     0.217 HD
ENDBRANCH  16  25
ENDBRANCH   3  15
TORSDOF 6
ENDMDL
