MODEL 1
REMARK VINA RESULT:      -9.7      0.000      0.000
REMARK  7 active torsions:
REMARK  status: ('A' for Active; 'I' for Inactive)
REMARK    1  A    between atoms: C_2  and  C_3 
REMARK    2  A    between atoms: C_8  and  N_9 
REMARK    3  A    between atoms: N_9  and  C_10 
REMARK    4  A    between atoms: C_10  and  C_11 
REMARK       I    between atoms: C_11  and  N_12 
REMARK    5  A    between atoms: N_12  and  C_13 
REMARK    6  A    between atoms: C_24  and  N_25 
REMARK    7  A    between atoms: N_25  and  C_26 
ROOT
HETATM    1  N   UNL     1      24.123  44.592  50.331  1.00  0.00    -0.282 NA
HETATM    2  H   UNL     1      23.482  45.335  50.045  1.00  0.00     0.128 HD
ENDROOT
BRANCH   1   3
HETATM    3  C   UNL     1      24.779  45.065  51.502  1.00  0.00     0.036 A 
HETATM    4  C   UNL     1      25.236  44.223  52.526  1.00  0.00     0.042 A 
HETATM    5  C   UNL     1      25.901  44.739  53.650  1.00  0.00     0.049 A 
HETATM    6  C   UNL     1      26.112  46.118  53.734  1.00  0.00     0.018 A 
HETATM    7  C   UNL     1      25.666  46.969  52.720  1.00  0.00     0.032 A 
HETATM    8  C   UNL     1      25.010  46.471  51.592  1.00  0.00     0.049 A 
BRANCH   5   9
HETATM    9  C   UNL     1      26.377  43.805  54.734  1.00  0.00     0.417 C 
HETATM   10  F   UNL     1      25.377  43.337  55.530  1.00  0.00    -0.166 F 
HETATM   11  F   UNL     1      27.007  42.705  54.238  1.00  0.00    -0.166 F 
HETATM   12  F   UNL     1      27.271  44.402  55.571  1.00  0.00    -0.166 F 
ENDBRANCH   5   9
BRANCH   8  13
HETATM   13  N   UNL     1      24.475  47.286  50.590  1.00  0.00    -0.384 N 
HETATM   14  H   UNL     1      23.606  46.880  50.247  1.00  0.00     0.160 HD
BRANCH  13  15
HETATM   15  C   UNL     1      25.229  47.994  49.553  1.00  0.00     0.081 C 
HETATM   16  C   UNL     1      26.695  48.254  49.920  1.00  0.00     0.025 C 
HETATM   17  C   UNL     1      27.437  48.945  48.776  1.00  0.00     0.002 C 
HETATM   18  C   UNL     1      26.718  50.215  48.327  1.00  0.00     0.000 C 
HETATM   19  C   UNL     1      25.269  49.935  47.937  1.00  0.00     0.002 C 
HETATM   20  C   UNL     1      24.500  49.250  49.066  1.00  0.00     0.025 C 
ENDBRANCH  13  15
ENDBRANCH   8  13
ENDBRANCH   1   3
BRANCH   1  21
HETATM   21  C   UNL     1      24.927  44.159  49.164  1.00  0.00     0.195 C 
BRANCH  21  22
HETATM   22  C   UNL     1      25.339  42.678  49.225  1.00  0.00     0.235 C 
HETATM   23  N   UNL     1      26.708  42.506  49.299  1.00  0.00    -0.326 N 
HETATM   24  H   UNL     1      27.232  43.379  49.258  1.00  0.00     0.169 HD
HETATM   25  O   UNL     1      24.487  41.794  49.242  1.00  0.00    -0.272 OA
BRANCH  23  26
HETATM   26  C   UNL     1      27.441  41.307  49.287  1.00  0.00     0.037 A 
HETATM   27  C   UNL     1      27.893  40.670  50.449  1.00  0.00     0.061 A 
HETATM   28  C   UNL     1      28.572  39.484  50.286  1.00  0.00     0.065 A 
HETATM   29  C   UNL     1      28.820  38.928  49.034  1.00  0.00     0.063 A 
HETATM   30  N   UNL     1      29.111  38.631  51.245  1.00  0.00    -0.306 N 
HETATM   31  N   UNL     1      29.514  37.739  49.220  1.00  0.00    -0.307 N 
HETATM   32  C   UNL     1      28.400  39.529  47.875  1.00  0.00     0.034 A 
HETATM   33  C   UNL     1      29.699  37.537  50.597  1.00  0.00     0.325 A 
HETATM   34  H   UNL     1      29.834  37.098  48.514  1.00  0.00     0.170 HD
HETATM   35  O   UNL     1      30.260  36.592  51.122  1.00  0.00    -0.247 OA
HETATM   36  C   UNL     1      27.698  40.734  48.013  1.00  0.00     0.032 A 
HETATM   37  H   UNL     1      29.087  38.749  52.245  1.00  0.00     0.170 HD
ENDBRANCH  23  26
ENDBRANCH  21  22
ENDBRANCH   1  21
TORSDOF 7
ENDMDL
MODEL 2
REMARK VINA RESULT:      -9.7      3.365      7.852
REMARK  7 active torsions:
REMARK  status: ('A' for Active; 'I' for Inactive)
REMARK    1  A    between atoms: C_2  and  C_3 
REMARK    2  A    between atoms: C_8  and  N_9 
REMARK    3  A    between atoms: N_9  and  C_10 
REMARK    4  A    between atoms: C_10  and  C_11 
REMARK       I    between atoms: C_11  and  N_12 
REMARK    5  A    between atoms: N_12  and  C_13 
REMARK    6  A    between atoms: C_24  and  N_25 
REMARK    7  A    between atoms: N_25  and  C_26 
ROOT
HETATM    1  N   UNL     1      25.996  43.390  53.792  1.00  0.00    -0.282 NA
HETATM    2  H   UNL     1      25.608  42.502  54.116  1.00  0.00     0.128 HD
ENDROOT
BRANCH   1   3
HETATM    3  C   UNL     1      27.405  43.294  53.965  1.00  0.00     0.036 A 
HETATM    4  C   UNL     1      28.141  44.141  54.807  1.00  0.00     0.042 A 
HETATM    5  C   UNL     1      29.527  43.986  54.963  1.00  0.00     0.049 A 
HETATM    6  C   UNL     1      30.174  42.962  54.266  1.00  0.00     0.018 A 
HETATM    7  C   UNL     1      29.454  42.109  53.426  1.00  0.00     0.032 A 
HETATM    8  C   UNL     1      28.073  42.244  53.267  1.00  0.00     0.049 A 
BRANCH   5   9
HETATM    9  C   UNL     1      30.288  44.915  55.876  1.00  0.00     0.417 C 
HETATM   10  F   UNL     1      29.991  44.748  57.194  1.00  0.00    -0.166 F 
HETATM   11  F   UNL     1      31.636  44.763  55.773  1.00  0.00    -0.166 F 
HETATM   12  F   UNL     1      30.038  46.226  55.601  1.00  0.00    -0.166 F 
ENDBRANCH   5   9
BRANCH   8  13
HETATM   13  N   UNL     1      27.321  41.469  52.379  1.00  0.00    -0.384 N 
HETATM   14  H   UNL     1      27.339  40.494  52.677  1.00  0.00     0.160 HD
BRANCH  13  15
HETATM   15  C   UNL     1      27.263  41.626  50.924  1.00  0.00     0.081 C 
HETATM   16  C   UNL     1      25.842  41.792  50.374  1.00  0.00     0.025 C 
HETATM   17  C   UNL     1      25.856  42.006  48.861  1.00  0.00     0.002 C 
HETATM   18  C   UNL     1      26.630  40.901  48.144  1.00  0.00     0.000 C 
HETATM   19  C   UNL     1      28.052  40.768  48.683  1.00  0.00     0.002 C 
HETATM   20  C   UNL     1      28.068  40.545  50.195  1.00  0.00     0.025 C 
ENDBRANCH  13  15
ENDBRANCH   8  13
ENDBRANCH   1   3
BRANCH   1  21
HETATM   21  C   UNL     1      25.254  44.509  54.418  1.00  0.00     0.195 C 
BRANCH  21  22
HETATM   22  C   UNL     1      25.383  45.833  53.646  1.00  0.00     0.235 C 
HETATM   23  N   UNL     1      25.184  45.682  52.286  1.00  0.00    -0.326 N 
HETATM   24  H   UNL     1      25.025  44.716  52.003  1.00  0.00     0.169 HD
HETATM   25  O   UNL     1      25.604  46.884  54.242  1.00  0.00    -0.272 OA
BRANCH  23  26
HETATM   26  C   UNL     1      25.302  46.647  51.272  1.00  0.00     0.037 A 
HETATM   27  C   UNL     1      24.204  47.186  50.590  1.00  0.00     0.061 A 
HETATM   28  C   UNL     1      24.470  48.148  49.642  1.00  0.00     0.065 A 
HETATM   29  C   UNL     1      25.763  48.573  49.348  1.00  0.00     0.063 A 
HETATM   30  N   UNL     1      23.592  48.864  48.834  1.00  0.00    -0.306 N 
HETATM   31  N   UNL     1      25.681  49.547  48.360  1.00  0.00    -0.307 N 
HETATM   32  C   UNL     1      26.862  48.061  49.989  1.00  0.00     0.034 A 
HETATM   33  C   UNL     1      24.331  49.743  48.032  1.00  0.00     0.325 A 
HETATM   34  H   UNL     1      26.439  50.055  47.936  1.00  0.00     0.170 HD
HETATM   35  O   UNL     1      23.891  50.527  47.210  1.00  0.00    -0.247 OA
HETATM   36  C   UNL     1      26.618  47.087  50.967  1.00  0.00     0.032 A 
HETATM   37  H   UNL     1      22.587  48.793  48.818  1.00  0.00     0.170 HD
ENDBRANCH  23  26
ENDBRANCH  21  22
ENDBRANCH   1  21
TORSDOF 7
ENDMDL
MODEL 3
REMARK VINA RESULT:      -9.4      3.826      8.823
REMARK  7 active torsions:
REMARK  status: ('A' for Active; 'I' for Inactive)
REMARK    1  A    between atoms: C_2  and  C_3 
REMARK    2  A    between atoms: C_8  and  N_9 
REMARK    3  A    between atoms: N_9  and  C_10 
REMARK    4  A    between atoms: C_10  and  C_11 
REMARK       I    between atoms: C_11  and  N_12 
REMARK    5  A    between atoms: N_12  and  C_13 
REMARK    6  A    between atoms: C_24  and  N_25 
REMARK    7  A    between atoms: N_25  and  C_26 
ROOT
HETATM    1  N   UNL     1      26.772  43.523  51.363  1.00  0.00    -0.282 NA
HETATM    2  H   UNL     1      26.607  43.813  52.329  1.00  0.00     0.128 HD
ENDROOT
BRANCH   1   3
HETATM    3  C   UNL     1      27.478  42.290  51.433  1.00  0.00     0.036 A 
HETATM    4  C   UNL     1      27.610  41.411  50.349  1.00  0.00     0.042 A 
HETATM    5  C   UNL     1      28.341  40.218  50.464  1.00  0.00     0.049 A 
HETATM    6  C   UNL     1      28.948  39.914  51.686  1.00  0.00     0.018 A 
HETATM    7  C   UNL     1      28.828  40.782  52.774  1.00  0.00     0.032 A 
HETATM    8  C   UNL     1      28.111  41.977  52.673  1.00  0.00     0.049 A 
BRANCH   5   9
HETATM    9  C   UNL     1      28.462  39.294  49.278  1.00  0.00     0.417 C 
HETATM   10  F   UNL     1      27.264  38.844  48.812  1.00  0.00    -0.166 F 
HETATM   11  F   UNL     1      29.079  39.883  48.217  1.00  0.00    -0.166 F 
HETATM   12  F   UNL     1      29.192  38.181  49.564  1.00  0.00    -0.166 F 
ENDBRANCH   5   9
BRANCH   8  13
HETATM   13  N   UNL     1      27.895  42.838  53.753  1.00  0.00    -0.384 N 
HETATM   14  H   UNL     1      26.948  43.211  53.709  1.00  0.00     0.160 HD
BRANCH  13  15
HETATM   15  C   UNL     1      28.861  43.785  54.314  1.00  0.00     0.081 C 
HETATM   16  C   UNL     1      29.930  43.131  55.198  1.00  0.00     0.025 C 
HETATM   17  C   UNL     1      30.936  44.164  55.705  1.00  0.00     0.002 C 
HETATM   18  C   UNL     1      30.240  45.329  56.405  1.00  0.00     0.000 C 
HETATM   19  C   UNL     1      29.199  45.989  55.502  1.00  0.00     0.002 C 
HETATM   20  C   UNL     1      28.175  44.979  54.985  1.00  0.00     0.025 C 
ENDBRANCH  13  15
ENDBRANCH   8  13
ENDBRANCH   1   3
BRANCH   1  21
HETATM   21  C   UNL     1      27.347  44.655  50.601  1.00  0.00     0.195 C 
BRANCH  21  22
HETATM   22  C   UNL     1      26.291  45.475  49.839  1.00  0.00     0.235 C 
HETATM   23  N   UNL     1      26.413  46.836  50.052  1.00  0.00    -0.326 N 
HETATM   24  H   UNL     1      27.152  47.080  50.710  1.00  0.00     0.169 HD
HETATM   25  O   UNL     1      25.478  44.918  49.106  1.00  0.00    -0.272 OA
BRANCH  23  26
HETATM   26  C   UNL     1      25.584  47.872  49.590  1.00  0.00     0.037 A 
HETATM   27  C   UNL     1      24.211  47.937  49.858  1.00  0.00     0.061 A 
HETATM   28  C   UNL     1      23.531  49.029  49.367  1.00  0.00     0.065 A 
HETATM   29  C   UNL     1      24.155  50.029  48.626  1.00  0.00     0.063 A 
HETATM   30  N   UNL     1      22.187  49.366  49.492  1.00  0.00    -0.306 N 
HETATM   31  N   UNL     1      23.197  50.979  48.293  1.00  0.00    -0.307 N 
HETATM   32  C   UNL     1      25.495  49.993  48.338  1.00  0.00     0.034 A 
HETATM   33  C   UNL     1      21.963  50.581  48.831  1.00  0.00     0.325 A 
HETATM   34  H   UNL     1      23.330  51.826  47.768  1.00  0.00     0.170 HD
HETATM   35  O   UNL     1      20.906  51.179  48.740  1.00  0.00    -0.247 OA
HETATM   36  C   UNL     1      26.213  48.897  48.834  1.00  0.00     0.032 A 
HETATM   37  H   UNL     1      21.474  48.849  49.981  1.00  0.00     0.170 HD
ENDBRANCH  23  26
ENDBRANCH  21  22
ENDBRANCH   1  21
TORSDOF 7
ENDMDL
MODEL 4
REMARK VINA RESULT:      -9.4      1.534      1.945
REMARK  7 active torsions:
REMARK  status: ('A' for Active; 'I' for Inactive)
REMARK    1  A    between atoms: C_2  and  C_3 
REMARK    2  A    between atoms: C_8  and  N_9 
REMARK    3  A    between atoms: N_9  and  C_10 
REMARK    4  A    between atoms: C_10  and  C_11 
REMARK       I    between atoms: C_11  and  N_12 
REMARK    5  A    between atoms: N_12  and  C_13 
REMARK    6  A    between atoms: C_24  and  N_25 
REMARK    7  A    between atoms: N_25  and  C_26 
ROOT
HETATM    1  N   UNL     1      26.856  44.566  49.600  1.00  0.00    -0.282 NA
HETATM    2  H   UNL     1      27.793  44.246  49.347  1.00  0.00     0.128 HD
ENDROOT
BRANCH   1   3
HETATM    3  C   UNL     1      26.910  44.898  50.983  1.00  0.00     0.036 A 
HETATM    4  C   UNL     1      27.681  44.193  51.918  1.00  0.00     0.042 A 
HETATM    5  C   UNL     1      27.720  44.579  53.267  1.00  0.00     0.049 A 
HETATM    6  C   UNL     1      26.979  45.692  53.673  1.00  0.00     0.018 A 
HETATM    7  C   UNL     1      26.208  46.407  52.751  1.00  0.00     0.032 A 
HETATM    8  C   UNL     1      26.165  46.041  51.404  1.00  0.00     0.049 A 
BRANCH   5   9
HETATM    9  C   UNL     1      28.559  43.797  54.247  1.00  0.00     0.417 C 
HETATM   10  F   UNL     1      28.906  44.506  55.357  1.00  0.00    -0.166 F 
HETATM   11  F   UNL     1      27.930  42.678  54.699  1.00  0.00    -0.166 F 
HETATM   12  F   UNL     1      29.730  43.371  53.696  1.00  0.00    -0.166 F 
ENDBRANCH   5   9
BRANCH   8  13
HETATM   13  N   UNL     1      25.350  46.673  50.460  1.00  0.00    -0.384 N 
HETATM   14  H   UNL     1      25.058  45.999  49.754  1.00  0.00     0.160 HD
BRANCH  13  15
HETATM   15  C   UNL     1      25.528  48.025  49.928  1.00  0.00     0.081 C 
HETATM   16  C   UNL     1      24.374  48.499  49.037  1.00  0.00     0.025 C 
HETATM   17  C   UNL     1      24.597  49.934  48.560  1.00  0.00     0.002 C 
HETATM   18  C   UNL     1      25.956  50.097  47.883  1.00  0.00     0.000 C 
HETATM   19  C   UNL     1      27.097  49.649  48.794  1.00  0.00     0.002 C 
HETATM   20  C   UNL     1      26.904  48.213  49.280  1.00  0.00     0.025 C 
ENDBRANCH  13  15
ENDBRANCH   8  13
ENDBRANCH   1   3
BRANCH   1  21
HETATM   21  C   UNL     1      25.855  43.586  49.120  1.00  0.00     0.195 C 
BRANCH  21  22
HETATM   22  C   UNL     1      25.988  42.205  49.784  1.00  0.00     0.235 C 
HETATM   23  N   UNL     1      27.034  41.462  49.271  1.00  0.00    -0.326 N 
HETATM   24  H   UNL     1      27.526  41.924  48.507  1.00  0.00     0.169 HD
HETATM   25  O   UNL     1      25.234  41.876  50.697  1.00  0.00    -0.272 OA
BRANCH  23  26
HETATM   26  C   UNL     1      27.401  40.140  49.575  1.00  0.00     0.037 A 
HETATM   27  C   UNL     1      28.540  39.809  50.320  1.00  0.00     0.061 A 
HETATM   28  C   UNL     1      28.757  38.473  50.568  1.00  0.00     0.065 A 
HETATM   29  C   UNL     1      27.904  37.476  50.102  1.00  0.00     0.063 A 
HETATM   30  N   UNL     1      29.778  37.858  51.286  1.00  0.00    -0.306 N 
HETATM   31  N   UNL     1      28.400  36.251  50.528  1.00  0.00    -0.307 N 
HETATM   32  C   UNL     1      26.784  37.763  49.362  1.00  0.00     0.034 A 
HETATM   33  C   UNL     1      29.568  36.473  51.273  1.00  0.00     0.325 A 
HETATM   34  H   UNL     1      28.008  35.339  50.361  1.00  0.00     0.170 HD
HETATM   35  O   UNL     1      30.260  35.624  51.806  1.00  0.00    -0.247 OA
HETATM   36  C   UNL     1      26.535  39.118  49.104  1.00  0.00     0.032 A 
HETATM   37  H   UNL     1      30.545  38.309  51.758  1.00  0.00     0.170 HD
ENDBRANCH  23  26
ENDBRANCH  21  22
ENDBRANCH   1  21
TORSDOF 7
ENDMDL
MODEL 5
REMARK VINA RESULT:      -9.3      3.033      4.782
REMARK  7 active torsions:
REMARK  status: ('A' for Active; 'I' for Inactive)
REMARK    1  A    between atoms: C_2  and  C_3 
REMARK    2  A    between atoms: C_8  and  N_9 
REMARK    3  A    between atoms: N_9  and  C_10 
REMARK    4  A    between atoms: C_10  and  C_11 
REMARK       I    between atoms: C_11  and  N_12 
REMARK    5  A    between atoms: N_12  and  C_13 
REMARK    6  A    between atoms: C_24  and  N_25 
REMARK    7  A    between atoms: N_25  and  C_26 
ROOT
HETATM    1  N   UNL     1      27.920  41.311  53.392  1.00  0.00    -0.282 NA
HETATM    2  H   UNL     1      26.956  41.411  53.065  1.00  0.00     0.128 HD
ENDROOT
BRANCH   1   3
HETATM    3  C   UNL     1      28.253  42.541  54.025  1.00  0.00     0.036 A 
HETATM    4  C   UNL     1      29.388  42.714  54.829  1.00  0.00     0.042 A 
HETATM    5  C   UNL     1      29.686  43.957  55.410  1.00  0.00     0.049 A 
HETATM    6  C   UNL     1      28.831  45.036  55.169  1.00  0.00     0.018 A 
HETATM    7  C   UNL     1      27.698  44.880  54.367  1.00  0.00     0.032 A 
HETATM    8  C   UNL     1      27.392  43.652  53.775  1.00  0.00     0.049 A 
BRANCH   5   9
HETATM    9  C   UNL     1      30.915  44.108  56.271  1.00  0.00     0.417 C 
HETATM   10  F   UNL     1      31.319  42.945  56.853  1.00  0.00    -0.166 F 
HETATM   11  F   UNL     1      31.989  44.572  55.576  1.00  0.00    -0.166 F 
HETATM   12  F   UNL     1      30.723  44.989  57.292  1.00  0.00    -0.166 F 
ENDBRANCH   5   9
BRANCH   8  13
HETATM   13  N   UNL     1      26.231  43.424  53.031  1.00  0.00    -0.384 N 
HETATM   14  H   UNL     1      26.005  42.430  53.045  1.00  0.00     0.160 HD
BRANCH  13  15
HETATM   15  C   UNL     1      25.863  44.081  51.775  1.00  0.00     0.081 C 
HETATM   16  C   UNL     1      27.051  44.361  50.849  1.00  0.00     0.025 C 
HETATM   17  C   UNL     1      26.592  44.996  49.536  1.00  0.00     0.002 C 
HETATM   18  C   UNL     1      25.743  46.242  49.782  1.00  0.00     0.000 C 
HETATM   19  C   UNL     1      24.547  45.941  50.683  1.00  0.00     0.002 C 
HETATM   20  C   UNL     1      24.978  45.311  52.006  1.00  0.00     0.025 C 
ENDBRANCH  13  15
ENDBRANCH   8  13
ENDBRANCH   1   3
BRANCH   1  21
HETATM   21  C   UNL     1      28.764  40.803  52.285  1.00  0.00     0.195 C 
BRANCH  21  22
HETATM   22  C   UNL     1      27.990  40.606  50.970  1.00  0.00     0.235 C 
HETATM   23  N   UNL     1      28.790  40.147  49.941  1.00  0.00    -0.326 N 
HETATM   24  H   UNL     1      29.771  40.051  50.200  1.00  0.00     0.169 HD
HETATM   25  O   UNL     1      26.781  40.817  50.920  1.00  0.00    -0.272 OA
BRANCH  23  26
HETATM   26  C   UNL     1      28.448  39.933  48.595  1.00  0.00     0.037 A 
HETATM   27  C   UNL     1      28.019  40.954  47.738  1.00  0.00     0.061 A 
HETATM   28  C   UNL     1      27.749  40.602  46.435  1.00  0.00     0.065 A 
HETATM   29  C   UNL     1      27.878  39.296  45.970  1.00  0.00     0.063 A 
HETATM   30  N   UNL     1      27.333  41.395  45.370  1.00  0.00    -0.306 N 
HETATM   31  N   UNL     1      27.539  39.283  44.622  1.00  0.00    -0.307 N 
HETATM   32  C   UNL     1      28.287  38.270  46.783  1.00  0.00     0.034 A 
HETATM   33  C   UNL     1      27.200  40.588  44.232  1.00  0.00     0.325 A 
HETATM   34  H   UNL     1      27.537  38.495  43.998  1.00  0.00     0.170 HD
HETATM   35  O   UNL     1      26.861  40.946  43.118  1.00  0.00    -0.247 OA
HETATM   36  C   UNL     1      28.578  38.604  48.113  1.00  0.00     0.032 A 
HETATM   37  H   UNL     1      27.161  42.387  45.383  1.00  0.00     0.170 HD
ENDBRANCH  23  26
ENDBRANCH  21  22
ENDBRANCH   1  21
TORSDOF 7
ENDMDL
MODEL 6
REMARK VINA RESULT:      -9.2      1.144      1.817
REMARK  7 active torsions:
REMARK  status: ('A' for Active; 'I' for Inactive)
REMARK    1  A    between atoms: C_2  and  C_3 
REMARK    2  A    between atoms: C_8  and  N_9 
REMARK    3  A    between atoms: N_9  and  C_10 
REMARK    4  A    between atoms: C_10  and  C_11 
REMARK       I    between atoms: C_11  and  N_12 
REMARK    5  A    between atoms: N_12  and  C_13 
REMARK    6  A    between atoms: C_24  and  N_25 
REMARK    7  A    between atoms: N_25  and  C_26 
ROOT
HETATM    1  N   UNL     1      25.802  45.075  49.170  1.00  0.00    -0.282 NA
HETATM    2  H   UNL     1      26.738  44.701  49.002  1.00  0.00     0.128 HD
ENDROOT
BRANCH   1   3
HETATM    3  C   UNL     1      25.795  45.539  50.515  1.00  0.00     0.036 A 
HETATM    4  C   UNL     1      25.953  44.697  51.624  1.00  0.00     0.042 A 
HETATM    5  C   UNL     1      25.966  45.209  52.931  1.00  0.00     0.049 A 
HETATM    6  C   UNL     1      25.824  46.587  53.117  1.00  0.00     0.018 A 
HETATM    7  C   UNL     1      25.669  47.440  52.020  1.00  0.00     0.032 A 
HETATM    8  C   UNL     1      25.663  46.946  50.714  1.00  0.00     0.049 A 
BRANCH   5   9
HETATM    9  C   UNL     1      26.136  44.274  54.102  1.00  0.00     0.417 C 
HETATM   10  F   UNL     1      26.709  43.084  53.771  1.00  0.00    -0.166 F 
HETATM   11  F   UNL     1      26.914  44.803  55.086  1.00  0.00    -0.166 F 
HETATM   12  F   UNL     1      24.948  43.965  54.691  1.00  0.00    -0.166 F 
ENDBRANCH   5   9
BRANCH   8  13
HETATM   13  N   UNL     1      25.432  47.745  49.590  1.00  0.00    -0.384 N 
HETATM   14  H   UNL     1      26.307  48.170  49.286  1.00  0.00     0.160 HD
BRANCH  13  15
HETATM   15  C   UNL     1      24.265  48.600  49.358  1.00  0.00     0.081 C 
HETATM   16  C   UNL     1      23.028  47.842  48.866  1.00  0.00     0.025 C 
HETATM   17  C   UNL     1      21.834  48.781  48.697  1.00  0.00     0.002 C 
HETATM   18  C   UNL     1      22.177  49.971  47.804  1.00  0.00     0.000 C 
HETATM   19  C   UNL     1      23.394  50.733  48.323  1.00  0.00     0.002 C 
HETATM   20  C   UNL     1      24.606  49.819  48.494  1.00  0.00     0.025 C 
ENDBRANCH  13  15
ENDBRANCH   8  13
ENDBRANCH   1   3
BRANCH   1  21
HETATM   21  C   UNL     1      24.791  44.086  48.730  1.00  0.00     0.195 C 
BRANCH  21  22
HETATM   22  C   UNL     1      25.230  42.628  48.950  1.00  0.00     0.235 C 
HETATM   23  N   UNL     1      26.600  42.463  48.868  1.00  0.00    -0.326 N 
HETATM   24  H   UNL     1      27.100  43.319  48.634  1.00  0.00     0.169 HD
HETATM   25  O   UNL     1      24.401  41.758  49.205  1.00  0.00    -0.272 OA
BRANCH  23  26
HETATM   26  C   UNL     1      27.344  41.272  48.935  1.00  0.00     0.037 A 
HETATM   27  C   UNL     1      27.882  40.766  50.124  1.00  0.00     0.061 A 
HETATM   28  C   UNL     1      28.561  39.572  50.043  1.00  0.00     0.065 A 
HETATM   29  C   UNL     1      28.728  38.885  48.844  1.00  0.00     0.063 A 
HETATM   30  N   UNL     1      29.174  38.830  51.048  1.00  0.00    -0.306 N 
HETATM   31  N   UNL     1      29.446  37.725  49.108  1.00  0.00    -0.307 N 
HETATM   32  C   UNL     1      28.223  39.356  47.658  1.00  0.00     0.034 A 
HETATM   33  C   UNL     1      29.728  37.674  50.482  1.00  0.00     0.325 A 
HETATM   34  H   UNL     1      29.724  37.013  48.454  1.00  0.00     0.170 HD
HETATM   35  O   UNL     1      30.334  36.793  51.065  1.00  0.00    -0.247 OA
HETATM   36  C   UNL     1      27.518  40.566  47.715  1.00  0.00     0.032 A 
HETATM   37  H   UNL     1      29.217  39.055  52.029  1.00  0.00     0.170 HD
ENDBRANCH  23  26
ENDBRANCH  21  22
ENDBRANCH   1  21
TORSDOF 7
ENDMDL
MODEL 7
REMARK VINA RESULT:      -9.2      3.705      5.355
REMARK  7 active torsions:
REMARK  status: ('A' for Active; 'I' for Inactive)
REMARK    1  A    between atoms: C_2  and  C_3 
REMARK    2  A    between atoms: C_8  and  N_9 
REMARK    3  A    between atoms: N_9  and  C_10 
REMARK    4  A    between atoms: C_10  and  C_11 
REMARK       I    between atoms: C_11  and  N_12 
REMARK    5  A    between atoms: N_12  and  C_13 
REMARK    6  A    between atoms: C_24  and  N_25 
REMARK    7  A    between atoms: N_25  and  C_26 
ROOT
HETATM    1  N   UNL     1      22.572  46.996  49.369  1.00  0.00    -0.282 NA
HETATM    2  H   UNL     1      21.654  47.411  49.196  1.00  0.00     0.128 HD
ENDROOT
BRANCH   1   3
HETATM    3  C   UNL     1      23.529  47.996  49.038  1.00  0.00     0.036 A 
HETATM    4  C   UNL     1      24.894  47.890  49.338  1.00  0.00     0.042 A 
HETATM    5  C   UNL     1      25.801  48.894  48.965  1.00  0.00     0.049 A 
HETATM    6  C   UNL     1      25.324  50.013  48.277  1.00  0.00     0.018 A 
HETATM    7  C   UNL     1      23.966  50.131  47.969  1.00  0.00     0.032 A 
HETATM    8  C   UNL     1      23.052  49.137  48.325  1.00  0.00     0.049 A 
BRANCH   5   9
HETATM    9  C   UNL     1      27.263  48.748  49.305  1.00  0.00     0.417 C 
HETATM   10  F   UNL     1      27.994  49.873  49.067  1.00  0.00    -0.166 F 
HETATM   11  F   UNL     1      27.469  48.439  50.614  1.00  0.00    -0.166 F 
HETATM   12  F   UNL     1      27.862  47.757  48.589  1.00  0.00    -0.166 F 
ENDBRANCH   5   9
BRANCH   8  13
HETATM   13  N   UNL     1      21.675  49.244  48.110  1.00  0.00    -0.384 N 
HETATM   14  H   UNL     1      21.488  49.299  47.110  1.00  0.00     0.160 HD
BRANCH  13  15
HETATM   15  C   UNL     1      20.729  50.018  48.917  1.00  0.00     0.081 C 
HETATM   16  C   UNL     1      19.613  49.174  49.545  1.00  0.00     0.025 C 
HETATM   17  C   UNL     1      18.695  50.031  50.416  1.00  0.00     0.002 C 
HETATM   18  C   UNL     1      18.150  51.232  49.646  1.00  0.00     0.000 C 
HETATM   19  C   UNL     1      19.274  52.079  49.052  1.00  0.00     0.002 C 
HETATM   20  C   UNL     1      20.204  51.248  48.169  1.00  0.00     0.025 C 
ENDBRANCH  13  15
ENDBRANCH   8  13
ENDBRANCH   1   3
BRANCH   1  21
HETATM   21  C   UNL     1      22.643  45.668  48.717  1.00  0.00     0.195 C 
BRANCH  21  22
HETATM   22  C   UNL     1      23.393  44.617  49.553  1.00  0.00     0.235 C 
HETATM   23  N   UNL     1      24.736  44.539  49.236  1.00  0.00    -0.326 N 
HETATM   24  H   UNL     1      25.011  45.155  48.472  1.00  0.00     0.169 HD
HETATM   25  O   UNL     1      22.806  43.978  50.422  1.00  0.00    -0.272 OA
BRANCH  23  26
HETATM   26  C   UNL     1      25.702  43.648  49.733  1.00  0.00     0.037 A 
HETATM   27  C   UNL     1      25.853  42.337  49.265  1.00  0.00     0.061 A 
HETATM   28  C   UNL     1      26.864  41.588  49.823  1.00  0.00     0.065 A 
HETATM   29  C   UNL     1      27.704  42.084  50.815  1.00  0.00     0.063 A 
HETATM   30  N   UNL     1      27.258  40.282  49.545  1.00  0.00    -0.306 N 
HETATM   31  N   UNL     1      28.611  41.086  51.151  1.00  0.00    -0.307 N 
HETATM   32  C   UNL     1      27.579  43.360  51.304  1.00  0.00     0.034 A 
HETATM   33  C   UNL     1      28.347  39.956  50.363  1.00  0.00     0.325 A 
HETATM   34  H   UNL     1      29.351  41.134  51.830  1.00  0.00     0.170 HD
HETATM   35  O   UNL     1      28.953  38.899  50.386  1.00  0.00    -0.247 OA
HETATM   36  C   UNL     1      26.563  44.147  50.746  1.00  0.00     0.032 A 
HETATM   37  H   UNL     1      26.854  39.658  48.866  1.00  0.00     0.170 HD
ENDBRANCH  23  26
ENDBRANCH  21  22
ENDBRANCH   1  21
TORSDOF 7
ENDMDL
MODEL 8
REMARK VINA RESULT:      -9.1      3.233      4.650
REMARK  7 active torsions:
REMARK  status: ('A' for Active; 'I' for Inactive)
REMARK    1  A    between atoms: C_2  and  C_3 
REMARK    2  A    between atoms: C_8  and  N_9 
REMARK    3  A    between atoms: N_9  and  C_10 
REMARK    4  A    between atoms: C_10  and  C_11 
REMARK       I    between atoms: C_11  and  N_12 
REMARK    5  A    between atoms: N_12  and  C_13 
REMARK    6  A    between atoms: C_24  and  N_25 
REMARK    7  A    between atoms: N_25  and  C_26 
ROOT
HETATM    1  N   UNL     1      29.516  42.218  52.466  1.00  0.00    -0.282 NA
HETATM    2  H   UNL     1      30.504  42.137  52.217  1.00  0.00     0.128 HD
ENDROOT
BRANCH   1   3
HETATM    3  C   UNL     1      29.461  43.076  53.600  1.00  0.00     0.036 A 
HETATM    4  C   UNL     1      30.374  43.014  54.662  1.00  0.00     0.042 A 
HETATM    5  C   UNL     1      30.291  43.902  55.746  1.00  0.00     0.049 A 
HETATM    6  C   UNL     1      29.279  44.867  55.752  1.00  0.00     0.018 A 
HETATM    7  C   UNL     1      28.364  44.942  54.699  1.00  0.00     0.032 A 
HETATM    8  C   UNL     1      28.438  44.071  53.610  1.00  0.00     0.049 A 
BRANCH   5   9
HETATM    9  C   UNL     1      31.290  43.807  56.872  1.00  0.00     0.417 C 
HETATM   10  F   UNL     1      32.585  43.906  56.463  1.00  0.00    -0.166 F 
HETATM   11  F   UNL     1      31.117  44.779  57.809  1.00  0.00    -0.166 F 
HETATM   12  F   UNL     1      31.199  42.624  57.541  1.00  0.00    -0.166 F 
ENDBRANCH   5   9
BRANCH   8  13
HETATM   13  N   UNL     1      27.501  44.055  52.572  1.00  0.00    -0.384 N 
HETATM   14  H   UNL     1      27.673  43.253  51.968  1.00  0.00     0.160 HD
BRANCH  13  15
HETATM   15  C   UNL     1      26.985  45.220  51.850  1.00  0.00     0.081 C 
HETATM   16  C   UNL     1      25.581  45.651  52.288  1.00  0.00     0.025 C 
HETATM   17  C   UNL     1      25.127  46.902  51.536  1.00  0.00     0.002 C 
HETATM   18  C   UNL     1      25.230  46.717  50.024  1.00  0.00     0.000 C 
HETATM   19  C   UNL     1      26.642  46.316  49.600  1.00  0.00     0.002 C 
HETATM   20  C   UNL     1      27.120  45.063  50.332  1.00  0.00     0.025 C 
ENDBRANCH  13  15
ENDBRANCH   8  13
ENDBRANCH   1   3
BRANCH   1  21
HETATM   21  C   UNL     1      28.915  40.866  52.539  1.00  0.00     0.195 C 
BRANCH  21  22
HETATM   22  C   UNL     1      28.204  40.445  51.241  1.00  0.00     0.235 C 
HETATM   23  N   UNL     1      29.056  39.840  50.336  1.00  0.00    -0.326 N 
HETATM   24  H   UNL     1      30.025  39.805  50.649  1.00  0.00     0.169 HD
HETATM   25  O   UNL     1      26.997  40.623  51.105  1.00  0.00    -0.272 OA
BRANCH  23  26
HETATM   26  C   UNL     1      28.778  39.404  49.030  1.00  0.00     0.037 A 
HETATM   27  C   UNL     1      28.850  38.063  48.633  1.00  0.00     0.061 A 
HETATM   28  C   UNL     1      28.519  37.780  47.327  1.00  0.00     0.065 A 
HETATM   29  C   UNL     1      28.139  38.765  46.420  1.00  0.00     0.063 A 
HETATM   30  N   UNL     1      28.479  36.555  46.668  1.00  0.00    -0.306 N 
HETATM   31  N   UNL     1      27.868  38.150  45.204  1.00  0.00    -0.307 N 
HETATM   32  C   UNL     1      28.066  40.090  46.772  1.00  0.00     0.034 A 
HETATM   33  C   UNL     1      28.072  36.769  45.345  1.00  0.00     0.325 A 
HETATM   34  H   UNL     1      27.564  38.586  44.351  1.00  0.00     0.170 HD
HETATM   35  O   UNL     1      27.920  35.923  44.482  1.00  0.00    -0.247 OA
HETATM   36  C   UNL     1      28.389  40.404  48.098  1.00  0.00     0.032 A 
HETATM   37  H   UNL     1      28.689  35.650  47.056  1.00  0.00     0.170 HD
ENDBRANCH  23  26
ENDBRANCH  21  22
ENDBRANCH   1  21
TORSDOF 7
ENDMDL
MODEL 9
REMARK VINA RESULT:      -9.1      4.138      5.952
REMARK  7 active torsions:
REMARK  status: ('A' for Active; 'I' for Inactive)
REMARK    1  A    between atoms: C_2  and  C_3 
REMARK    2  A    between atoms: C_8  and  N_9 
REMARK    3  A    between atoms: N_9  and  C_10 
REMARK    4  A    between atoms: C_10  and  C_11 
REMARK       I    between atoms: C_11  and  N_12 
REMARK    5  A    between atoms: N_12  and  C_13 
REMARK    6  A    between atoms: C_24  and  N_25 
REMARK    7  A    between atoms: N_25  and  C_26 
ROOT
HETATM    1  N   UNL     1      23.869  44.808  51.586  1.00  0.00    -0.282 NA
HETATM    2  H   UNL     1      23.667  44.066  52.260  1.00  0.00     0.128 HD
ENDROOT
BRANCH   1   3
HETATM    3  C   UNL     1      23.930  44.180  50.310  1.00  0.00     0.036 A 
HETATM    4  C   UNL     1      24.554  42.945  50.086  1.00  0.00     0.042 A 
HETATM    5  C   UNL     1      24.564  42.356  48.811  1.00  0.00     0.049 A 
HETATM    6  C   UNL     1      23.930  43.019  47.757  1.00  0.00     0.018 A 
HETATM    7  C   UNL     1      23.301  44.249  47.966  1.00  0.00     0.032 A 
HETATM    8  C   UNL     1      23.276  44.844  49.230  1.00  0.00     0.049 A 
BRANCH   5   9
HETATM    9  C   UNL     1      25.245  41.027  48.604  1.00  0.00     0.417 C 
HETATM   10  F   UNL     1      25.481  40.348  49.761  1.00  0.00    -0.166 F 
HETATM   11  F   UNL     1      24.523  40.184  47.816  1.00  0.00    -0.166 F 
HETATM   12  F   UNL     1      26.457  41.159  47.997  1.00  0.00    -0.166 F 
ENDBRANCH   5   9
BRANCH   8  13
HETATM   13  N   UNL     1      22.730  46.108  49.475  1.00  0.00    -0.384 N 
HETATM   14  H   UNL     1      21.724  46.026  49.611  1.00  0.00     0.160 HD
BRANCH  13  15
HETATM   15  C   UNL     1      23.124  47.363  48.829  1.00  0.00     0.081 C 
HETATM   16  C   UNL     1      24.328  48.048  49.485  1.00  0.00     0.025 C 
HETATM   17  C   UNL     1      24.719  49.319  48.732  1.00  0.00     0.002 C 
HETATM   18  C   UNL     1      23.531  50.265  48.571  1.00  0.00     0.000 C 
HETATM   19  C   UNL     1      22.350  49.576  47.890  1.00  0.00     0.002 C 
HETATM   20  C   UNL     1      21.932  48.305  48.627  1.00  0.00     0.025 C 
ENDBRANCH  13  15
ENDBRANCH   8  13
ENDBRANCH   1   3
BRANCH   1  21
HETATM   21  C   UNL     1      25.019  45.608  52.066  1.00  0.00     0.195 C 
BRANCH  21  22
HETATM   22  C   UNL     1      25.846  44.895  53.150  1.00  0.00     0.235 C 
HETATM   23  N   UNL     1      27.182  45.250  53.125  1.00  0.00    -0.326 N 
HETATM   24  H   UNL     1      27.419  45.892  52.370  1.00  0.00     0.169 HD
HETATM   25  O   UNL     1      25.306  44.132  53.946  1.00  0.00    -0.272 OA
BRANCH  23  26
HETATM   26  C   UNL     1      28.237  44.745  53.904  1.00  0.00     0.037 A 
HETATM   27  C   UNL     1      28.683  45.353  55.083  1.00  0.00     0.061 A 
HETATM   28  C   UNL     1      29.706  44.728  55.759  1.00  0.00     0.065 A 
HETATM   29  C   UNL     1      30.293  43.550  55.307  1.00  0.00     0.063 A 
HETATM   30  N   UNL     1      30.329  45.085  56.951  1.00  0.00    -0.306 N 
HETATM   31  N   UNL     1      31.278  43.183  56.215  1.00  0.00    -0.307 N 
HETATM   32  C   UNL     1      29.887  42.931  54.152  1.00  0.00     0.034 A 
HETATM   33  C   UNL     1      31.310  44.130  57.251  1.00  0.00     0.325 A 
HETATM   34  H   UNL     1      31.878  42.377  56.177  1.00  0.00     0.170 HD
HETATM   35  O   UNL     1      32.047  44.119  58.220  1.00  0.00    -0.247 OA
HETATM   36  C   UNL     1      28.841  43.542  53.449  1.00  0.00     0.032 A 
HETATM   37  H   UNL     1      30.122  45.883  57.530  1.00  0.00     0.170 HD
ENDBRANCH  23  26
ENDBRANCH  21  22
ENDBRANCH   1  21
TORSDOF 7
ENDMDL
MODEL 10
REMARK VINA RESULT:      -9.1      3.222      4.868
REMARK  7 active torsions:
REMARK  status: ('A' for Active; 'I' for Inactive)
REMARK    1  A    between atoms: C_2  and  C_3 
REMARK    2  A    between atoms: C_8  and  N_9 
REMARK    3  A    between atoms: N_9  and  C_10 
REMARK    4  A    between atoms: C_10  and  C_11 
REMARK       I    between atoms: C_11  and  N_12 
REMARK    5  A    between atoms: N_12  and  C_13 
REMARK    6  A    between atoms: C_24  and  N_25 
REMARK    7  A    between atoms: N_25  and  C_26 
ROOT
HETATM    1  N   UNL     1      23.767  44.073  50.629  1.00  0.00    -0.282 NA
HETATM    2  H   UNL     1      22.965  44.191  51.251  1.00  0.00     0.128 HD
ENDROOT
BRANCH   1   3
HETATM    3  C   UNL     1      24.370  45.356  50.511  1.00  0.00     0.036 A 
HETATM    4  C   UNL     1      23.836  46.394  49.734  1.00  0.00     0.042 A 
HETATM    5  C   UNL     1      24.458  47.651  49.673  1.00  0.00     0.049 A 
HETATM    6  C   UNL     1      25.626  47.863  50.410  1.00  0.00     0.018 A 
HETATM    7  C   UNL     1      26.169  46.839  51.192  1.00  0.00     0.032 A 
HETATM    8  C   UNL     1      25.558  45.585  51.269  1.00  0.00     0.049 A 
BRANCH   5   9
HETATM    9  C   UNL     1      23.857  48.745  48.826  1.00  0.00     0.417 C 
HETATM   10  F   UNL     1      24.768  49.404  48.058  1.00  0.00    -0.166 F 
HETATM   11  F   UNL     1      22.908  48.281  47.967  1.00  0.00    -0.166 F 
HETATM   12  F   UNL     1      23.244  49.700  49.579  1.00  0.00    -0.166 F 
ENDBRANCH   5   9
BRANCH   8  13
HETATM   13  N   UNL     1      26.102  44.506  51.972  1.00  0.00    -0.384 N 
HETATM   14  H   UNL     1      25.370  44.041  52.506  1.00  0.00     0.160 HD
BRANCH  13  15
HETATM   15  C   UNL     1      27.408  44.472  52.634  1.00  0.00     0.081 C 
HETATM   16  C   UNL     1      28.268  43.263  52.250  1.00  0.00     0.025 C 
HETATM   17  C   UNL     1      29.635  43.317  52.931  1.00  0.00     0.002 C 
HETATM   18  C   UNL     1      29.502  43.476  54.444  1.00  0.00     0.000 C 
HETATM   19  C   UNL     1      28.668  44.701  54.811  1.00  0.00     0.002 C 
HETATM   20  C   UNL     1      27.291  44.670  54.149  1.00  0.00     0.025 C 
ENDBRANCH  13  15
ENDBRANCH   8  13
ENDBRANCH   1   3
BRANCH   1  21
HETATM   21  C   UNL     1      23.341  43.348  49.409  1.00  0.00     0.195 C 
BRANCH  21  22
HETATM   22  C   UNL     1      24.236  42.143  49.073  1.00  0.00     0.235 C 
HETATM   23  N   UNL     1      25.492  42.234  49.642  1.00  0.00    -0.326 N 
HETATM   24  H   UNL     1      25.645  43.100  50.157  1.00  0.00     0.169 HD
HETATM   25  O   UNL     1      23.803  41.213  48.397  1.00  0.00    -0.272 OA
BRANCH  23  26
HETATM   26  C   UNL     1      26.588  41.367  49.487  1.00  0.00     0.037 A 
HETATM   27  C   UNL     1      27.069  40.543  50.512  1.00  0.00     0.061 A 
HETATM   28  C   UNL     1      28.130  39.722  50.206  1.00  0.00     0.065 A 
HETATM   29  C   UNL     1      28.723  39.702  48.947  1.00  0.00     0.063 A 
HETATM   30  N   UNL     1      28.794  38.795  51.004  1.00  0.00    -0.306 N 
HETATM   31  N   UNL     1      29.751  38.768  48.970  1.00  0.00    -0.307 N 
HETATM   32  C   UNL     1      28.284  40.502  47.922  1.00  0.00     0.034 A 
HETATM   33  C   UNL     1      29.805  38.190  50.247  1.00  0.00     0.325 A 
HETATM   34  H   UNL     1      30.366  38.514  48.215  1.00  0.00     0.170 HD
HETATM   35  O   UNL     1      30.580  37.328  50.620  1.00  0.00    -0.247 OA
HETATM   36  C   UNL     1      27.198  41.341  48.205  1.00  0.00     0.032 A 
HETATM   37  H   UNL     1      28.593  38.568  51.965  1.00  0.00     0.170 HD
ENDBRANCH  23  26
ENDBRANCH  21  22
ENDBRANCH   1  21
TORSDOF 7
ENDMDL
