MODEL 1
REMARK VINA RESULT:     -10.8      0.000      0.000
REMARK  8 active torsions:
REMARK  status: ('A' for Active; 'I' for Inactive)
REMARK    1  A    between atoms: C_4  and  C_5 
REMARK    2  A    between atoms: C_5  and  N_6 
REMARK       I    between atoms: N_6  and  C_7 
REMARK    3  A    between atoms: C_7  and  C_8 
REMARK    4  A    between atoms: C_9  and  N_10 
REMARK       I    between atoms: N_10  and  C_11 
REMARK    5  A    between atoms: C_11  and  C_12 
REMARK    6  A    between atoms: C_12  and  C_13 
REMARK    7  A    between atoms: C_13  and  C_14 
REMARK    8  A    between atoms: C_14  and  N_15 
ROOT
HETATM    1  C   UNL     1      22.336  46.899  48.197  1.00  0.00     0.073 A 
HETATM    2  C   UNL     1      23.175  45.987  48.827  1.00  0.00     0.093 A 
HETATM    3  S   UNL     1      22.816  44.357  48.417  1.00  0.00    -0.075 SA
HETATM    4  C   UNL     1      21.602  44.809  47.341  1.00  0.00    -0.008 A 
HETATM    5  C   UNL     1      21.388  46.171  47.339  1.00  0.00    -0.026 A 
HETATM    6  C   UNL     1      20.299  46.781  46.487  1.00  0.00     0.041 C 
HETATM    7  C   UNL     1      19.306  45.729  45.963  1.00  0.00     0.005 C 
HETATM    8  C   UNL     1      20.023  44.481  45.441  1.00  0.00     0.005 C 
HETATM    9  C   UNL     1      20.828  43.798  46.554  1.00  0.00     0.047 C 
ENDROOT
BRANCH   2  10
HETATM   10  N   UNL     1      24.199  45.947  49.750  1.00  0.00    -0.320 N 
HETATM   11  C   UNL     1      24.793  46.985  50.423  1.00  0.00     0.222 C 
HETATM   12  O   UNL     1      24.593  48.178  50.242  1.00  0.00    -0.273 OA
HETATM   13  H   UNL     1      24.705  45.068  49.739  1.00  0.00     0.169 HD
BRANCH  11  14
HETATM   14  C   UNL     1      25.859  46.471  51.382  1.00  0.00     0.105 C 
BRANCH  14  15
HETATM   15  C   UNL     1      25.858  47.148  52.749  1.00  0.00     0.029 C 
BRANCH  15  16
HETATM   16  C   UNL     1      25.684  46.150  53.895  1.00  0.00     0.136 C 
BRANCH  16  17
HETATM   17  N   UNL     1      26.962  45.603  54.313  1.00  0.00    -0.280 N 
HETATM   18  C   UNL     1      27.786  46.210  55.223  1.00  0.00     0.261 A 
HETATM   19  O   UNL     1      27.639  47.265  55.811  1.00  0.00    -0.267 OA
HETATM   20  C   UNL     1      28.927  45.317  55.409  1.00  0.00     0.048 A 
HETATM   21  C   UNL     1      28.713  44.197  54.625  1.00  0.00     0.048 A 
HETATM   22  C   UNL     1      30.054  45.451  56.196  1.00  0.00     0.018 A 
HETATM   23  C   UNL     1      27.435  44.376  53.939  1.00  0.00     0.261 A 
HETATM   24  C   UNL     1      29.611  43.149  54.584  1.00  0.00     0.018 A 
HETATM   25  O   UNL     1      26.937  43.544  53.205  1.00  0.00    -0.267 OA
HETATM   26  C   UNL     1      30.761  43.263  55.372  1.00  0.00     0.001 A 
HETATM   27  C   UNL     1      30.981  44.404  56.172  1.00  0.00     0.001 A 
ENDBRANCH  16  17
ENDBRANCH  15  16
ENDBRANCH  14  15
ENDBRANCH  11  14
ENDBRANCH   2  10
BRANCH   1  28
HETATM   28  C   UNL     1      22.219  48.358  48.349  1.00  0.00     0.255 C 
HETATM   29  N   UNL     1      21.677  48.827  49.510  1.00  0.00    -0.353 N 
HETATM   30  H   UNL     1      21.110  48.202  50.077  1.00  0.00     0.163 HD
HETATM   31  O   UNL     1      22.706  49.119  47.514  1.00  0.00    -0.268 OA
BRANCH  29  32
HETATM   32  C   UNL     1      21.671  50.227  49.856  1.00  0.00     0.161 C 
BRANCH  32  33
HETATM   33  C   UNL     1      20.368  50.913  49.544  1.00  0.00    -0.041 A 
HETATM   34  C   UNL     1      19.220  50.652  50.302  1.00  0.00     0.009 A 
HETATM   35  C   UNL     1      18.020  51.308  50.021  1.00  0.00     0.001 A 
HETATM   36  C   UNL     1      17.951  52.225  48.974  1.00  0.00     0.000 A 
HETATM   37  C   UNL     1      19.083  52.485  48.205  1.00  0.00     0.001 A 
HETATM   38  C   UNL     1      20.283  51.832  48.487  1.00  0.00     0.009 A 
ENDBRANCH  32  33
ENDBRANCH  29  32
ENDBRANCH   1  28
TORSDOF 8
ENDMDL
MODEL 2
REMARK VINA RESULT:     -10.7      2.947     10.615
REMARK  8 active torsions:
REMARK  status: ('A' for Active; 'I' for Inactive)
REMARK    1  A    between atoms: C_4  and  C_5 
REMARK    2  A    between atoms: C_5  and  N_6 
REMARK       I    between atoms: N_6  and  C_7 
REMARK    3  A    between atoms: C_7  and  C_8 
REMARK    4  A    between atoms: C_9  and  N_10 
REMARK       I    between atoms: N_10  and  C_11 
REMARK    5  A    between atoms: C_11  and  C_12 
REMARK    6  A    between atoms: C_12  and  C_13 
REMARK    7  A    between atoms: C_13  and  C_14 
REMARK    8  A    between atoms: C_14  and  N_15 
ROOT
HETATM    1  C   UNL     1      29.140  44.185  54.365  1.00  0.00     0.073 A 
HETATM    2  C   UNL     1      28.259  45.260  54.340  1.00  0.00     0.093 A 
HETATM    3  S   UNL     1      28.362  46.240  55.749  1.00  0.00    -0.075 SA
HETATM    4  C   UNL     1      29.620  45.324  56.393  1.00  0.00    -0.008 A 
HETATM    5  C   UNL     1      29.920  44.227  55.612  1.00  0.00    -0.026 A 
HETATM    6  C   UNL     1      30.979  43.239  56.041  1.00  0.00     0.041 C 
HETATM    7  C   UNL     1      31.371  43.405  57.519  1.00  0.00     0.005 C 
HETATM    8  C   UNL     1      31.557  44.878  57.896  1.00  0.00     0.005 C 
HETATM    9  C   UNL     1      30.256  45.667  57.704  1.00  0.00     0.047 C 
ENDROOT
BRANCH   2  10
HETATM   10  N   UNL     1      27.253  45.792  53.561  1.00  0.00    -0.320 N 
HETATM   11  C   UNL     1      26.063  45.221  53.183  1.00  0.00     0.222 C 
HETATM   12  O   UNL     1      25.716  44.065  53.381  1.00  0.00    -0.273 OA
HETATM   13  H   UNL     1      27.551  46.604  53.033  1.00  0.00     0.169 HD
BRANCH  11  14
HETATM   14  C   UNL     1      25.235  46.193  52.353  1.00  0.00     0.105 C 
BRANCH  14  15
HETATM   15  C   UNL     1      26.055  47.137  51.480  1.00  0.00     0.029 C 
BRANCH  15  16
HETATM   16  C   UNL     1      25.869  46.863  49.987  1.00  0.00     0.136 C 
BRANCH  16  17
HETATM   17  N   UNL     1      24.718  47.576  49.463  1.00  0.00    -0.280 N 
HETATM   18  C   UNL     1      24.752  48.887  49.071  1.00  0.00     0.261 A 
HETATM   19  O   UNL     1      25.678  49.675  49.098  1.00  0.00    -0.267 OA
HETATM   20  C   UNL     1      23.421  49.200  48.554  1.00  0.00     0.048 A 
HETATM   21  C   UNL     1      22.663  48.045  48.628  1.00  0.00     0.048 A 
HETATM   22  C   UNL     1      22.908  50.379  48.051  1.00  0.00     0.018 A 
HETATM   23  C   UNL     1      23.510  46.996  49.193  1.00  0.00     0.261 A 
HETATM   24  C   UNL     1      21.350  48.003  48.204  1.00  0.00     0.018 A 
HETATM   25  O   UNL     1      23.151  45.845  49.347  1.00  0.00    -0.267 OA
HETATM   26  C   UNL     1      20.806  49.186  47.692  1.00  0.00     0.001 A 
HETATM   27  C   UNL     1      21.579  50.364  47.616  1.00  0.00     0.001 A 
ENDBRANCH  16  17
ENDBRANCH  15  16
ENDBRANCH  14  15
ENDBRANCH  11  14
ENDBRANCH   2  10
BRANCH   1  28
HETATM   28  C   UNL     1      29.300  43.055  53.436  1.00  0.00     0.255 C 
HETATM   29  N   UNL     1      28.230  42.224  53.268  1.00  0.00    -0.353 N 
HETATM   30  H   UNL     1      27.500  42.212  53.975  1.00  0.00     0.163 HD
HETATM   31  O   UNL     1      30.314  42.942  52.749  1.00  0.00    -0.268 OA
BRANCH  29  32
HETATM   32  C   UNL     1      28.197  41.194  52.260  1.00  0.00     0.161 C 
BRANCH  32  33
HETATM   33  C   UNL     1      27.263  41.504  51.120  1.00  0.00    -0.041 A 
HETATM   34  C   UNL     1      27.212  42.788  50.565  1.00  0.00     0.009 A 
HETATM   35  C   UNL     1      26.360  43.064  49.493  1.00  0.00     0.001 A 
HETATM   36  C   UNL     1      25.544  42.062  48.971  1.00  0.00     0.000 A 
HETATM   37  C   UNL     1      25.577  40.783  49.522  1.00  0.00     0.001 A 
HETATM   38  C   UNL     1      26.431  40.507  50.591  1.00  0.00     0.009 A 
ENDBRANCH  32  33
ENDBRANCH  29  32
ENDBRANCH   1  28
TORSDOF 8
ENDMDL
MODEL 3
REMARK VINA RESULT:     -10.7      2.682      6.133
REMARK  8 active torsions:
REMARK  status: ('A' for Active; 'I' for Inactive)
REMARK    1  A    between atoms: C_4  and  C_5 
REMARK    2  A    between atoms: C_5  and  N_6 
REMARK       I    between atoms: N_6  and  C_7 
REMARK    3  A    between atoms: C_7  and  C_8 
REMARK    4  A    between atoms: C_9  and  N_10 
REMARK       I    between atoms: N_10  and  C_11 
REMARK    5  A    between atoms: C_11  and  C_12 
REMARK    6  A    between atoms: C_12  and  C_13 
REMARK    7  A    between atoms: C_13  and  C_14 
REMARK    8  A    between atoms: C_14  and  N_15 
ROOT
HETATM    1  C   UNL     1      23.156  47.869  49.040  1.00  0.00     0.073 A 
HETATM    2  C   UNL     1      22.582  46.745  48.457  1.00  0.00     0.093 A 
HETATM    3  S   UNL     1      20.961  47.012  47.950  1.00  0.00    -0.075 SA
HETATM    4  C   UNL     1      20.998  48.632  48.410  1.00  0.00    -0.008 A 
HETATM    5  C   UNL     1      22.183  48.971  49.028  1.00  0.00    -0.026 A 
HETATM    6  C   UNL     1      22.399  50.364  49.574  1.00  0.00     0.041 C 
HETATM    7  C   UNL     1      21.088  51.163  49.674  1.00  0.00     0.005 C 
HETATM    8  C   UNL     1      20.225  51.000  48.420  1.00  0.00     0.005 C 
HETATM    9  C   UNL     1      19.822  49.536  48.212  1.00  0.00     0.047 C 
ENDROOT
BRANCH   2  10
HETATM   10  N   UNL     1      22.867  45.423  48.191  1.00  0.00    -0.320 N 
HETATM   11  C   UNL     1      23.197  44.418  49.068  1.00  0.00     0.222 C 
HETATM   12  O   UNL     1      23.411  44.541  50.265  1.00  0.00    -0.273 OA
HETATM   13  H   UNL     1      23.076  45.253  47.213  1.00  0.00     0.169 HD
BRANCH  11  14
HETATM   14  C   UNL     1      23.387  43.098  48.334  1.00  0.00     0.105 C 
BRANCH  14  15
HETATM   15  C   UNL     1      24.084  42.016  49.152  1.00  0.00     0.029 C 
BRANCH  15  16
HETATM   16  C   UNL     1      25.571  41.894  48.815  1.00  0.00     0.136 C 
BRANCH  16  17
HETATM   17  N   UNL     1      26.394  42.085  49.995  1.00  0.00    -0.280 N 
HETATM   18  C   UNL     1      26.595  41.119  50.944  1.00  0.00     0.261 A 
HETATM   19  O   UNL     1      26.143  39.991  51.003  1.00  0.00    -0.267 OA
HETATM   20  C   UNL     1      27.523  41.686  51.922  1.00  0.00     0.048 A 
HETATM   21  C   UNL     1      27.861  42.955  51.489  1.00  0.00     0.048 A 
HETATM   22  C   UNL     1      28.041  41.148  53.083  1.00  0.00     0.018 A 
HETATM   23  C   UNL     1      27.150  43.199  50.235  1.00  0.00     0.261 A 
HETATM   24  C   UNL     1      28.736  43.759  52.192  1.00  0.00     0.018 A 
HETATM   25  O   UNL     1      27.268  44.213  49.575  1.00  0.00    -0.267 OA
HETATM   26  C   UNL     1      29.274  43.238  53.373  1.00  0.00     0.001 A 
HETATM   27  C   UNL     1      28.929  41.943  53.815  1.00  0.00     0.001 A 
ENDBRANCH  16  17
ENDBRANCH  15  16
ENDBRANCH  14  15
ENDBRANCH  11  14
ENDBRANCH   2  10
BRANCH   1  28
HETATM   28  C   UNL     1      24.459  48.045  49.703  1.00  0.00     0.255 C 
HETATM   29  N   UNL     1      24.709  47.283  50.808  1.00  0.00    -0.353 N 
HETATM   30  H   UNL     1      23.926  46.868  51.307  1.00  0.00     0.163 HD
HETATM   31  O   UNL     1      25.328  48.758  49.205  1.00  0.00    -0.268 OA
BRANCH  29  32
HETATM   32  C   UNL     1      26.004  47.230  51.439  1.00  0.00     0.161 C 
BRANCH  32  33
HETATM   33  C   UNL     1      26.053  46.303  52.625  1.00  0.00    -0.041 A 
HETATM   34  C   UNL     1      25.268  45.144  52.661  1.00  0.00     0.009 A 
HETATM   35  C   UNL     1      25.335  44.276  53.754  1.00  0.00     0.001 A 
HETATM   36  C   UNL     1      26.179  44.564  54.826  1.00  0.00     0.000 A 
HETATM   37  C   UNL     1      26.955  45.720  54.807  1.00  0.00     0.001 A 
HETATM   38  C   UNL     1      26.891  46.585  53.713  1.00  0.00     0.009 A 
ENDBRANCH  32  33
ENDBRANCH  29  32
ENDBRANCH   1  28
TORSDOF 8
ENDMDL
MODEL 4
REMARK VINA RESULT:     -10.5      2.018     10.644
REMARK  8 active torsions:
REMARK  status: ('A' for Active; 'I' for Inactive)
REMARK    1  A    between atoms: C_4  and  C_5 
REMARK    2  A    between atoms: C_5  and  N_6 
REMARK       I    between atoms: N_6  and  C_7 
REMARK    3  A    between atoms: C_7  and  C_8 
REMARK    4  A    between atoms: C_9  and  N_10 
REMARK       I    between atoms: N_10  and  C_11 
REMARK    5  A    between atoms: C_11  and  C_12 
REMARK    6  A    between atoms: C_12  and  C_13 
REMARK    7  A    between atoms: C_13  and  C_14 
REMARK    8  A    between atoms: C_14  and  N_15 
ROOT
HETATM    1  C   UNL     1      26.486  44.631  52.424  1.00  0.00     0.073 A 
HETATM    2  C   UNL     1      25.777  44.911  51.262  1.00  0.00     0.093 A 
HETATM    3  S   UNL     1      26.038  43.746  50.025  1.00  0.00    -0.075 SA
HETATM    4  C   UNL     1      27.027  42.803  51.010  1.00  0.00    -0.008 A 
HETATM    5  C   UNL     1      27.247  43.386  52.240  1.00  0.00    -0.026 A 
HETATM    6  C   UNL     1      28.157  42.732  53.253  1.00  0.00     0.041 C 
HETATM    7  C   UNL     1      29.023  41.622  52.634  1.00  0.00     0.005 C 
HETATM    8  C   UNL     1      28.210  40.722  51.700  1.00  0.00     0.005 C 
HETATM    9  C   UNL     1      27.628  41.520  50.527  1.00  0.00     0.047 C 
ENDROOT
BRANCH   2  10
HETATM   10  N   UNL     1      24.948  45.875  50.729  1.00  0.00    -0.320 N 
HETATM   11  C   UNL     1      25.202  47.207  50.514  1.00  0.00     0.222 C 
HETATM   12  O   UNL     1      26.198  47.823  50.867  1.00  0.00    -0.273 OA
HETATM   13  H   UNL     1      23.974  45.595  50.717  1.00  0.00     0.169 HD
BRANCH  11  14
HETATM   14  C   UNL     1      24.008  47.890  49.861  1.00  0.00     0.105 C 
BRANCH  14  15
HETATM   15  C   UNL     1      23.023  46.936  49.193  1.00  0.00     0.029 C 
BRANCH  15  16
HETATM   16  C   UNL     1      22.346  47.556  47.970  1.00  0.00     0.136 C 
BRANCH  16  17
HETATM   17  N   UNL     1      21.397  48.583  48.359  1.00  0.00    -0.280 N 
HETATM   18  C   UNL     1      21.563  49.913  48.082  1.00  0.00     0.261 A 
HETATM   19  O   UNL     1      22.481  50.473  47.513  1.00  0.00    -0.267 OA
HETATM   20  C   UNL     1      20.370  50.593  48.585  1.00  0.00     0.048 A 
HETATM   21  C   UNL     1      19.529  49.627  49.108  1.00  0.00     0.048 A 
HETATM   22  C   UNL     1      20.032  51.931  48.583  1.00  0.00     0.018 A 
HETATM   23  C   UNL     1      20.185  48.332  48.940  1.00  0.00     0.261 A 
HETATM   24  C   UNL     1      18.303  49.944  49.658  1.00  0.00     0.018 A 
HETATM   25  O   UNL     1      19.683  47.271  49.259  1.00  0.00    -0.267 OA
HETATM   26  C   UNL     1      17.938  51.295  49.669  1.00  0.00     0.001 A 
HETATM   27  C   UNL     1      18.795  52.280  49.136  1.00  0.00     0.001 A 
ENDBRANCH  16  17
ENDBRANCH  15  16
ENDBRANCH  14  15
ENDBRANCH  11  14
ENDBRANCH   2  10
BRANCH   1  28
HETATM   28  C   UNL     1      26.641  45.410  53.664  1.00  0.00     0.255 C 
HETATM   29  N   UNL     1      27.861  45.383  54.275  1.00  0.00    -0.353 N 
HETATM   30  H   UNL     1      28.504  44.626  54.056  1.00  0.00     0.163 HD
HETATM   31  O   UNL     1      25.742  46.152  54.058  1.00  0.00    -0.268 OA
BRANCH  29  32
HETATM   32  C   UNL     1      28.193  46.238  55.387  1.00  0.00     0.161 C 
BRANCH  32  33
HETATM   33  C   UNL     1      29.234  45.650  56.302  1.00  0.00    -0.041 A 
HETATM   34  C   UNL     1      30.141  44.691  55.834  1.00  0.00     0.009 A 
HETATM   35  C   UNL     1      31.119  44.166  56.682  1.00  0.00     0.001 A 
HETATM   36  C   UNL     1      31.194  44.585  58.008  1.00  0.00     0.000 A 
HETATM   37  C   UNL     1      30.290  45.529  58.490  1.00  0.00     0.001 A 
HETATM   38  C   UNL     1      29.315  46.057  57.642  1.00  0.00     0.009 A 
ENDBRANCH  32  33
ENDBRANCH  29  32
ENDBRANCH   1  28
TORSDOF 8
ENDMDL
MODEL 5
REMARK VINA RESULT:     -10.4      3.605     10.112
REMARK  8 active torsions:
REMARK  status: ('A' for Active; 'I' for Inactive)
REMARK    1  A    between atoms: C_4  and  C_5 
REMARK    2  A    between atoms: C_5  and  N_6 
REMARK       I    between atoms: N_6  and  C_7 
REMARK    3  A    between atoms: C_7  and  C_8 
REMARK    4  A    between atoms: C_9  and  N_10 
REMARK       I    between atoms: N_10  and  C_11 
REMARK    5  A    between atoms: C_11  and  C_12 
REMARK    6  A    between atoms: C_12  and  C_13 
REMARK    7  A    between atoms: C_13  and  C_14 
REMARK    8  A    between atoms: C_14  and  N_15 
ROOT
HETATM    1  C   UNL     1      27.876  40.905  51.395  1.00  0.00     0.073 A 
HETATM    2  C   UNL     1      26.772  41.642  50.982  1.00  0.00     0.093 A 
HETATM    3  S   UNL     1      26.143  41.111  49.473  1.00  0.00    -0.075 SA
HETATM    4  C   UNL     1      27.254  39.850  49.361  1.00  0.00    -0.008 A 
HETATM    5  C   UNL     1      28.162  39.861  50.399  1.00  0.00    -0.026 A 
HETATM    6  C   UNL     1      29.283  38.850  50.456  1.00  0.00     0.041 C 
HETATM    7  C   UNL     1      29.477  38.114  49.119  1.00  0.00     0.005 C 
HETATM    8  C   UNL     1      28.141  37.684  48.508  1.00  0.00     0.005 C 
HETATM    9  C   UNL     1      27.252  38.897  48.207  1.00  0.00     0.047 C 
ENDROOT
BRANCH   2  10
HETATM   10  N   UNL     1      26.020  42.733  51.362  1.00  0.00    -0.320 N 
HETATM   11  C   UNL     1      26.316  44.068  51.242  1.00  0.00     0.222 C 
HETATM   12  O   UNL     1      27.377  44.546  50.865  1.00  0.00    -0.273 OA
HETATM   13  H   UNL     1      25.276  42.493  52.008  1.00  0.00     0.169 HD
BRANCH  11  14
HETATM   14  C   UNL     1      25.170  44.927  51.759  1.00  0.00     0.105 C 
BRANCH  14  15
HETATM   15  C   UNL     1      23.961  44.992  50.832  1.00  0.00     0.029 C 
BRANCH  15  16
HETATM   16  C   UNL     1      24.329  45.457  49.422  1.00  0.00     0.136 C 
BRANCH  16  17
HETATM   17  N   UNL     1      23.704  46.728  49.109  1.00  0.00    -0.280 N 
HETATM   18  C   UNL     1      22.492  46.843  48.482  1.00  0.00     0.261 A 
HETATM   19  O   UNL     1      21.752  45.970  48.069  1.00  0.00    -0.267 OA
HETATM   20  C   UNL     1      22.196  48.273  48.411  1.00  0.00     0.048 A 
HETATM   21  C   UNL     1      23.232  48.944  49.034  1.00  0.00     0.048 A 
HETATM   22  C   UNL     1      21.118  48.941  47.865  1.00  0.00     0.018 A 
HETATM   23  C   UNL     1      24.190  47.944  49.502  1.00  0.00     0.261 A 
HETATM   24  C   UNL     1      23.250  50.321  49.146  1.00  0.00     0.018 A 
HETATM   25  O   UNL     1      25.195  48.210  50.131  1.00  0.00    -0.267 OA
HETATM   26  C   UNL     1      22.170  51.020  48.598  1.00  0.00     0.001 A 
HETATM   27  C   UNL     1      21.112  50.336  47.963  1.00  0.00     0.001 A 
ENDBRANCH  16  17
ENDBRANCH  15  16
ENDBRANCH  14  15
ENDBRANCH  11  14
ENDBRANCH   2  10
BRANCH   1  28
HETATM   28  C   UNL     1      28.775  41.089  52.546  1.00  0.00     0.255 C 
HETATM   29  N   UNL     1      29.632  42.151  52.509  1.00  0.00    -0.353 N 
HETATM   30  H   UNL     1      29.844  42.582  51.613  1.00  0.00     0.163 HD
HETATM   31  O   UNL     1      28.668  40.385  53.549  1.00  0.00    -0.268 OA
BRANCH  29  32
HETATM   32  C   UNL     1      30.432  42.543  53.643  1.00  0.00     0.161 C 
BRANCH  32  33
HETATM   33  C   UNL     1      29.831  43.674  54.435  1.00  0.00    -0.041 A 
HETATM   34  C   UNL     1      30.494  44.200  55.551  1.00  0.00     0.009 A 
HETATM   35  C   UNL     1      29.942  45.263  56.268  1.00  0.00     0.001 A 
HETATM   36  C   UNL     1      28.716  45.805  55.885  1.00  0.00     0.000 A 
HETATM   37  C   UNL     1      28.041  45.283  54.785  1.00  0.00     0.001 A 
HETATM   38  C   UNL     1      28.594  44.222  54.065  1.00  0.00     0.009 A 
ENDBRANCH  32  33
ENDBRANCH  29  32
ENDBRANCH   1  28
TORSDOF 8
ENDMDL
MODEL 6
REMARK VINA RESULT:     -10.2      4.150     10.269
REMARK  8 active torsions:
REMARK  status: ('A' for Active; 'I' for Inactive)
REMARK    1  A    between atoms: C_4  and  C_5 
REMARK    2  A    between atoms: C_5  and  N_6 
REMARK       I    between atoms: N_6  and  C_7 
REMARK    3  A    between atoms: C_7  and  C_8 
REMARK    4  A    between atoms: C_9  and  N_10 
REMARK       I    between atoms: N_10  and  C_11 
REMARK    5  A    between atoms: C_11  and  C_12 
REMARK    6  A    between atoms: C_12  and  C_13 
REMARK    7  A    between atoms: C_13  and  C_14 
REMARK    8  A    between atoms: C_14  and  N_15 
ROOT
HETATM    1  C   UNL     1      29.139  43.979  54.223  1.00  0.00     0.073 A 
HETATM    2  C   UNL     1      28.085  44.878  54.106  1.00  0.00     0.093 A 
HETATM    3  S   UNL     1      27.948  45.925  55.462  1.00  0.00    -0.075 SA
HETATM    4  C   UNL     1      29.316  45.279  56.202  1.00  0.00    -0.008 A 
HETATM    5  C   UNL     1      29.840  44.218  55.494  1.00  0.00    -0.026 A 
HETATM    6  C   UNL     1      31.035  43.455  56.017  1.00  0.00     0.041 C 
HETATM    7  C   UNL     1      31.322  43.758  57.498  1.00  0.00     0.005 C 
HETATM    8  C   UNL     1      31.227  45.256  57.800  1.00  0.00     0.005 C 
HETATM    9  C   UNL     1      29.819  45.792  57.516  1.00  0.00     0.047 C 
ENDROOT
BRANCH   2  10
HETATM   10  N   UNL     1      27.039  45.184  53.261  1.00  0.00    -0.320 N 
HETATM   11  C   UNL     1      25.719  44.818  53.356  1.00  0.00     0.222 C 
HETATM   12  O   UNL     1      25.237  44.042  54.168  1.00  0.00    -0.273 OA
HETATM   13  H   UNL     1      27.349  45.524  52.357  1.00  0.00     0.169 HD
BRANCH  11  14
HETATM   14  C   UNL     1      24.906  45.422  52.219  1.00  0.00     0.105 C 
BRANCH  14  15
HETATM   15  C   UNL     1      24.162  44.402  51.364  1.00  0.00     0.029 C 
BRANCH  15  16
HETATM   16  C   UNL     1      24.503  44.523  49.878  1.00  0.00     0.136 C 
BRANCH  16  17
HETATM   17  N   UNL     1      25.157  45.787  49.592  1.00  0.00    -0.280 N 
HETATM   18  C   UNL     1      24.481  46.954  49.353  1.00  0.00     0.261 A 
HETATM   19  O   UNL     1      23.282  47.155  49.313  1.00  0.00    -0.267 OA
HETATM   20  C   UNL     1      25.496  47.990  49.173  1.00  0.00     0.048 A 
HETATM   21  C   UNL     1      26.733  47.399  49.349  1.00  0.00     0.048 A 
HETATM   22  C   UNL     1      25.364  49.336  48.891  1.00  0.00     0.018 A 
HETATM   23  C   UNL     1      26.509  45.984  49.642  1.00  0.00     0.261 A 
HETATM   24  C   UNL     1      27.909  48.117  49.253  1.00  0.00     0.018 A 
HETATM   25  O   UNL     1      27.399  45.194  49.891  1.00  0.00    -0.267 OA
HETATM   26  C   UNL     1      27.801  49.482  48.966  1.00  0.00     0.001 A 
HETATM   27  C   UNL     1      26.539  50.086  48.786  1.00  0.00     0.001 A 
ENDBRANCH  16  17
ENDBRANCH  15  16
ENDBRANCH  14  15
ENDBRANCH  11  14
ENDBRANCH   2  10
BRANCH   1  28
HETATM   28  C   UNL     1      29.539  42.853  53.364  1.00  0.00     0.255 C 
HETATM   29  N   UNL     1      28.758  41.734  53.392  1.00  0.00    -0.353 N 
HETATM   30  H   UNL     1      28.140  41.585  54.184  1.00  0.00     0.163 HD
HETATM   31  O   UNL     1      30.467  42.968  52.565  1.00  0.00    -0.268 OA
BRANCH  29  32
HETATM   32  C   UNL     1      28.937  40.638  52.472  1.00  0.00     0.161 C 
BRANCH  32  33
HETATM   33  C   UNL     1      28.009  40.696  51.287  1.00  0.00    -0.041 A 
HETATM   34  C   UNL     1      26.704  41.184  51.422  1.00  0.00     0.009 A 
HETATM   35  C   UNL     1      25.856  41.257  50.314  1.00  0.00     0.001 A 
HETATM   36  C   UNL     1      26.300  40.832  49.063  1.00  0.00     0.000 A 
HETATM   37  C   UNL     1      27.592  40.333  48.918  1.00  0.00     0.001 A 
HETATM   38  C   UNL     1      28.441  40.264  50.024  1.00  0.00     0.009 A 
ENDBRANCH  32  33
ENDBRANCH  29  32
ENDBRANCH   1  28
TORSDOF 8
ENDMDL
MODEL 7
REMARK VINA RESULT:     -10.2      2.679      5.494
REMARK  8 active torsions:
REMARK  status: ('A' for Active; 'I' for Inactive)
REMARK    1  A    between atoms: C_4  and  C_5 
REMARK    2  A    between atoms: C_5  and  N_6 
REMARK       I    between atoms: N_6  and  C_7 
REMARK    3  A    between atoms: C_7  and  C_8 
REMARK    4  A    between atoms: C_9  and  N_10 
REMARK       I    between atoms: N_10  and  C_11 
REMARK    5  A    between atoms: C_11  and  C_12 
REMARK    6  A    between atoms: C_12  and  C_13 
REMARK    7  A    between atoms: C_13  and  C_14 
REMARK    8  A    between atoms: C_14  and  N_15 
ROOT
HETATM    1  C   UNL     1      20.739  49.535  48.952  1.00  0.00     0.073 A 
HETATM    2  C   UNL     1      20.302  48.215  48.961  1.00  0.00     0.093 A 
HETATM    3  S   UNL     1      18.588  48.081  48.939  1.00  0.00    -0.075 SA
HETATM    4  C   UNL     1      18.377  49.749  48.838  1.00  0.00    -0.008 A 
HETATM    5  C   UNL     1      19.574  50.431  48.909  1.00  0.00    -0.026 A 
HETATM    6  C   UNL     1      19.604  51.942  48.898  1.00  0.00     0.041 C 
HETATM    7  C   UNL     1      18.218  52.557  49.157  1.00  0.00     0.005 C 
HETATM    8  C   UNL     1      17.122  51.847  48.359  1.00  0.00     0.005 C 
HETATM    9  C   UNL     1      17.018  50.369  48.754  1.00  0.00     0.047 C 
ENDROOT
BRANCH   2  10
HETATM   10  N   UNL     1      20.798  46.932  49.041  1.00  0.00    -0.320 N 
HETATM   11  C   UNL     1      21.753  46.327  48.262  1.00  0.00     0.222 C 
HETATM   12  O   UNL     1      22.273  46.791  47.258  1.00  0.00    -0.273 OA
HETATM   13  H   UNL     1      20.213  46.316  49.596  1.00  0.00     0.169 HD
BRANCH  11  14
HETATM   14  C   UNL     1      22.023  44.906  48.739  1.00  0.00     0.105 C 
BRANCH  14  15
HETATM   15  C   UNL     1      23.431  44.678  49.281  1.00  0.00     0.029 C 
BRANCH  15  16
HETATM   16  C   UNL     1      23.496  43.513  50.270  1.00  0.00     0.136 C 
BRANCH  16  17
HETATM   17  N   UNL     1      24.819  43.395  50.854  1.00  0.00    -0.280 N 
HETATM   18  C   UNL     1      25.338  44.294  51.747  1.00  0.00     0.261 A 
HETATM   19  O   UNL     1      24.844  45.315  52.187  1.00  0.00    -0.267 OA
HETATM   20  C   UNL     1      26.652  43.783  52.133  1.00  0.00     0.048 A 
HETATM   21  C   UNL     1      26.841  42.580  51.478  1.00  0.00     0.048 A 
HETATM   22  C   UNL     1      27.602  44.307  52.988  1.00  0.00     0.018 A 
HETATM   23  C   UNL     1      25.648  42.322  50.674  1.00  0.00     0.261 A 
HETATM   24  C   UNL     1      27.990  41.831  51.640  1.00  0.00     0.018 A 
HETATM   25  O   UNL     1      25.482  41.318  50.009  1.00  0.00    -0.267 OA
HETATM   26  C   UNL     1      28.969  42.341  52.498  1.00  0.00     0.001 A 
HETATM   27  C   UNL     1      28.777  43.569  53.167  1.00  0.00     0.001 A 
ENDBRANCH  16  17
ENDBRANCH  15  16
ENDBRANCH  14  15
ENDBRANCH  11  14
ENDBRANCH   2  10
BRANCH   1  28
HETATM   28  C   UNL     1      22.094  50.097  49.078  1.00  0.00     0.255 C 
HETATM   29  N   UNL     1      22.978  49.835  48.071  1.00  0.00    -0.353 N 
HETATM   30  H   UNL     1      22.799  49.050  47.451  1.00  0.00     0.163 HD
HETATM   31  O   UNL     1      22.373  50.871  49.992  1.00  0.00    -0.268 OA
BRANCH  29  32
HETATM   32  C   UNL     1      24.270  50.470  47.986  1.00  0.00     0.161 C 
BRANCH  32  33
HETATM   33  C   UNL     1      25.383  49.635  48.562  1.00  0.00    -0.041 A 
HETATM   34  C   UNL     1      26.720  50.025  48.417  1.00  0.00     0.009 A 
HETATM   35  C   UNL     1      27.747  49.258  48.973  1.00  0.00     0.001 A 
HETATM   36  C   UNL     1      27.449  48.089  49.671  1.00  0.00     0.000 A 
HETATM   37  C   UNL     1      26.124  47.685  49.813  1.00  0.00     0.001 A 
HETATM   38  C   UNL     1      25.097  48.452  49.260  1.00  0.00     0.009 A 
ENDBRANCH  32  33
ENDBRANCH  29  32
ENDBRANCH   1  28
TORSDOF 8
ENDMDL
MODEL 8
REMARK VINA RESULT:     -10.1      1.205      2.020
REMARK  8 active torsions:
REMARK  status: ('A' for Active; 'I' for Inactive)
REMARK    1  A    between atoms: C_4  and  C_5 
REMARK    2  A    between atoms: C_5  and  N_6 
REMARK       I    between atoms: N_6  and  C_7 
REMARK    3  A    between atoms: C_7  and  C_8 
REMARK    4  A    between atoms: C_9  and  N_10 
REMARK       I    between atoms: N_10  and  C_11 
REMARK    5  A    between atoms: C_11  and  C_12 
REMARK    6  A    between atoms: C_12  and  C_13 
REMARK    7  A    between atoms: C_13  and  C_14 
REMARK    8  A    between atoms: C_14  and  N_15 
ROOT
HETATM    1  C   UNL     1      21.893  47.205  48.472  1.00  0.00     0.073 A 
HETATM    2  C   UNL     1      22.910  46.392  48.958  1.00  0.00     0.093 A 
HETATM    3  S   UNL     1      23.068  44.923  48.079  1.00  0.00    -0.075 SA
HETATM    4  C   UNL     1      21.858  45.351  46.989  1.00  0.00    -0.008 A 
HETATM    5  C   UNL     1      21.261  46.550  47.317  1.00  0.00    -0.026 A 
HETATM    6  C   UNL     1      20.108  47.087  46.501  1.00  0.00     0.041 C 
HETATM    7  C   UNL     1      19.502  46.023  45.570  1.00  0.00     0.005 C 
HETATM    8  C   UNL     1      20.585  45.213  44.852  1.00  0.00     0.005 C 
HETATM    9  C   UNL     1      21.468  44.458  45.852  1.00  0.00     0.047 C 
ENDROOT
BRANCH   2  10
HETATM   10  N   UNL     1      23.832  46.341  49.983  1.00  0.00    -0.320 N 
HETATM   11  C   UNL     1      24.656  47.334  50.451  1.00  0.00     0.222 C 
HETATM   12  O   UNL     1      24.807  48.444  49.960  1.00  0.00    -0.273 OA
HETATM   13  H   UNL     1      24.073  45.393  50.250  1.00  0.00     0.169 HD
BRANCH  11  14
HETATM   14  C   UNL     1      25.483  46.843  51.631  1.00  0.00     0.105 C 
BRANCH  14  15
HETATM   15  C   UNL     1      25.897  45.377  51.545  1.00  0.00     0.029 C 
BRANCH  15  16
HETATM   16  C   UNL     1      25.645  44.620  52.850  1.00  0.00     0.136 C 
BRANCH  16  17
HETATM   17  N   UNL     1      26.866  44.485  53.622  1.00  0.00    -0.280 N 
HETATM   18  C   UNL     1      27.734  43.434  53.490  1.00  0.00     0.261 A 
HETATM   19  O   UNL     1      27.657  42.458  52.768  1.00  0.00    -0.267 OA
HETATM   20  C   UNL     1      28.853  43.705  54.391  1.00  0.00     0.048 A 
HETATM   21  C   UNL     1      28.616  44.927  54.993  1.00  0.00     0.048 A 
HETATM   22  C   UNL     1      29.987  42.965  54.661  1.00  0.00     0.018 A 
HETATM   23  C   UNL     1      27.347  45.436  54.478  1.00  0.00     0.261 A 
HETATM   24  C   UNL     1      29.499  45.479  55.900  1.00  0.00     0.018 A 
HETATM   25  O   UNL     1      26.877  46.516  54.780  1.00  0.00    -0.267 OA
HETATM   26  C   UNL     1      30.655  44.748  56.193  1.00  0.00     0.001 A 
HETATM   27  C   UNL     1      30.897  43.501  55.579  1.00  0.00     0.001 A 
ENDBRANCH  16  17
ENDBRANCH  15  16
ENDBRANCH  14  15
ENDBRANCH  11  14
ENDBRANCH   2  10
BRANCH   1  28
HETATM   28  C   UNL     1      21.350  48.472  48.987  1.00  0.00     0.255 C 
HETATM   29  N   UNL     1      21.972  49.624  48.602  1.00  0.00    -0.353 N 
HETATM   30  H   UNL     1      22.924  49.575  48.251  1.00  0.00     0.163 HD
HETATM   31  O   UNL     1      20.303  48.492  49.634  1.00  0.00    -0.268 OA
BRANCH  29  32
HETATM   32  C   UNL     1      21.435  50.931  48.890  1.00  0.00     0.161 C 
BRANCH  32  33
HETATM   33  C   UNL     1      20.179  51.242  48.120  1.00  0.00    -0.041 A 
HETATM   34  C   UNL     1      19.887  50.575  46.924  1.00  0.00     0.009 A 
HETATM   35  C   UNL     1      18.709  50.852  46.226  1.00  0.00     0.001 A 
HETATM   36  C   UNL     1      17.816  51.806  46.711  1.00  0.00     0.000 A 
HETATM   37  C   UNL     1      18.100  52.485  47.893  1.00  0.00     0.001 A 
HETATM   38  C   UNL     1      19.276  52.205  48.592  1.00  0.00     0.009 A 
ENDBRANCH  32  33
ENDBRANCH  29  32
ENDBRANCH   1  28
TORSDOF 8
ENDMDL
MODEL 9
REMARK VINA RESULT:     -10.1      3.630      9.133
REMARK  8 active torsions:
REMARK  status: ('A' for Active; 'I' for Inactive)
REMARK    1  A    between atoms: C_4  and  C_5 
REMARK    2  A    between atoms: C_5  and  N_6 
REMARK       I    between atoms: N_6  and  C_7 
REMARK    3  A    between atoms: C_7  and  C_8 
REMARK    4  A    between atoms: C_9  and  N_10 
REMARK       I    between atoms: N_10  and  C_11 
REMARK    5  A    between atoms: C_11  and  C_12 
REMARK    6  A    between atoms: C_12  and  C_13 
REMARK    7  A    between atoms: C_13  and  C_14 
REMARK    8  A    between atoms: C_14  and  N_15 
ROOT
HETATM    1  C   UNL     1      27.405  44.052  53.018  1.00  0.00     0.073 A 
HETATM    2  C   UNL     1      27.842  42.886  52.401  1.00  0.00     0.093 A 
HETATM    3  S   UNL     1      29.344  42.326  53.023  1.00  0.00    -0.075 SA
HETATM    4  C   UNL     1      29.419  43.556  54.171  1.00  0.00    -0.008 A 
HETATM    5  C   UNL     1      28.376  44.449  54.049  1.00  0.00    -0.026 A 
HETATM    6  C   UNL     1      28.288  45.662  54.945  1.00  0.00     0.041 C 
HETATM    7  C   UNL     1      29.607  45.940  55.686  1.00  0.00     0.005 C 
HETATM    8  C   UNL     1      30.219  44.658  56.258  1.00  0.00     0.005 C 
HETATM    9  C   UNL     1      30.553  43.658  55.144  1.00  0.00     0.047 C 
ENDROOT
BRANCH   2  10
HETATM   10  N   UNL     1      27.491  42.027  51.381  1.00  0.00    -0.320 N 
HETATM   11  C   UNL     1      27.231  42.314  50.064  1.00  0.00     0.222 C 
HETATM   12  O   UNL     1      27.152  43.428  49.565  1.00  0.00    -0.273 OA
HETATM   13  H   UNL     1      27.172  41.125  51.717  1.00  0.00     0.169 HD
BRANCH  11  14
HETATM   14  C   UNL     1      26.923  41.045  49.282  1.00  0.00     0.105 C 
BRANCH  14  15
HETATM   15  C   UNL     1      26.128  41.270  47.999  1.00  0.00     0.029 C 
BRANCH  15  16
HETATM   16  C   UNL     1      24.618  41.169  48.221  1.00  0.00     0.136 C 
BRANCH  16  17
HETATM   17  N   UNL     1      23.963  42.436  47.956  1.00  0.00    -0.280 N 
HETATM   18  C   UNL     1      23.503  42.809  46.722  1.00  0.00     0.261 A 
HETATM   19  O   UNL     1      23.561  42.209  45.665  1.00  0.00    -0.267 OA
HETATM   20  C   UNL     1      22.863  44.111  46.893  1.00  0.00     0.048 A 
HETATM   21  C   UNL     1      22.940  44.440  48.234  1.00  0.00     0.048 A 
HETATM   22  C   UNL     1      22.254  44.941  45.972  1.00  0.00     0.018 A 
HETATM   23  C   UNL     1      23.629  43.348  48.919  1.00  0.00     0.261 A 
HETATM   24  C   UNL     1      22.413  45.616  48.731  1.00  0.00     0.018 A 
HETATM   25  O   UNL     1      23.818  43.312  50.119  1.00  0.00    -0.267 OA
HETATM   26  C   UNL     1      21.794  46.475  47.817  1.00  0.00     0.001 A 
HETATM   27  C   UNL     1      21.714  46.140  46.449  1.00  0.00     0.001 A 
ENDBRANCH  16  17
ENDBRANCH  15  16
ENDBRANCH  14  15
ENDBRANCH  11  14
ENDBRANCH   2  10
BRANCH   1  28
HETATM   28  C   UNL     1      26.252  44.919  52.722  1.00  0.00     0.255 C 
HETATM   29  N   UNL     1      26.330  45.711  51.614  1.00  0.00    -0.353 N 
HETATM   30  H   UNL     1      27.243  45.913  51.217  1.00  0.00     0.163 HD
HETATM   31  O   UNL     1      25.215  44.835  53.380  1.00  0.00    -0.268 OA
BRANCH  29  32
HETATM   32  C   UNL     1      25.206  46.466  51.118  1.00  0.00     0.161 C 
BRANCH  32  33
HETATM   33  C   UNL     1      25.602  47.585  50.190  1.00  0.00    -0.041 A 
HETATM   34  C   UNL     1      26.951  47.883  49.961  1.00  0.00     0.009 A 
HETATM   35  C   UNL     1      27.312  48.906  49.082  1.00  0.00     0.001 A 
HETATM   36  C   UNL     1      26.328  49.649  48.431  1.00  0.00     0.000 A 
HETATM   37  C   UNL     1      24.983  49.371  48.660  1.00  0.00     0.001 A 
HETATM   38  C   UNL     1      24.623  48.346  49.535  1.00  0.00     0.009 A 
ENDBRANCH  32  33
ENDBRANCH  29  32
ENDBRANCH   1  28
TORSDOF 8
ENDMDL
MODEL 10
REMARK VINA RESULT:      -9.9      2.465     10.456
REMARK  8 active torsions:
REMARK  status: ('A' for Active; 'I' for Inactive)
REMARK    1  A    between atoms: C_4  and  C_5 
REMARK    2  A    between atoms: C_5  and  N_6 
REMARK       I    between atoms: N_6  and  C_7 
REMARK    3  A    between atoms: C_7  and  C_8 
REMARK    4  A    between atoms: C_9  and  N_10 
REMARK       I    between atoms: N_10  and  C_11 
REMARK    5  A    between atoms: C_11  and  C_12 
REMARK    6  A    between atoms: C_12  and  C_13 
REMARK    7  A    between atoms: C_13  and  C_14 
REMARK    8  A    between atoms: C_14  and  N_15 
ROOT
HETATM    1  C   UNL     1      25.471  44.012  51.347  1.00  0.00     0.073 A 
HETATM    2  C   UNL     1      24.783  44.624  50.305  1.00  0.00     0.093 A 
HETATM    3  S   UNL     1      24.819  43.705  48.853  1.00  0.00    -0.075 SA
HETATM    4  C   UNL     1      25.670  42.444  49.576  1.00  0.00    -0.008 A 
HETATM    5  C   UNL     1      26.016  42.729  50.880  1.00  0.00    -0.026 A 
HETATM    6  C   UNL     1      26.838  41.754  51.691  1.00  0.00     0.041 C 
HETATM    7  C   UNL     1      27.496  40.673  50.818  1.00  0.00     0.005 C 
HETATM    8  C   UNL     1      26.523  40.112  49.778  1.00  0.00     0.005 C 
HETATM    9  C   UNL     1      26.045  41.208  48.818  1.00  0.00     0.047 C 
ENDROOT
BRANCH   2  10
HETATM   10  N   UNL     1      24.105  45.790  50.019  1.00  0.00    -0.320 N 
HETATM   11  C   UNL     1      24.482  47.088  50.262  1.00  0.00     0.222 C 
HETATM   12  O   UNL     1      25.465  47.453  50.891  1.00  0.00    -0.273 OA
HETATM   13  H   UNL     1      23.123  45.636  49.819  1.00  0.00     0.169 HD
BRANCH  11  14
HETATM   14  C   UNL     1      23.438  48.064  49.737  1.00  0.00     0.105 C 
BRANCH  14  15
HETATM   15  C   UNL     1      22.379  47.432  48.838  1.00  0.00     0.029 C 
BRANCH  15  16
HETATM   16  C   UNL     1      22.082  48.280  47.600  1.00  0.00     0.136 C 
BRANCH  16  17
HETATM   17  N   UNL     1      20.978  49.190  47.839  1.00  0.00    -0.280 N 
HETATM   18  C   UNL     1      19.666  48.798  47.879  1.00  0.00     0.261 A 
HETATM   19  O   UNL     1      19.188  47.691  47.712  1.00  0.00    -0.267 OA
HETATM   20  C   UNL     1      18.887  49.991  48.203  1.00  0.00     0.048 A 
HETATM   21  C   UNL     1      19.776  51.035  48.378  1.00  0.00     0.048 A 
HETATM   22  C   UNL     1      17.524  50.160  48.346  1.00  0.00     0.018 A 
HETATM   23  C   UNL     1      21.123  50.510  48.166  1.00  0.00     0.261 A 
HETATM   24  C   UNL     1      19.354  52.309  48.707  1.00  0.00     0.018 A 
HETATM   25  O   UNL     1      22.136  51.170  48.291  1.00  0.00    -0.267 OA
HETATM   26  C   UNL     1      17.977  52.507  48.855  1.00  0.00     0.001 A 
HETATM   27  C   UNL     1      17.069  51.441  48.676  1.00  0.00     0.001 A 
ENDBRANCH  16  17
ENDBRANCH  15  16
ENDBRANCH  14  15
ENDBRANCH  11  14
ENDBRANCH   2  10
BRANCH   1  28
HETATM   28  C   UNL     1      25.783  44.494  52.703  1.00  0.00     0.255 C 
HETATM   29  N   UNL     1      26.943  45.194  52.868  1.00  0.00    -0.353 N 
HETATM   30  H   UNL     1      27.676  45.104  52.170  1.00  0.00     0.163 HD
HETATM   31  O   UNL     1      24.969  44.375  53.617  1.00  0.00    -0.268 OA
BRANCH  29  32
HETATM   32  C   UNL     1      27.275  45.869  54.099  1.00  0.00     0.161 C 
BRANCH  32  33
HETATM   33  C   UNL     1      28.506  45.317  54.769  1.00  0.00    -0.041 A 
HETATM   34  C   UNL     1      29.152  46.034  55.783  1.00  0.00     0.009 A 
HETATM   35  C   UNL     1      30.280  45.507  56.416  1.00  0.00     0.001 A 
HETATM   36  C   UNL     1      30.780  44.263  56.035  1.00  0.00     0.000 A 
HETATM   37  C   UNL     1      30.153  43.545  55.019  1.00  0.00     0.001 A 
HETATM   38  C   UNL     1      29.024  44.070  54.389  1.00  0.00     0.009 A 
ENDBRANCH  32  33
ENDBRANCH  29  32
ENDBRANCH   1  28
TORSDOF 8
ENDMDL
