MODEL 1
REMARK VINA RESULT:      -9.6      0.000      0.000
REMARK  4 active torsions:
REMARK  status: ('A' for Active; 'I' for Inactive)
REMARK    1  A    between atoms: C_4  and  N_5 
REMARK       I    between atoms: N_5  and  C_6 
REMARK       I    between atoms: C_6  and  N_7 
REMARK    2  A    between atoms: N_7  and  C_8 
REMARK    3  A    between atoms: C_8  and  C_9 
REMARK    4  A    between atoms: C_10  and  O_11 
ROOT
HETATM    1  N   UNL     1      27.880  46.467  55.400  1.00  0.00    -0.307 N 
HETATM    2  C   UNL     1      26.811  46.974  54.731  1.00  0.00     0.321 C 
HETATM    3  N   UNL     1      26.623  46.550  53.450  1.00  0.00    -0.338 N 
HETATM    4  O   UNL     1      26.090  47.808  55.274  1.00  0.00    -0.247 OA
HETATM    5  H   UNL     1      28.108  46.996  56.240  1.00  0.00     0.170 HD
HETATM    6  H   UNL     1      27.489  46.345  52.973  1.00  0.00     0.164 HD
ENDROOT
BRANCH   1   7
HETATM    7  C   UNL     1      28.740  45.363  55.184  1.00  0.00     0.066 A 
HETATM    8  C   UNL     1      28.655  44.524  54.066  1.00  0.00     0.038 A 
HETATM    9  C   UNL     1      29.535  43.446  53.915  1.00  0.00    -0.059 A 
HETATM   10  C   UNL     1      29.473  42.568  52.700  1.00  0.00     0.048 C 
HETATM   11  C   UNL     1      30.500  43.217  54.898  1.00  0.00     0.020 A 
HETATM   12  C   UNL     1      30.567  44.029  56.042  1.00  0.00    -0.005 A 
HETATM   13  C   UNL     1      29.675  45.111  56.202  1.00  0.00     0.093 A 
HETATM   14  C   UNL     1      31.510  43.790  57.050  1.00  0.00     0.015 A 
HETATM   15  N   UNL     1      29.715  45.903  57.300  1.00  0.00    -0.258 NA
HETATM   16  C   UNL     1      30.637  45.640  58.252  1.00  0.00     0.117 A 
HETATM   17  C   UNL     1      31.549  44.606  58.174  1.00  0.00     0.020 A 
ENDBRANCH   1   7
BRANCH   3  18
HETATM   18  C   UNL     1      25.577  47.118  52.617  1.00  0.00     0.167 C 
BRANCH  18  19
HETATM   19  C   UNL     1      25.007  46.178  51.588  1.00  0.00     0.012 A 
HETATM   20  C   UNL     1      24.487  46.688  50.394  1.00  0.00     0.171 A 
HETATM   21  N   UNL     1      23.926  45.931  49.424  1.00  0.00    -0.237 NA
HETATM   22  C   UNL     1      23.854  44.604  49.650  1.00  0.00     0.119 A 
HETATM   23  C   UNL     1      24.321  43.995  50.800  1.00  0.00     0.020 A 
HETATM   24  C   UNL     1      24.901  44.795  51.781  1.00  0.00     0.014 A 
BRANCH  20  25
HETATM   25  O   UNL     1      24.568  48.056  50.209  1.00  0.00    -0.339 OA
HETATM   26  C   UNL     1      23.561  48.568  49.341  1.00  0.00     0.211 C 
ENDBRANCH  20  25
ENDBRANCH  18  19
ENDBRANCH   3  18
TORSDOF 4
ENDMDL
MODEL 2
REMARK VINA RESULT:      -9.5      1.887      2.771
REMARK  4 active torsions:
REMARK  status: ('A' for Active; 'I' for Inactive)
REMARK    1  A    between atoms: C_4  and  N_5 
REMARK       I    between atoms: N_5  and  C_6 
REMARK       I    between atoms: C_6  and  N_7 
REMARK    2  A    between atoms: N_7  and  C_8 
REMARK    3  A    between atoms: C_8  and  C_9 
REMARK    4  A    between atoms: C_10  and  O_11 
ROOT
HETATM    1  N   UNL     1      27.015  46.085  53.793  1.00  0.00    -0.307 N 
HETATM    2  C   UNL     1      26.059  46.670  53.026  1.00  0.00     0.321 C 
HETATM    3  N   UNL     1      25.845  46.141  51.789  1.00  0.00    -0.338 N 
HETATM    4  O   UNL     1      25.462  47.660  53.443  1.00  0.00    -0.247 OA
HETATM    5  H   UNL     1      27.299  46.664  54.582  1.00  0.00     0.170 HD
HETATM    6  H   UNL     1      26.681  45.754  51.377  1.00  0.00     0.164 HD
ENDROOT
BRANCH   1   7
HETATM    7  C   UNL     1      27.698  44.846  53.734  1.00  0.00     0.066 A 
HETATM    8  C   UNL     1      27.301  43.781  52.916  1.00  0.00     0.038 A 
HETATM    9  C   UNL     1      28.018  42.580  52.909  1.00  0.00    -0.059 A 
HETATM   10  C   UNL     1      27.619  41.452  52.005  1.00  0.00     0.048 C 
HETATM   11  C   UNL     1      29.139  42.456  53.734  1.00  0.00     0.020 A 
HETATM   12  C   UNL     1      29.522  43.504  54.588  1.00  0.00    -0.005 A 
HETATM   13  C   UNL     1      28.795  44.713  54.604  1.00  0.00     0.093 A 
HETATM   14  C   UNL     1      30.625  43.380  55.442  1.00  0.00     0.015 A 
HETATM   15  N   UNL     1      29.140  45.735  55.424  1.00  0.00    -0.258 NA
HETATM   16  C   UNL     1      30.208  45.576  56.235  1.00  0.00     0.117 A 
HETATM   17  C   UNL     1      30.977  44.431  56.280  1.00  0.00     0.020 A 
ENDBRANCH   1   7
BRANCH   3  18
HETATM   18  C   UNL     1      24.926  46.765  50.853  1.00  0.00     0.167 C 
BRANCH  18  19
HETATM   19  C   UNL     1      25.534  47.837  49.988  1.00  0.00     0.012 A 
HETATM   20  C   UNL     1      24.705  48.691  49.254  1.00  0.00     0.171 A 
HETATM   21  N   UNL     1      25.154  49.662  48.426  1.00  0.00    -0.237 NA
HETATM   22  C   UNL     1      26.490  49.784  48.297  1.00  0.00     0.119 A 
HETATM   23  C   UNL     1      27.401  48.984  48.961  1.00  0.00     0.020 A 
HETATM   24  C   UNL     1      26.914  47.997  49.813  1.00  0.00     0.014 A 
BRANCH  20  25
HETATM   25  O   UNL     1      23.340  48.521  49.405  1.00  0.00    -0.339 OA
HETATM   26  C   UNL     1      22.597  49.719  49.198  1.00  0.00     0.211 C 
ENDBRANCH  20  25
ENDBRANCH  18  19
ENDBRANCH   3  18
TORSDOF 4
ENDMDL
MODEL 3
REMARK VINA RESULT:      -9.4      2.354      3.903
REMARK  4 active torsions:
REMARK  status: ('A' for Active; 'I' for Inactive)
REMARK    1  A    between atoms: C_4  and  N_5 
REMARK       I    between atoms: N_5  and  C_6 
REMARK       I    between atoms: C_6  and  N_7 
REMARK    2  A    between atoms: N_7  and  C_8 
REMARK    3  A    between atoms: C_8  and  C_9 
REMARK    4  A    between atoms: C_10  and  O_11 
ROOT
HETATM    1  N   UNL     1      25.617  43.726  53.002  1.00  0.00    -0.307 N 
HETATM    2  C   UNL     1      25.181  43.813  51.718  1.00  0.00     0.321 C 
HETATM    3  N   UNL     1      25.845  44.673  50.895  1.00  0.00    -0.338 N 
HETATM    4  O   UNL     1      24.201  43.165  51.359  1.00  0.00    -0.247 OA
HETATM    5  H   UNL     1      24.944  43.273  53.618  1.00  0.00     0.170 HD
HETATM    6  H   UNL     1      26.208  45.479  51.380  1.00  0.00     0.164 HD
ENDROOT
BRANCH   1   7
HETATM    7  C   UNL     1      26.802  44.124  53.665  1.00  0.00     0.066 A 
HETATM    8  C   UNL     1      27.864  43.254  53.942  1.00  0.00     0.038 A 
HETATM    9  C   UNL     1      29.008  43.712  54.606  1.00  0.00    -0.059 A 
HETATM   10  C   UNL     1      30.163  42.792  54.870  1.00  0.00     0.048 C 
HETATM   11  C   UNL     1      29.075  45.052  54.993  1.00  0.00     0.020 A 
HETATM   12  C   UNL     1      27.999  45.923  54.755  1.00  0.00    -0.005 A 
HETATM   13  C   UNL     1      26.841  45.463  54.094  1.00  0.00     0.093 A 
HETATM   14  C   UNL     1      28.042  47.262  55.165  1.00  0.00     0.015 A 
HETATM   15  N   UNL     1      25.787  46.282  53.860  1.00  0.00    -0.258 NA
HETATM   16  C   UNL     1      25.865  47.565  54.273  1.00  0.00     0.117 A 
HETATM   17  C   UNL     1      26.960  48.099  54.922  1.00  0.00     0.020 A 
ENDBRANCH   1   7
BRANCH   3  18
HETATM   18  C   UNL     1      25.385  44.920  49.539  1.00  0.00     0.167 C 
BRANCH  18  19
HETATM   19  C   UNL     1      24.459  46.098  49.390  1.00  0.00     0.012 A 
HETATM   20  C   UNL     1      24.857  47.357  49.849  1.00  0.00     0.171 A 
HETATM   21  N   UNL     1      24.088  48.468  49.789  1.00  0.00    -0.237 NA
HETATM   22  C   UNL     1      22.852  48.326  49.268  1.00  0.00     0.119 A 
HETATM   23  C   UNL     1      22.350  47.127  48.800  1.00  0.00     0.020 A 
HETATM   24  C   UNL     1      23.164  46.000  48.866  1.00  0.00     0.014 A 
BRANCH  20  25
HETATM   25  O   UNL     1      26.127  47.455  50.388  1.00  0.00    -0.339 OA
HETATM   26  C   UNL     1      26.986  48.324  49.656  1.00  0.00     0.211 C 
ENDBRANCH  20  25
ENDBRANCH  18  19
ENDBRANCH   3  18
TORSDOF 4
ENDMDL
MODEL 4
REMARK VINA RESULT:      -9.3      2.325      3.969
REMARK  4 active torsions:
REMARK  status: ('A' for Active; 'I' for Inactive)
REMARK    1  A    between atoms: C_4  and  N_5 
REMARK       I    between atoms: N_5  and  C_6 
REMARK       I    between atoms: C_6  and  N_7 
REMARK    2  A    between atoms: N_7  and  C_8 
REMARK    3  A    between atoms: C_8  and  C_9 
REMARK    4  A    between atoms: C_10  and  O_11 
ROOT
HETATM    1  N   UNL     1      25.358  44.178  53.185  1.00  0.00    -0.307 N 
HETATM    2  C   UNL     1      24.987  44.147  51.878  1.00  0.00     0.321 C 
HETATM    3  N   UNL     1      25.346  45.210  51.105  1.00  0.00    -0.338 N 
HETATM    4  O   UNL     1      24.320  43.206  51.455  1.00  0.00    -0.247 OA
HETATM    5  H   UNL     1      24.857  43.498  53.755  1.00  0.00     0.170 HD
HETATM    6  H   UNL     1      25.375  46.077  51.620  1.00  0.00     0.164 HD
ENDROOT
BRANCH   1   7
HETATM    7  C   UNL     1      26.290  44.947  53.922  1.00  0.00     0.066 A 
HETATM    8  C   UNL     1      26.057  46.269  54.323  1.00  0.00     0.038 A 
HETATM    9  C   UNL     1      27.023  46.976  55.048  1.00  0.00    -0.059 A 
HETATM   10  C   UNL     1      26.761  48.377  55.513  1.00  0.00     0.048 C 
HETATM   11  C   UNL     1      28.228  46.344  55.364  1.00  0.00     0.020 A 
HETATM   12  C   UNL     1      28.487  45.033  54.933  1.00  0.00    -0.005 A 
HETATM   13  C   UNL     1      27.519  44.320  54.194  1.00  0.00     0.093 A 
HETATM   14  C   UNL     1      29.704  44.400  55.218  1.00  0.00     0.015 A 
HETATM   15  N   UNL     1      27.748  43.058  53.760  1.00  0.00    -0.258 NA
HETATM   16  C   UNL     1      28.935  42.482  54.052  1.00  0.00     0.117 A 
HETATM   17  C   UNL     1      29.935  43.104  54.772  1.00  0.00     0.020 A 
ENDBRANCH   1   7
BRANCH   3  18
HETATM   18  C   UNL     1      24.900  45.321  49.728  1.00  0.00     0.167 C 
BRANCH  18  19
HETATM   19  C   UNL     1      24.040  46.523  49.436  1.00  0.00     0.012 A 
HETATM   20  C   UNL     1      24.482  47.798  49.799  1.00  0.00     0.171 A 
HETATM   21  N   UNL     1      23.771  48.934  49.609  1.00  0.00    -0.237 NA
HETATM   22  C   UNL     1      22.550  48.802  49.051  1.00  0.00     0.119 A 
HETATM   23  C   UNL     1      22.007  47.590  48.669  1.00  0.00     0.020 A 
HETATM   24  C   UNL     1      22.762  46.437  48.868  1.00  0.00     0.014 A 
BRANCH  20  25
HETATM   25  O   UNL     1      25.733  47.886  50.381  1.00  0.00    -0.339 OA
HETATM   26  C   UNL     1      26.708  48.489  49.535  1.00  0.00     0.211 C 
ENDBRANCH  20  25
ENDBRANCH  18  19
ENDBRANCH   3  18
TORSDOF 4
ENDMDL
MODEL 5
REMARK VINA RESULT:      -9.0      2.359      4.106
REMARK  4 active torsions:
REMARK  status: ('A' for Active; 'I' for Inactive)
REMARK    1  A    between atoms: C_4  and  N_5 
REMARK       I    between atoms: N_5  and  C_6 
REMARK       I    between atoms: C_6  and  N_7 
REMARK    2  A    between atoms: N_7  and  C_8 
REMARK    3  A    between atoms: C_8  and  C_9 
REMARK    4  A    between atoms: C_10  and  O_11 
ROOT
HETATM    1  N   UNL     1      25.360  44.641  53.233  1.00  0.00    -0.307 N 
HETATM    2  C   UNL     1      24.825  44.852  52.002  1.00  0.00     0.321 C 
HETATM    3  N   UNL     1      24.986  46.092  51.460  1.00  0.00    -0.338 N 
HETATM    4  O   UNL     1      24.192  43.956  51.449  1.00  0.00    -0.247 OA
HETATM    5  H   UNL     1      24.999  43.800  53.682  1.00  0.00     0.170 HD
HETATM    6  H   UNL     1      25.007  46.824  52.153  1.00  0.00     0.164 HD
ENDROOT
BRANCH   1   7
HETATM    7  C   UNL     1      26.310  45.332  54.022  1.00  0.00     0.066 A 
HETATM    8  C   UNL     1      26.127  46.642  54.482  1.00  0.00     0.038 A 
HETATM    9  C   UNL     1      27.110  47.271  55.256  1.00  0.00    -0.059 A 
HETATM   10  C   UNL     1      26.901  48.659  55.783  1.00  0.00     0.048 C 
HETATM   11  C   UNL     1      28.280  46.572  55.562  1.00  0.00     0.020 A 
HETATM   12  C   UNL     1      28.489  45.272  55.072  1.00  0.00    -0.005 A 
HETATM   13  C   UNL     1      27.505  44.639  54.284  1.00  0.00     0.093 A 
HETATM   14  C   UNL     1      29.672  44.573  55.347  1.00  0.00     0.015 A 
HETATM   15  N   UNL     1      27.688  43.390  53.793  1.00  0.00    -0.258 NA
HETATM   16  C   UNL     1      28.842  42.749  54.077  1.00  0.00     0.117 A 
HETATM   17  C   UNL     1      29.855  43.291  54.843  1.00  0.00     0.020 A 
ENDBRANCH   1   7
BRANCH   3  18
HETATM   18  C   UNL     1      24.355  46.448  50.201  1.00  0.00     0.167 C 
BRANCH  18  19
HETATM   19  C   UNL     1      24.885  47.705  49.561  1.00  0.00     0.012 A 
HETATM   20  C   UNL     1      23.998  48.614  48.977  1.00  0.00     0.171 A 
HETATM   21  N   UNL     1      24.376  49.753  48.352  1.00  0.00    -0.237 NA
HETATM   22  C   UNL     1      25.699  49.998  48.279  1.00  0.00     0.119 A 
HETATM   23  C   UNL     1      26.665  49.161  48.807  1.00  0.00     0.020 A 
HETATM   24  C   UNL     1      26.250  47.999  49.452  1.00  0.00     0.014 A 
BRANCH  20  25
HETATM   25  O   UNL     1      22.650  48.316  49.062  1.00  0.00    -0.339 OA
HETATM   26  C   UNL     1      21.967  48.432  47.817  1.00  0.00     0.211 C 
ENDBRANCH  20  25
ENDBRANCH  18  19
ENDBRANCH   3  18
TORSDOF 4
ENDMDL
MODEL 6
REMARK VINA RESULT:      -8.9      2.246      3.920
REMARK  4 active torsions:
REMARK  status: ('A' for Active; 'I' for Inactive)
REMARK    1  A    between atoms: C_4  and  N_5 
REMARK       I    between atoms: N_5  and  C_6 
REMARK       I    between atoms: C_6  and  N_7 
REMARK    2  A    between atoms: N_7  and  C_8 
REMARK    3  A    between atoms: C_8  and  C_9 
REMARK    4  A    between atoms: C_10  and  O_11 
ROOT
HETATM    1  N   UNL     1      27.505  42.983  53.109  1.00  0.00    -0.307 N 
HETATM    2  C   UNL     1      27.204  43.176  51.798  1.00  0.00     0.321 C 
HETATM    3  N   UNL     1      27.446  44.413  51.281  1.00  0.00    -0.338 N 
HETATM    4  O   UNL     1      26.697  42.266  51.147  1.00  0.00    -0.247 OA
HETATM    5  H   UNL     1      27.078  42.141  53.493  1.00  0.00     0.170 HD
HETATM    6  H   UNL     1      27.328  45.152  51.958  1.00  0.00     0.164 HD
ENDROOT
BRANCH   1   7
HETATM    7  C   UNL     1      28.283  43.696  54.052  1.00  0.00     0.066 A 
HETATM    8  C   UNL     1      29.446  43.185  54.640  1.00  0.00     0.038 A 
HETATM    9  C   UNL     1      30.168  43.941  55.571  1.00  0.00    -0.059 A 
HETATM   10  C   UNL     1      31.435  43.412  56.173  1.00  0.00     0.048 C 
HETATM   11  C   UNL     1      29.708  45.216  55.908  1.00  0.00     0.020 A 
HETATM   12  C   UNL     1      28.521  45.722  55.354  1.00  0.00    -0.005 A 
HETATM   13  C   UNL     1      27.786  44.958  54.422  1.00  0.00     0.093 A 
HETATM   14  C   UNL     1      28.034  46.987  55.708  1.00  0.00     0.015 A 
HETATM   15  N   UNL     1      26.634  45.422  53.880  1.00  0.00    -0.258 NA
HETATM   16  C   UNL     1      26.196  46.645  54.249  1.00  0.00     0.117 A 
HETATM   17  C   UNL     1      26.853  47.459  55.149  1.00  0.00     0.020 A 
ENDBRANCH   1   7
BRANCH   3  18
HETATM   18  C   UNL     1      27.055  44.750  49.923  1.00  0.00     0.167 C 
BRANCH  18  19
HETATM   19  C   UNL     1      26.186  45.974  49.800  1.00  0.00     0.012 A 
HETATM   20  C   UNL     1      24.794  45.845  49.833  1.00  0.00     0.171 A 
HETATM   21  N   UNL     1      23.930  46.877  49.699  1.00  0.00    -0.237 NA
HETATM   22  C   UNL     1      24.465  48.098  49.500  1.00  0.00     0.119 A 
HETATM   23  C   UNL     1      25.825  48.339  49.434  1.00  0.00     0.020 A 
HETATM   24  C   UNL     1      26.694  47.261  49.582  1.00  0.00     0.014 A 
BRANCH  20  25
HETATM   25  O   UNL     1      24.288  44.572  50.024  1.00  0.00    -0.339 OA
HETATM   26  C   UNL     1      22.984  44.396  49.478  1.00  0.00     0.211 C 
ENDBRANCH  20  25
ENDBRANCH  18  19
ENDBRANCH   3  18
TORSDOF 4
ENDMDL
MODEL 7
REMARK VINA RESULT:      -8.8      1.596      2.302
REMARK  4 active torsions:
REMARK  status: ('A' for Active; 'I' for Inactive)
REMARK    1  A    between atoms: C_4  and  N_5 
REMARK       I    between atoms: N_5  and  C_6 
REMARK       I    between atoms: C_6  and  N_7 
REMARK    2  A    between atoms: N_7  and  C_8 
REMARK    3  A    between atoms: C_8  and  C_9 
REMARK    4  A    between atoms: C_10  and  O_11 
ROOT
HETATM    1  N   UNL     1      27.896  46.229  54.937  1.00  0.00    -0.307 N 
HETATM    2  C   UNL     1      26.619  46.307  54.483  1.00  0.00     0.321 C 
HETATM    3  N   UNL     1      26.189  45.307  53.663  1.00  0.00    -0.338 N 
HETATM    4  O   UNL     1      25.921  47.273  54.783  1.00  0.00    -0.247 OA
HETATM    5  H   UNL     1      28.232  47.108  55.328  1.00  0.00     0.170 HD
HETATM    6  H   UNL     1      26.926  44.928  53.087  1.00  0.00     0.164 HD
ENDROOT
BRANCH   1   7
HETATM    7  C   UNL     1      28.858  45.192  54.988  1.00  0.00     0.066 A 
HETATM    8  C   UNL     1      29.011  44.228  53.983  1.00  0.00     0.038 A 
HETATM    9  C   UNL     1      29.980  43.225  54.097  1.00  0.00    -0.059 A 
HETATM   10  C   UNL     1      30.172  42.215  53.005  1.00  0.00     0.048 C 
HETATM   11  C   UNL     1      30.795  43.197  55.231  1.00  0.00     0.020 A 
HETATM   12  C   UNL     1      30.623  44.136  56.262  1.00  0.00    -0.005 A 
HETATM   13  C   UNL     1      29.641  45.142  56.155  1.00  0.00     0.093 A 
HETATM   14  C   UNL     1      31.414  44.099  57.418  1.00  0.00     0.015 A 
HETATM   15  N   UNL     1      29.451  46.053  57.140  1.00  0.00    -0.258 NA
HETATM   16  C   UNL     1      30.231  45.984  58.240  1.00  0.00     0.117 A 
HETATM   17  C   UNL     1      31.217  45.036  58.425  1.00  0.00     0.020 A 
ENDBRANCH   1   7
BRANCH   3  18
HETATM   18  C   UNL     1      24.879  45.360  53.037  1.00  0.00     0.167 C 
BRANCH  18  19
HETATM   19  C   UNL     1      24.870  45.058  51.562  1.00  0.00     0.012 A 
HETATM   20  C   UNL     1      25.475  43.890  51.087  1.00  0.00     0.171 A 
HETATM   21  N   UNL     1      25.547  43.546  49.781  1.00  0.00    -0.237 NA
HETATM   22  C   UNL     1      25.013  44.409  48.893  1.00  0.00     0.119 A 
HETATM   23  C   UNL     1      24.406  45.599  49.248  1.00  0.00     0.020 A 
HETATM   24  C   UNL     1      24.338  45.926  50.600  1.00  0.00     0.014 A 
BRANCH  20  25
HETATM   25  O   UNL     1      26.023  43.041  52.031  1.00  0.00    -0.339 OA
HETATM   26  C   UNL     1      26.815  42.002  51.463  1.00  0.00     0.211 C 
ENDBRANCH  20  25
ENDBRANCH  18  19
ENDBRANCH   3  18
TORSDOF 4
ENDMDL
MODEL 8
REMARK VINA RESULT:      -8.8      1.603      2.475
REMARK  4 active torsions:
REMARK  status: ('A' for Active; 'I' for Inactive)
REMARK    1  A    between atoms: C_4  and  N_5 
REMARK       I    between atoms: N_5  and  C_6 
REMARK       I    between atoms: C_6  and  N_7 
REMARK    2  A    between atoms: N_7  and  C_8 
REMARK    3  A    between atoms: C_8  and  C_9 
REMARK    4  A    between atoms: C_10  and  O_11 
ROOT
HETATM    1  N   UNL     1      26.856  45.902  53.932  1.00  0.00    -0.307 N 
HETATM    2  C   UNL     1      26.244  46.680  53.001  1.00  0.00     0.321 C 
HETATM    3  N   UNL     1      26.582  46.469  51.698  1.00  0.00    -0.338 N 
HETATM    4  O   UNL     1      25.458  47.554  53.356  1.00  0.00    -0.247 OA
HETATM    5  H   UNL     1      26.757  46.267  54.879  1.00  0.00     0.170 HD
HETATM    6  H   UNL     1      27.540  46.173  51.583  1.00  0.00     0.164 HD
ENDROOT
BRANCH   1   7
HETATM    7  C   UNL     1      27.597  44.698  53.872  1.00  0.00     0.066 A 
HETATM    8  C   UNL     1      27.222  43.597  53.092  1.00  0.00     0.038 A 
HETATM    9  C   UNL     1      27.999  42.432  53.081  1.00  0.00    -0.059 A 
HETATM   10  C   UNL     1      27.621  41.266  52.217  1.00  0.00     0.048 C 
HETATM   11  C   UNL     1      29.155  42.383  53.863  1.00  0.00     0.020 A 
HETATM   12  C   UNL     1      29.518  43.467  54.678  1.00  0.00    -0.005 A 
HETATM   13  C   UNL     1      28.733  44.639  54.699  1.00  0.00     0.093 A 
HETATM   14  C   UNL     1      30.660  43.417  55.489  1.00  0.00     0.015 A 
HETATM   15  N   UNL     1      29.059  45.694  55.483  1.00  0.00    -0.258 NA
HETATM   16  C   UNL     1      30.165  45.607  56.254  1.00  0.00     0.117 A 
HETATM   17  C   UNL     1      30.991  44.502  56.291  1.00  0.00     0.020 A 
ENDBRANCH   1   7
BRANCH   3  18
HETATM   18  C   UNL     1      26.068  47.323  50.641  1.00  0.00     0.167 C 
BRANCH  18  19
HETATM   19  C   UNL     1      24.901  46.753  49.878  1.00  0.00     0.012 A 
HETATM   20  C   UNL     1      24.980  45.460  49.352  1.00  0.00     0.171 A 
HETATM   21  N   UNL     1      24.001  44.871  48.627  1.00  0.00    -0.237 NA
HETATM   22  C   UNL     1      22.895  45.604  48.389  1.00  0.00     0.119 A 
HETATM   23  C   UNL     1      22.717  46.896  48.846  1.00  0.00     0.020 A 
HETATM   24  C   UNL     1      23.736  47.477  49.596  1.00  0.00     0.014 A 
BRANCH  20  25
HETATM   25  O   UNL     1      26.139  44.749  49.607  1.00  0.00    -0.339 OA
HETATM   26  C   UNL     1      25.981  43.341  49.461  1.00  0.00     0.211 C 
ENDBRANCH  20  25
ENDBRANCH  18  19
ENDBRANCH   3  18
TORSDOF 4
ENDMDL
MODEL 9
REMARK VINA RESULT:      -8.4      2.368      7.771
REMARK  4 active torsions:
REMARK  status: ('A' for Active; 'I' for Inactive)
REMARK    1  A    between atoms: C_4  and  N_5 
REMARK       I    between atoms: N_5  and  C_6 
REMARK       I    between atoms: C_6  and  N_7 
REMARK    2  A    between atoms: N_7  and  C_8 
REMARK    3  A    between atoms: C_8  and  C_9 
REMARK    4  A    between atoms: C_10  and  O_11 
ROOT
HETATM    1  N   UNL     1      26.871  42.710  52.749  1.00  0.00    -0.307 N 
HETATM    2  C   UNL     1      28.033  42.408  53.383  1.00  0.00     0.321 C 
HETATM    3  N   UNL     1      28.972  43.393  53.461  1.00  0.00    -0.338 N 
HETATM    4  O   UNL     1      28.215  41.273  53.818  1.00  0.00    -0.247 OA
HETATM    5  H   UNL     1      26.326  41.884  52.505  1.00  0.00     0.170 HD
HETATM    6  H   UNL     1      28.956  44.013  52.666  1.00  0.00     0.164 HD
ENDROOT
BRANCH   1   7
HETATM    7  C   UNL     1      26.253  43.922  52.357  1.00  0.00     0.066 A 
HETATM    8  C   UNL     1      26.230  45.073  53.154  1.00  0.00     0.038 A 
HETATM    9  C   UNL     1      25.597  46.238  52.708  1.00  0.00    -0.059 A 
HETATM   10  C   UNL     1      25.605  47.484  53.543  1.00  0.00     0.048 C 
HETATM   11  C   UNL     1      24.984  46.237  51.453  1.00  0.00     0.020 A 
HETATM   12  C   UNL     1      24.967  45.076  50.662  1.00  0.00    -0.005 A 
HETATM   13  C   UNL     1      25.596  43.897  51.113  1.00  0.00     0.093 A 
HETATM   14  C   UNL     1      24.329  45.055  49.416  1.00  0.00     0.015 A 
HETATM   15  N   UNL     1      25.586  42.762  50.373  1.00  0.00    -0.258 NA
HETATM   16  C   UNL     1      24.958  42.780  49.177  1.00  0.00     0.117 A 
HETATM   17  C   UNL     1      24.322  43.890  48.658  1.00  0.00     0.020 A 
ENDBRANCH   1   7
BRANCH   3  18
HETATM   18  C   UNL     1      30.287  43.133  54.020  1.00  0.00     0.167 C 
BRANCH  18  19
HETATM   19  C   UNL     1      30.506  43.681  55.405  1.00  0.00     0.012 A 
HETATM   20  C   UNL     1      29.924  44.898  55.772  1.00  0.00     0.171 A 
HETATM   21  N   UNL     1      30.086  45.487  56.979  1.00  0.00    -0.237 NA
HETATM   22  C   UNL     1      30.882  44.855  57.864  1.00  0.00     0.119 A 
HETATM   23  C   UNL     1      31.520  43.657  57.603  1.00  0.00     0.020 A 
HETATM   24  C   UNL     1      31.332  43.067  56.356  1.00  0.00     0.014 A 
BRANCH  20  25
HETATM   25  O   UNL     1      29.126  45.520  54.828  1.00  0.00    -0.339 OA
HETATM   26  C   UNL     1      28.688  46.816  55.226  1.00  0.00     0.211 C 
ENDBRANCH  20  25
ENDBRANCH  18  19
ENDBRANCH   3  18
TORSDOF 4
ENDMDL
MODEL 10
REMARK VINA RESULT:      -8.4      2.405      7.953
REMARK  4 active torsions:
REMARK  status: ('A' for Active; 'I' for Inactive)
REMARK    1  A    between atoms: C_4  and  N_5 
REMARK       I    between atoms: N_5  and  C_6 
REMARK       I    between atoms: C_6  and  N_7 
REMARK    2  A    between atoms: N_7  and  C_8 
REMARK    3  A    between atoms: C_8  and  C_9 
REMARK    4  A    between atoms: C_10  and  O_11 
ROOT
HETATM    1  N   UNL     1      25.261  45.486  50.037  1.00  0.00    -0.307 N 
HETATM    2  C   UNL     1      25.393  44.899  51.255  1.00  0.00     0.321 C 
HETATM    3  N   UNL     1      25.143  45.674  52.347  1.00  0.00    -0.338 N 
HETATM    4  O   UNL     1      25.765  43.730  51.333  1.00  0.00    -0.247 OA
HETATM    5  H   UNL     1      25.695  44.947  49.289  1.00  0.00     0.170 HD
HETATM    6  H   UNL     1      25.385  46.642  52.205  1.00  0.00     0.164 HD
ENDROOT
BRANCH   1   7
HETATM    7  C   UNL     1      24.651  46.680  49.584  1.00  0.00     0.066 A 
HETATM    8  C   UNL     1      23.270  46.822  49.400  1.00  0.00     0.038 A 
HETATM    9  C   UNL     1      22.731  48.030  48.944  1.00  0.00    -0.059 A 
HETATM   10  C   UNL     1      21.249  48.198  48.783  1.00  0.00     0.048 C 
HETATM   11  C   UNL     1      23.593  49.096  48.672  1.00  0.00     0.020 A 
HETATM   12  C   UNL     1      24.982  48.951  48.816  1.00  0.00    -0.005 A 
HETATM   13  C   UNL     1      25.530  47.731  49.266  1.00  0.00     0.093 A 
HETATM   14  C   UNL     1      25.858  50.003  48.517  1.00  0.00     0.015 A 
HETATM   15  N   UNL     1      26.867  47.564  49.404  1.00  0.00    -0.258 NA
HETATM   16  C   UNL     1      27.680  48.601  49.103  1.00  0.00     0.117 A 
HETATM   17  C   UNL     1      27.229  49.828  48.661  1.00  0.00     0.020 A 
ENDBRANCH   1   7
BRANCH   3  18
HETATM   18  C   UNL     1      25.365  45.170  53.692  1.00  0.00     0.167 C 
BRANCH  18  19
HETATM   19  C   UNL     1      26.700  45.528  54.289  1.00  0.00     0.012 A 
HETATM   20  C   UNL     1      27.586  44.514  54.667  1.00  0.00     0.171 A 
HETATM   21  N   UNL     1      28.793  44.732  55.239  1.00  0.00    -0.237 NA
HETATM   22  C   UNL     1      29.135  46.015  55.472  1.00  0.00     0.119 A 
HETATM   23  C   UNL     1      28.330  47.093  55.155  1.00  0.00     0.020 A 
HETATM   24  C   UNL     1      27.097  46.844  54.560  1.00  0.00     0.014 A 
BRANCH  20  25
HETATM   25  O   UNL     1      27.189  43.212  54.423  1.00  0.00    -0.339 OA
HETATM   26  C   UNL     1      28.189  42.430  53.775  1.00  0.00     0.211 C 
ENDBRANCH  20  25
ENDBRANCH  18  19
ENDBRANCH   3  18
TORSDOF 4
ENDMDL
