MODEL 1
REMARK VINA RESULT:     -10.8      0.000      0.000
REMARK  2 active torsions:
REMARK  status: ('A' for Active; 'I' for Inactive)
REMARK    1  A    between atoms: C_2  and  N_3 
REMARK       I    between atoms: N_3  and  C_4 
REMARK    2  A    between atoms: C_4  and  C_5 
ROOT
HETATM    1  C   UNL     1      25.198  44.892  52.268  1.00  0.00     0.032 A 
HETATM    2  C   UNL     1      26.143  45.884  52.492  1.00  0.00     0.036 A 
HETATM    3  C   UNL     1      26.213  46.956  51.598  1.00  0.00     0.049 A 
HETATM    4  C   UNL     1      25.306  47.085  50.525  1.00  0.00     0.061 A 
HETATM    5  C   UNL     1      24.320  46.107  50.338  1.00  0.00     0.050 A 
HETATM    6  N   UNL     1      23.314  46.110  49.358  1.00  0.00    -0.324 N 
HETATM    7  C   UNL     1      22.697  47.180  48.768  1.00  0.00     0.245 C 
HETATM    8  O   UNL     1      21.712  46.961  48.059  1.00  0.00    -0.271 OA
HETATM    9  C   UNL     1      23.120  48.583  49.191  1.00  0.00     0.180 C 
HETATM   10  N   UNL     1      24.534  48.806  48.929  1.00  0.00    -0.334 N 
HETATM   11  C   UNL     1      25.576  48.215  49.598  1.00  0.00     0.256 C 
HETATM   12  O   UNL     1      26.737  48.602  49.470  1.00  0.00    -0.267 OA
HETATM   13  C   UNL     1      22.406  49.674  48.382  1.00  0.00     0.037 C 
HETATM   14  C   UNL     1      23.451  50.774  48.271  1.00  0.00     0.022 C 
HETATM   15  C   UNL     1      24.742  49.990  48.113  1.00  0.00     0.127 C 
HETATM   16  C   UNL     1      24.309  44.993  51.191  1.00  0.00     0.033 A 
HETATM   17  H   UNL     1      22.817  45.246  49.180  1.00  0.00     0.169 HD
ENDROOT
BRANCH   2  18
HETATM   18  N   UNL     1      27.036  45.885  53.573  1.00  0.00    -0.322 N 
HETATM   19  C   UNL     1      28.073  45.008  53.829  1.00  0.00     0.277 C 
HETATM   20  O   UNL     1      28.440  44.083  53.112  1.00  0.00    -0.266 OA
HETATM   21  H   UNL     1      26.887  46.554  54.328  1.00  0.00     0.169 HD
BRANCH  19  22
HETATM   22  C   UNL     1      28.701  45.276  55.133  1.00  0.00     0.153 A 
HETATM   23  N   UNL     1      28.223  46.227  55.984  1.00  0.00    -0.169 NA
HETATM   24  N   UNL     1      29.041  46.165  57.068  1.00  0.00    -0.281 N 
HETATM   25  H   UNL     1      28.877  46.800  57.844  1.00  0.00     0.189 HD
HETATM   26  C   UNL     1      29.977  45.208  56.928  1.00  0.00     0.036 A 
HETATM   27  C   UNL     1      29.797  44.624  55.714  1.00  0.00     0.002 A 
HETATM   28  C   UNL     1      31.072  44.654  57.735  1.00  0.00     0.059 C 
HETATM   29  C   UNL     1      30.764  43.542  55.475  1.00  0.00     0.043 C 
HETATM   30  C   UNL     1      31.386  43.355  56.908  1.00  0.00     0.011 C 
ENDBRANCH  19  22
ENDBRANCH   2  18
TORSDOF 2
ENDMDL
MODEL 2
REMARK VINA RESULT:     -10.7      1.055      1.220
REMARK  2 active torsions:
REMARK  status: ('A' for Active; 'I' for Inactive)
REMARK    1  A    between atoms: C_2  and  N_3 
REMARK       I    between atoms: N_3  and  C_4 
REMARK    2  A    between atoms: C_4  and  C_5 
ROOT
HETATM    1  C   UNL     1      24.959  44.727  51.763  1.00  0.00     0.032 A 
HETATM    2  C   UNL     1      25.913  45.690  52.067  1.00  0.00     0.036 A 
HETATM    3  C   UNL     1      25.974  46.843  51.281  1.00  0.00     0.049 A 
HETATM    4  C   UNL     1      25.051  47.080  50.242  1.00  0.00     0.061 A 
HETATM    5  C   UNL     1      24.057  46.129  49.976  1.00  0.00     0.050 A 
HETATM    6  N   UNL     1      23.036  46.232  49.018  1.00  0.00    -0.324 N 
HETATM    7  C   UNL     1      22.415  47.357  48.546  1.00  0.00     0.245 C 
HETATM    8  O   UNL     1      21.418  47.212  47.835  1.00  0.00    -0.271 OA
HETATM    9  C   UNL     1      22.852  48.710  49.096  1.00  0.00     0.180 C 
HETATM   10  N   UNL     1      24.263  48.952  48.835  1.00  0.00    -0.334 N 
HETATM   11  C   UNL     1      25.312  48.294  49.425  1.00  0.00     0.256 C 
HETATM   12  O   UNL     1      26.473  48.687  49.316  1.00  0.00    -0.267 OA
HETATM   13  C   UNL     1      22.131  49.878  48.410  1.00  0.00     0.037 C 
HETATM   14  C   UNL     1      23.180  50.980  48.390  1.00  0.00     0.022 C 
HETATM   15  C   UNL     1      24.464  50.209  48.134  1.00  0.00     0.127 C 
HETATM   16  C   UNL     1      24.054  44.937  50.717  1.00  0.00     0.033 A 
HETATM   17  H   UNL     1      22.530  45.391  48.764  1.00  0.00     0.169 HD
ENDROOT
BRANCH   2  18
HETATM   18  N   UNL     1      26.823  45.581  53.129  1.00  0.00    -0.322 N 
HETATM   19  C   UNL     1      26.740  46.143  54.389  1.00  0.00     0.277 C 
HETATM   20  O   UNL     1      25.809  46.807  54.833  1.00  0.00    -0.266 OA
HETATM   21  H   UNL     1      27.707  45.101  52.966  1.00  0.00     0.169 HD
BRANCH  19  22
HETATM   22  C   UNL     1      27.959  45.891  55.176  1.00  0.00     0.153 A 
HETATM   23  N   UNL     1      28.270  46.627  56.280  1.00  0.00    -0.169 NA
HETATM   24  N   UNL     1      29.436  46.094  56.735  1.00  0.00    -0.281 N 
HETATM   25  H   UNL     1      29.869  46.494  57.562  1.00  0.00     0.189 HD
HETATM   26  C   UNL     1      29.835  45.057  55.975  1.00  0.00     0.036 A 
HETATM   27  C   UNL     1      28.927  44.899  54.975  1.00  0.00     0.002 A 
HETATM   28  C   UNL     1      30.940  44.091  55.977  1.00  0.00     0.059 C 
HETATM   29  C   UNL     1      29.265  43.769  54.098  1.00  0.00     0.043 C 
HETATM   30  C   UNL     1      30.395  43.054  54.928  1.00  0.00     0.011 C 
ENDBRANCH  19  22
ENDBRANCH   2  18
TORSDOF 2
ENDMDL
MODEL 3
REMARK VINA RESULT:      -9.8      1.380      1.619
REMARK  2 active torsions:
REMARK  status: ('A' for Active; 'I' for Inactive)
REMARK    1  A    between atoms: C_2  and  N_3 
REMARK       I    between atoms: N_3  and  C_4 
REMARK    2  A    between atoms: C_4  and  C_5 
ROOT
HETATM    1  C   UNL     1      24.905  44.172  51.349  1.00  0.00     0.032 A 
HETATM    2  C   UNL     1      25.996  44.984  51.638  1.00  0.00     0.036 A 
HETATM    3  C   UNL     1      26.105  46.214  50.985  1.00  0.00     0.049 A 
HETATM    4  C   UNL     1      25.106  46.674  50.102  1.00  0.00     0.061 A 
HETATM    5  C   UNL     1      23.983  45.874  49.857  1.00  0.00     0.050 A 
HETATM    6  N   UNL     1      22.881  46.203  49.052  1.00  0.00    -0.324 N 
HETATM    7  C   UNL     1      22.349  47.436  48.790  1.00  0.00     0.245 C 
HETATM    8  O   UNL     1      21.269  47.487  48.198  1.00  0.00    -0.271 OA
HETATM    9  C   UNL     1      23.003  48.657  49.430  1.00  0.00     0.180 C 
HETATM   10  N   UNL     1      24.394  48.780  49.023  1.00  0.00    -0.334 N 
HETATM   11  C   UNL     1      25.417  47.948  49.400  1.00  0.00     0.256 C 
HETATM   12  O   UNL     1      26.597  48.228  49.192  1.00  0.00    -0.267 OA
HETATM   13  C   UNL     1      22.353  49.970  48.975  1.00  0.00     0.037 C 
HETATM   14  C   UNL     1      23.517  50.950  48.948  1.00  0.00     0.022 C 
HETATM   15  C   UNL     1      24.663  50.088  48.449  1.00  0.00     0.127 C 
HETATM   16  C   UNL     1      23.921  44.605  50.454  1.00  0.00     0.033 A 
HETATM   17  H   UNL     1      22.254  45.457  48.770  1.00  0.00     0.169 HD
ENDROOT
BRANCH   2  18
HETATM   18  N   UNL     1      26.998  44.648  52.558  1.00  0.00    -0.322 N 
HETATM   19  C   UNL     1      27.190  45.142  53.835  1.00  0.00     0.277 C 
HETATM   20  O   UNL     1      26.468  45.940  54.425  1.00  0.00    -0.266 OA
HETATM   21  H   UNL     1      27.746  44.023  52.259  1.00  0.00     0.169 HD
BRANCH  19  22
HETATM   22  C   UNL     1      28.430  44.625  54.437  1.00  0.00     0.153 A 
HETATM   23  N   UNL     1      29.166  43.643  53.844  1.00  0.00    -0.169 NA
HETATM   24  N   UNL     1      30.225  43.454  54.676  1.00  0.00    -0.281 N 
HETATM   25  H   UNL     1      30.918  42.752  54.436  1.00  0.00     0.189 HD
HETATM   26  C   UNL     1      30.181  44.288  55.732  1.00  0.00     0.036 A 
HETATM   27  C   UNL     1      29.056  45.044  55.618  1.00  0.00     0.002 A 
HETATM   28  C   UNL     1      31.018  44.581  56.901  1.00  0.00     0.059 C 
HETATM   29  C   UNL     1      28.928  46.009  56.720  1.00  0.00     0.043 C 
HETATM   30  C   UNL     1      30.354  45.924  57.379  1.00  0.00     0.011 C 
ENDBRANCH  19  22
ENDBRANCH   2  18
TORSDOF 2
ENDMDL
MODEL 4
REMARK VINA RESULT:      -9.8      1.718      8.811
REMARK  2 active torsions:
REMARK  status: ('A' for Active; 'I' for Inactive)
REMARK    1  A    between atoms: C_2  and  N_3 
REMARK       I    between atoms: N_3  and  C_4 
REMARK    2  A    between atoms: C_4  and  C_5 
ROOT
HETATM    1  C   UNL     1      24.562  44.838  50.655  1.00  0.00     0.032 A 
HETATM    2  C   UNL     1      24.605  46.166  51.059  1.00  0.00     0.036 A 
HETATM    3  C   UNL     1      25.264  46.482  52.251  1.00  0.00     0.049 A 
HETATM    4  C   UNL     1      25.938  45.499  53.005  1.00  0.00     0.061 A 
HETATM    5  C   UNL     1      25.936  44.170  52.562  1.00  0.00     0.050 A 
HETATM    6  N   UNL     1      26.597  43.087  53.163  1.00  0.00    -0.324 N 
HETATM    7  C   UNL     1      27.756  43.088  53.890  1.00  0.00     0.245 C 
HETATM    8  O   UNL     1      28.260  42.000  54.177  1.00  0.00    -0.271 OA
HETATM    9  C   UNL     1      28.469  44.418  54.114  1.00  0.00     0.180 C 
HETATM   10  N   UNL     1      27.612  45.360  54.817  1.00  0.00    -0.334 N 
HETATM   11  C   UNL     1      26.494  45.967  54.302  1.00  0.00     0.256 C 
HETATM   12  O   UNL     1      25.939  46.905  54.872  1.00  0.00    -0.267 OA
HETATM   13  C   UNL     1      29.700  44.273  55.019  1.00  0.00     0.037 C 
HETATM   14  C   UNL     1      29.731  45.585  55.789  1.00  0.00     0.022 C 
HETATM   15  C   UNL     1      28.256  45.869  56.016  1.00  0.00     0.127 C 
HETATM   16  C   UNL     1      25.204  43.849  51.408  1.00  0.00     0.033 A 
HETATM   17  H   UNL     1      26.330  42.150  52.885  1.00  0.00     0.169 HD
ENDROOT
BRANCH   2  18
HETATM   18  N   UNL     1      24.033  47.223  50.337  1.00  0.00    -0.322 N 
HETATM   19  C   UNL     1      24.664  48.150  49.529  1.00  0.00     0.277 C 
HETATM   20  O   UNL     1      25.858  48.181  49.248  1.00  0.00    -0.266 OA
HETATM   21  H   UNL     1      23.039  47.415  50.458  1.00  0.00     0.169 HD
BRANCH  19  22
HETATM   22  C   UNL     1      23.726  49.176  49.044  1.00  0.00     0.153 A 
HETATM   23  N   UNL     1      24.057  50.497  49.003  1.00  0.00    -0.169 NA
HETATM   24  N   UNL     1      22.959  51.114  48.490  1.00  0.00    -0.281 N 
HETATM   25  H   UNL     1      22.974  52.122  48.372  1.00  0.00     0.189 HD
HETATM   26  C   UNL     1      21.987  50.231  48.196  1.00  0.00     0.036 A 
HETATM   27  C   UNL     1      22.433  48.992  48.536  1.00  0.00     0.002 A 
HETATM   28  C   UNL     1      20.643  50.274  47.607  1.00  0.00     0.059 C 
HETATM   29  C   UNL     1      21.443  47.948  48.230  1.00  0.00     0.043 C 
HETATM   30  C   UNL     1      20.414  48.741  47.343  1.00  0.00     0.011 C 
ENDBRANCH  19  22
ENDBRANCH   2  18
TORSDOF 2
ENDMDL
MODEL 5
REMARK VINA RESULT:      -9.3      2.466      9.209
REMARK  2 active torsions:
REMARK  status: ('A' for Active; 'I' for Inactive)
REMARK    1  A    between atoms: C_2  and  N_3 
REMARK       I    between atoms: N_3  and  C_4 
REMARK    2  A    between atoms: C_4  and  C_5 
ROOT
HETATM    1  C   UNL     1      25.266  47.235  52.264  1.00  0.00     0.032 A 
HETATM    2  C   UNL     1      24.862  46.624  51.084  1.00  0.00     0.036 A 
HETATM    3  C   UNL     1      25.530  45.470  50.665  1.00  0.00     0.049 A 
HETATM    4  C   UNL     1      26.547  44.880  51.445  1.00  0.00     0.061 A 
HETATM    5  C   UNL     1      26.912  45.472  52.660  1.00  0.00     0.050 A 
HETATM    6  N   UNL     1      27.862  44.989  53.574  1.00  0.00    -0.324 N 
HETATM    7  C   UNL     1      28.224  43.694  53.828  1.00  0.00     0.245 C 
HETATM    8  O   UNL     1      28.952  43.476  54.799  1.00  0.00    -0.271 OA
HETATM    9  C   UNL     1      27.540  42.583  53.038  1.00  0.00     0.180 C 
HETATM   10  N   UNL     1      27.767  42.738  51.610  1.00  0.00    -0.334 N 
HETATM   11  C   UNL     1      27.238  43.724  50.816  1.00  0.00     0.256 C 
HETATM   12  O   UNL     1      27.300  43.676  49.588  1.00  0.00    -0.267 OA
HETATM   13  C   UNL     1      28.112  41.197  53.368  1.00  0.00     0.037 C 
HETATM   14  C   UNL     1      28.017  40.451  52.045  1.00  0.00     0.022 C 
HETATM   15  C   UNL     1      28.338  41.534  51.030  1.00  0.00     0.127 C 
HETATM   16  C   UNL     1      26.293  46.675  53.033  1.00  0.00     0.033 A 
HETATM   17  H   UNL     1      28.201  45.620  54.292  1.00  0.00     0.169 HD
ENDROOT
BRANCH   2  18
HETATM   18  N   UNL     1      23.811  47.089  50.282  1.00  0.00    -0.322 N 
HETATM   19  C   UNL     1      23.758  48.244  49.523  1.00  0.00     0.277 C 
HETATM   20  O   UNL     1      24.663  49.058  49.369  1.00  0.00    -0.266 OA
HETATM   21  H   UNL     1      22.927  46.582  50.293  1.00  0.00     0.169 HD
BRANCH  19  22
HETATM   22  C   UNL     1      22.429  48.436  48.918  1.00  0.00     0.153 A 
HETATM   23  N   UNL     1      21.635  47.385  48.570  1.00  0.00    -0.169 NA
HETATM   24  N   UNL     1      20.505  47.954  48.071  1.00  0.00    -0.281 N 
HETATM   25  H   UNL     1      19.759  47.352  47.737  1.00  0.00     0.189 HD
HETATM   26  C   UNL     1      20.565  49.298  48.121  1.00  0.00     0.036 A 
HETATM   27  C   UNL     1      21.771  49.642  48.648  1.00  0.00     0.002 A 
HETATM   28  C   UNL     1      19.684  50.422  47.783  1.00  0.00     0.059 C 
HETATM   29  C   UNL     1      21.924  51.100  48.764  1.00  0.00     0.043 C 
HETATM   30  C   UNL     1      20.454  51.593  48.497  1.00  0.00     0.011 C 
ENDBRANCH  19  22
ENDBRANCH   2  18
TORSDOF 2
ENDMDL
MODEL 6
REMARK VINA RESULT:      -9.3      2.601      3.513
REMARK  2 active torsions:
REMARK  status: ('A' for Active; 'I' for Inactive)
REMARK    1  A    between atoms: C_2  and  N_3 
REMARK       I    between atoms: N_3  and  C_4 
REMARK    2  A    between atoms: C_4  and  C_5 
ROOT
HETATM    1  C   UNL     1      23.765  44.585  48.658  1.00  0.00     0.032 A 
HETATM    2  C   UNL     1      24.537  45.280  49.580  1.00  0.00     0.036 A 
HETATM    3  C   UNL     1      24.300  46.645  49.758  1.00  0.00     0.049 A 
HETATM    4  C   UNL     1      23.257  47.309  49.079  1.00  0.00     0.061 A 
HETATM    5  C   UNL     1      22.448  46.590  48.191  1.00  0.00     0.050 A 
HETATM    6  N   UNL     1      21.343  47.083  47.479  1.00  0.00    -0.324 N 
HETATM    7  C   UNL     1      20.474  48.080  47.830  1.00  0.00     0.245 C 
HETATM    8  O   UNL     1      19.464  48.237  47.141  1.00  0.00    -0.271 OA
HETATM    9  C   UNL     1      20.688  48.791  49.163  1.00  0.00     0.180 C 
HETATM   10  N   UNL     1      21.994  49.428  49.214  1.00  0.00    -0.334 N 
HETATM   11  C   UNL     1      23.201  48.780  49.286  1.00  0.00     0.256 C 
HETATM   12  O   UNL     1      24.248  49.376  49.536  1.00  0.00    -0.267 OA
HETATM   13  C   UNL     1      19.693  49.939  49.376  1.00  0.00     0.037 C 
HETATM   14  C   UNL     1      20.501  50.968  50.153  1.00  0.00     0.022 C 
HETATM   15  C   UNL     1      21.882  50.842  49.533  1.00  0.00     0.127 C 
HETATM   16  C   UNL     1      22.745  45.238  47.957  1.00  0.00     0.033 A 
HETATM   17  H   UNL     1      20.990  46.536  46.702  1.00  0.00     0.169 HD
ENDROOT
BRANCH   2  18
HETATM   18  N   UNL     1      25.544  44.691  50.359  1.00  0.00    -0.322 N 
HETATM   19  C   UNL     1      25.501  44.347  51.698  1.00  0.00     0.277 C 
HETATM   20  O   UNL     1      24.534  44.447  52.446  1.00  0.00    -0.266 OA
HETATM   21  H   UNL     1      26.465  44.555  49.945  1.00  0.00     0.169 HD
BRANCH  19  22
HETATM   22  C   UNL     1      26.807  43.863  52.175  1.00  0.00     0.153 A 
HETATM   23  N   UNL     1      27.569  43.002  51.445  1.00  0.00    -0.169 NA
HETATM   24  N   UNL     1      28.687  42.806  52.196  1.00  0.00    -0.281 N 
HETATM   25  H   UNL     1      29.409  42.183  51.847  1.00  0.00     0.189 HD
HETATM   26  C   UNL     1      28.650  43.524  53.334  1.00  0.00     0.036 A 
HETATM   27  C   UNL     1      27.473  44.204  53.359  1.00  0.00     0.002 A 
HETATM   28  C   UNL     1      29.535  43.757  54.482  1.00  0.00     0.059 C 
HETATM   29  C   UNL     1      27.348  45.041  54.562  1.00  0.00     0.043 C 
HETATM   30  C   UNL     1      28.813  44.993  55.132  1.00  0.00     0.011 C 
ENDBRANCH  19  22
ENDBRANCH   2  18
TORSDOF 2
ENDMDL
MODEL 7
REMARK VINA RESULT:      -9.2      2.426      3.825
REMARK  2 active torsions:
REMARK  status: ('A' for Active; 'I' for Inactive)
REMARK    1  A    between atoms: C_2  and  N_3 
REMARK       I    between atoms: N_3  and  C_4 
REMARK    2  A    between atoms: C_4  and  C_5 
ROOT
HETATM    1  C   UNL     1      25.482  47.161  51.491  1.00  0.00     0.032 A 
HETATM    2  C   UNL     1      25.792  45.927  52.050  1.00  0.00     0.036 A 
HETATM    3  C   UNL     1      25.149  44.789  51.556  1.00  0.00     0.049 A 
HETATM    4  C   UNL     1      24.257  44.858  50.466  1.00  0.00     0.061 A 
HETATM    5  C   UNL     1      23.991  46.099  49.873  1.00  0.00     0.050 A 
HETATM    6  N   UNL     1      23.174  46.334  48.756  1.00  0.00    -0.324 N 
HETATM    7  C   UNL     1      22.915  45.509  47.695  1.00  0.00     0.245 C 
HETATM    8  O   UNL     1      22.308  45.979  46.730  1.00  0.00    -0.271 OA
HETATM    9  C   UNL     1      23.572  44.133  47.672  1.00  0.00     0.180 C 
HETATM   10  N   UNL     1      23.184  43.346  48.832  1.00  0.00    -0.334 N 
HETATM   11  C   UNL     1      23.569  43.585  50.128  1.00  0.00     0.256 C 
HETATM   12  O   UNL     1      23.379  42.766  51.026  1.00  0.00    -0.267 OA
HETATM   13  C   UNL     1      23.118  43.292  46.471  1.00  0.00     0.037 C 
HETATM   14  C   UNL     1      23.113  41.871  47.015  1.00  0.00     0.022 C 
HETATM   15  C   UNL     1      22.624  42.064  48.440  1.00  0.00     0.127 C 
HETATM   16  C   UNL     1      24.578  47.247  50.428  1.00  0.00     0.033 A 
HETATM   17  H   UNL     1      22.878  47.286  48.570  1.00  0.00     0.169 HD
ENDROOT
BRANCH   2  18
HETATM   18  N   UNL     1      26.723  45.747  53.083  1.00  0.00    -0.322 N 
HETATM   19  C   UNL     1      26.684  46.252  54.369  1.00  0.00     0.277 C 
HETATM   20  O   UNL     1      25.781  46.917  54.866  1.00  0.00    -0.266 OA
HETATM   21  H   UNL     1      27.590  45.253  52.877  1.00  0.00     0.169 HD
BRANCH  19  22
HETATM   22  C   UNL     1      27.914  45.934  55.114  1.00  0.00     0.153 A 
HETATM   23  N   UNL     1      28.283  46.626  56.228  1.00  0.00    -0.169 NA
HETATM   24  N   UNL     1      29.440  46.038  56.634  1.00  0.00    -0.281 N 
HETATM   25  H   UNL     1      29.911  46.399  57.459  1.00  0.00     0.189 HD
HETATM   26  C   UNL     1      29.779  45.008  55.836  1.00  0.00     0.036 A 
HETATM   27  C   UNL     1      28.838  44.913  54.859  1.00  0.00     0.002 A 
HETATM   28  C   UNL     1      30.847  44.003  55.780  1.00  0.00     0.059 C 
HETATM   29  C   UNL     1      29.109  43.795  53.942  1.00  0.00     0.043 C 
HETATM   30  C   UNL     1      30.234  43.017  54.720  1.00  0.00     0.011 C 
ENDBRANCH  19  22
ENDBRANCH   2  18
TORSDOF 2
ENDMDL
MODEL 8
REMARK VINA RESULT:      -9.2      2.461      9.088
REMARK  2 active torsions:
REMARK  status: ('A' for Active; 'I' for Inactive)
REMARK    1  A    between atoms: C_2  and  N_3 
REMARK       I    between atoms: N_3  and  C_4 
REMARK    2  A    between atoms: C_4  and  C_5 
ROOT
HETATM    1  C   UNL     1      24.490  44.882  49.111  1.00  0.00     0.032 A 
HETATM    2  C   UNL     1      24.418  45.861  50.094  1.00  0.00     0.036 A 
HETATM    3  C   UNL     1      25.043  45.624  51.321  1.00  0.00     0.049 A 
HETATM    4  C   UNL     1      25.797  44.454  51.553  1.00  0.00     0.061 A 
HETATM    5  C   UNL     1      25.910  43.496  50.538  1.00  0.00     0.050 A 
HETATM    6  N   UNL     1      26.659  42.310  50.586  1.00  0.00    -0.324 N 
HETATM    7  C   UNL     1      27.812  42.053  51.278  1.00  0.00     0.245 C 
HETATM    8  O   UNL     1      28.406  40.999  51.041  1.00  0.00    -0.271 OA
HETATM    9  C   UNL     1      28.407  43.168  52.132  1.00  0.00     0.180 C 
HETATM   10  N   UNL     1      27.470  43.600  53.158  1.00  0.00    -0.334 N 
HETATM   11  C   UNL     1      26.306  44.293  52.940  1.00  0.00     0.256 C 
HETATM   12  O   UNL     1      25.671  44.807  53.860  1.00  0.00    -0.267 OA
HETATM   13  C   UNL     1      29.643  42.705  52.914  1.00  0.00     0.037 C 
HETATM   14  C   UNL     1      29.559  43.495  54.211  1.00  0.00     0.022 C 
HETATM   15  C   UNL     1      28.064  43.528  54.482  1.00  0.00     0.127 C 
HETATM   16  C   UNL     1      25.212  43.705  49.338  1.00  0.00     0.033 A 
HETATM   17  H   UNL     1      26.474  41.598  49.889  1.00  0.00     0.169 HD
ENDROOT
BRANCH   2  18
HETATM   18  N   UNL     1      23.759  47.088  49.930  1.00  0.00    -0.322 N 
HETATM   19  C   UNL     1      22.906  47.474  48.913  1.00  0.00     0.277 C 
HETATM   20  O   UNL     1      22.522  46.777  47.979  1.00  0.00    -0.266 OA
HETATM   21  H   UNL     1      23.969  47.845  50.579  1.00  0.00     0.169 HD
BRANCH  19  22
HETATM   22  C   UNL     1      22.516  48.887  49.039  1.00  0.00     0.153 A 
HETATM   23  N   UNL     1      23.324  49.810  49.632  1.00  0.00    -0.169 NA
HETATM   24  N   UNL     1      22.638  50.981  49.542  1.00  0.00    -0.281 N 
HETATM   25  H   UNL     1      23.052  51.823  49.931  1.00  0.00     0.189 HD
HETATM   26  C   UNL     1      21.464  50.819  48.903  1.00  0.00     0.036 A 
HETATM   27  C   UNL     1      21.349  49.505  48.572  1.00  0.00     0.002 A 
HETATM   28  C   UNL     1      20.349  51.674  48.479  1.00  0.00     0.059 C 
HETATM   29  C   UNL     1      20.100  49.229  47.845  1.00  0.00     0.043 C 
HETATM   30  C   UNL     1      19.603  50.684  47.512  1.00  0.00     0.011 C 
ENDBRANCH  19  22
ENDBRANCH   2  18
TORSDOF 2
ENDMDL
MODEL 9
REMARK VINA RESULT:      -8.9     12.148     13.149
REMARK  2 active torsions:
REMARK  status: ('A' for Active; 'I' for Inactive)
REMARK    1  A    between atoms: C_2  and  N_3 
REMARK       I    between atoms: N_3  and  C_4 
REMARK    2  A    between atoms: C_4  and  C_5 
ROOT
HETATM    1  C   UNL     1      29.049  52.066  41.522  1.00  0.00     0.032 A 
HETATM    2  C   UNL     1      30.041  51.098  41.424  1.00  0.00     0.036 A 
HETATM    3  C   UNL     1      29.711  49.854  40.880  1.00  0.00     0.049 A 
HETATM    4  C   UNL     1      28.424  49.588  40.369  1.00  0.00     0.061 A 
HETATM    5  C   UNL     1      27.443  50.588  40.422  1.00  0.00     0.050 A 
HETATM    6  N   UNL     1      26.137  50.505  39.915  1.00  0.00    -0.324 N 
HETATM    7  C   UNL     1      25.677  49.784  38.847  1.00  0.00     0.245 C 
HETATM    8  O   UNL     1      24.524  49.992  38.461  1.00  0.00    -0.271 OA
HETATM    9  C   UNL     1      26.672  48.933  38.066  1.00  0.00     0.180 C 
HETATM   10  N   UNL     1      27.294  47.935  38.922  1.00  0.00    -0.334 N 
HETATM   11  C   UNL     1      28.193  48.188  39.927  1.00  0.00     0.256 C 
HETATM   12  O   UNL     1      28.836  47.290  40.469  1.00  0.00    -0.267 OA
HETATM   13  C   UNL     1      25.995  48.116  36.957  1.00  0.00     0.037 C 
HETATM   14  C   UNL     1      26.811  46.833  36.913  1.00  0.00     0.022 C 
HETATM   15  C   UNL     1      27.134  46.596  38.378  1.00  0.00     0.127 C 
HETATM   16  C   UNL     1      27.760  51.806  41.043  1.00  0.00     0.033 A 
HETATM   17  H   UNL     1      25.460  51.196  40.219  1.00  0.00     0.169 HD
ENDROOT
BRANCH   2  18
HETATM   18  N   UNL     1      31.368  51.294  41.832  1.00  0.00    -0.322 N 
HETATM   19  C   UNL     1      32.068  50.630  42.822  1.00  0.00     0.277 C 
HETATM   20  O   UNL     1      31.660  49.691  43.499  1.00  0.00    -0.266 OA
HETATM   21  H   UNL     1      31.895  52.067  41.426  1.00  0.00     0.169 HD
BRANCH  19  22
HETATM   22  C   UNL     1      33.404  51.212  43.027  1.00  0.00     0.153 A 
HETATM   23  N   UNL     1      33.705  51.961  44.125  1.00  0.00    -0.169 NA
HETATM   24  N   UNL     1      35.013  52.299  43.967  1.00  0.00    -0.281 N 
HETATM   25  H   UNL     1      35.461  52.872  44.675  1.00  0.00     0.189 HD
HETATM   26  C   UNL     1      35.526  51.773  42.839  1.00  0.00     0.036 A 
HETATM   27  C   UNL     1      34.537  51.081  42.214  1.00  0.00     0.002 A 
HETATM   28  C   UNL     1      36.831  51.748  42.167  1.00  0.00     0.059 C 
HETATM   29  C   UNL     1      35.008  50.447  40.973  1.00  0.00     0.043 C 
HETATM   30  C   UNL     1      36.567  50.618  41.106  1.00  0.00     0.011 C 
ENDBRANCH  19  22
ENDBRANCH   2  18
TORSDOF 2
ENDMDL
MODEL 10
REMARK VINA RESULT:      -8.6      2.299      3.569
REMARK  2 active torsions:
REMARK  status: ('A' for Active; 'I' for Inactive)
REMARK    1  A    between atoms: C_2  and  N_3 
REMARK       I    between atoms: N_3  and  C_4 
REMARK    2  A    between atoms: C_4  and  C_5 
ROOT
HETATM    1  C   UNL     1      25.812  46.942  51.429  1.00  0.00     0.032 A 
HETATM    2  C   UNL     1      25.906  45.562  51.567  1.00  0.00     0.036 A 
HETATM    3  C   UNL     1      24.957  44.760  50.927  1.00  0.00     0.049 A 
HETATM    4  C   UNL     1      23.959  45.314  50.098  1.00  0.00     0.061 A 
HETATM    5  C   UNL     1      23.904  46.702  49.921  1.00  0.00     0.050 A 
HETATM    6  N   UNL     1      23.014  47.405  49.094  1.00  0.00    -0.324 N 
HETATM    7  C   UNL     1      22.426  46.998  47.928  1.00  0.00     0.245 C 
HETATM    8  O   UNL     1      21.813  47.839  47.265  1.00  0.00    -0.271 OA
HETATM    9  C   UNL     1      22.740  45.600  47.408  1.00  0.00     0.180 C 
HETATM   10  N   UNL     1      22.350  44.582  48.371  1.00  0.00    -0.334 N 
HETATM   11  C   UNL     1      22.958  44.346  49.579  1.00  0.00     0.256 C 
HETATM   12  O   UNL     1      22.713  43.342  50.247  1.00  0.00    -0.267 OA
HETATM   13  C   UNL     1      21.942  45.255  46.144  1.00  0.00     0.037 C 
HETATM   14  C   UNL     1      21.688  43.761  46.281  1.00  0.00     0.022 C 
HETATM   15  C   UNL     1      21.461  43.600  47.774  1.00  0.00     0.127 C 
HETATM   16  C   UNL     1      24.810  47.505  50.631  1.00  0.00     0.033 A 
HETATM   17  H   UNL     1      22.921  48.405  49.232  1.00  0.00     0.169 HD
ENDROOT
BRANCH   2  18
HETATM   18  N   UNL     1      26.907  44.916  52.305  1.00  0.00    -0.322 N 
HETATM   19  C   UNL     1      26.801  44.306  53.541  1.00  0.00     0.277 C 
HETATM   20  O   UNL     1      25.777  44.170  54.203  1.00  0.00    -0.266 OA
HETATM   21  H   UNL     1      27.865  44.945  51.958  1.00  0.00     0.169 HD
BRANCH  19  22
HETATM   22  C   UNL     1      28.111  43.847  54.034  1.00  0.00     0.153 A 
HETATM   23  N   UNL     1      28.733  42.750  53.518  1.00  0.00    -0.169 NA
HETATM   24  N   UNL     1      29.903  42.659  54.205  1.00  0.00    -0.281 N 
HETATM   25  H   UNL     1      30.540  41.898  53.990  1.00  0.00     0.189 HD
HETATM   26  C   UNL     1      30.033  43.661  55.095  1.00  0.00     0.036 A 
HETATM   27  C   UNL     1      28.916  44.432  55.019  1.00  0.00     0.002 A 
HETATM   28  C   UNL     1      31.043  44.111  56.060  1.00  0.00     0.059 C 
HETATM   29  C   UNL     1      28.972  45.573  55.945  1.00  0.00     0.043 C 
HETATM   30  C   UNL     1      30.481  45.542  56.391  1.00  0.00     0.011 C 
ENDBRANCH  19  22
ENDBRANCH   2  18
TORSDOF 2
ENDMDL
