MODEL 1
REMARK VINA RESULT:     -10.2      0.000      0.000
REMARK  9 active torsions:
REMARK  status: ('A' for Active; 'I' for Inactive)
REMARK    1  A    between atoms: C_2  and  O_3 
REMARK    2  A    between atoms: O_3  and  C_4 
REMARK    3  A    between atoms: C_7  and  C_8 
REMARK    4  A    between atoms: C_9  and  C_10 
REMARK       I    between atoms: C_10  and  N_11 
REMARK    5  A    between atoms: N_11  and  C_12 
REMARK    6  A    between atoms: C_22  and  S_23 
REMARK    7  A    between atoms: S_23  and  C_24 
REMARK    8  A    between atoms: C_24  and  C_25 
REMARK       I    between atoms: C_25  and  N_26 
REMARK    9  A    between atoms: N_26  and  C_27 
ROOT
HETATM    1  C   UNL     1      25.016  43.179  50.595  1.00  0.00     0.104 C 
HETATM    2  C   UNL     1      25.563  44.480  51.190  1.00  0.00     0.046 C 
HETATM    3  C   UNL     1      25.448  45.642  50.508  1.00  0.00     0.019 C 
HETATM    4  C   UNL     1      26.118  46.944  50.874  1.00  0.00     0.069 C 
HETATM    5  N   UNL     1      24.665  45.684  49.366  1.00  0.00    -0.353 N 
HETATM    6  C   UNL     1      23.821  44.666  48.946  1.00  0.00     0.087 C 
HETATM    7  C   UNL     1      24.001  43.425  49.476  1.00  0.00     0.055 C 
HETATM    8  C   UNL     1      23.201  42.232  48.977  1.00  0.00     0.019 C 
HETATM    9  N   UNL     1      22.538  41.243  48.565  1.00  0.00    -0.096 N 
HETATM   10  H   UNL     1      24.545  46.611  48.959  1.00  0.00     0.166 HD
ENDROOT
BRANCH   1  11
HETATM   11  C   UNL     1      26.122  42.236  50.118  1.00  0.00    -0.044 A 
HETATM   12  C   UNL     1      26.652  41.278  50.997  1.00  0.00     0.011 A 
HETATM   13  C   UNL     1      27.658  40.398  50.580  1.00  0.00     0.037 A 
HETATM   14  C   UNL     1      28.154  40.464  49.280  1.00  0.00     0.068 A 
HETATM   15  C   UNL     1      27.629  41.410  48.398  1.00  0.00     0.037 A 
HETATM   16  C   UNL     1      26.616  42.282  48.806  1.00  0.00     0.011 A 
BRANCH  14  17
HETATM   17  O   UNL     1      29.140  39.677  48.753  1.00  0.00    -0.352 OA
BRANCH  17  18
HETATM   18  C   UNL     1      29.045  38.274  48.993  1.00  0.00     0.171 C 
HETATM   19  C   UNL     1      30.106  37.902  50.013  1.00  0.00     0.034 C 
ENDBRANCH  17  18
ENDBRANCH  14  17
ENDBRANCH   1  11
BRANCH   6  20
HETATM   20  S   UNL     1      22.481  44.903  47.821  1.00  0.00    -0.102 SA
BRANCH  20  21
HETATM   21  C   UNL     1      21.090  45.509  48.789  1.00  0.00     0.184 C 
BRANCH  21  22
HETATM   22  C   UNL     1      20.659  46.915  48.421  1.00  0.00     0.231 C 
HETATM   23  N   UNL     1      20.919  47.877  49.377  1.00  0.00    -0.326 N 
HETATM   24  H   UNL     1      21.614  47.637  50.074  1.00  0.00     0.169 HD
HETATM   25  O   UNL     1      20.162  47.117  47.313  1.00  0.00    -0.272 OA
BRANCH  23  26
HETATM   26  C   UNL     1      20.455  49.215  49.359  1.00  0.00     0.040 A 
HETATM   27  C   UNL     1      19.318  49.570  50.114  1.00  0.00    -0.035 A 
HETATM   28  C   UNL     1      18.613  48.597  51.019  1.00  0.00     0.050 C 
HETATM   29  C   UNL     1      18.825  50.887  50.037  1.00  0.00     0.009 A 
HETATM   30  C   UNL     1      19.446  51.840  49.233  1.00  0.00     0.001 A 
HETATM   31  C   UNL     1      20.570  51.491  48.495  1.00  0.00     0.002 A 
HETATM   32  C   UNL     1      21.070  50.188  48.559  1.00  0.00     0.030 A 
ENDBRANCH  23  26
ENDBRANCH  21  22
ENDBRANCH  20  21
ENDBRANCH   6  20
BRANCH   2  33
HETATM   33  C   UNL     1      26.172  44.374  52.555  1.00  0.00     0.255 C 
HETATM   34  N   UNL     1      27.549  44.500  52.537  1.00  0.00    -0.323 N 
HETATM   35  H   UNL     1      27.985  44.653  51.637  1.00  0.00     0.169 HD
HETATM   36  O   UNL     1      25.461  44.274  53.543  1.00  0.00    -0.268 OA
BRANCH  34  37
HETATM   37  C   UNL     1      28.442  44.376  53.621  1.00  0.00     0.035 A 
HETATM   38  C   UNL     1      28.546  45.301  54.659  1.00  0.00     0.029 A 
HETATM   39  C   UNL     1      29.448  45.090  55.707  1.00  0.00     0.002 A 
HETATM   40  C   UNL     1      30.245  43.948  55.730  1.00  0.00     0.000 A 
HETATM   41  C   UNL     1      30.147  43.016  54.701  1.00  0.00     0.002 A 
HETATM   42  C   UNL     1      29.255  43.234  53.648  1.00  0.00     0.029 A 
ENDBRANCH  34  37
ENDBRANCH   2  33
TORSDOF 9
ENDMDL
MODEL 2
REMARK VINA RESULT:     -10.1      0.928      1.432
REMARK  9 active torsions:
REMARK  status: ('A' for Active; 'I' for Inactive)
REMARK    1  A    between atoms: C_2  and  O_3 
REMARK    2  A    between atoms: O_3  and  C_4 
REMARK    3  A    between atoms: C_7  and  C_8 
REMARK    4  A    between atoms: C_9  and  C_10 
REMARK       I    between atoms: C_10  and  N_11 
REMARK    5  A    between atoms: N_11  and  C_12 
REMARK    6  A    between atoms: C_22  and  S_23 
REMARK    7  A    between atoms: S_23  and  C_24 
REMARK    8  A    between atoms: C_24  and  C_25 
REMARK       I    between atoms: C_25  and  N_26 
REMARK    9  A    between atoms: N_26  and  C_27 
ROOT
HETATM    1  C   UNL     1      24.964  43.310  51.076  1.00  0.00     0.104 C 
HETATM    2  C   UNL     1      25.541  44.564  51.738  1.00  0.00     0.046 C 
HETATM    3  C   UNL     1      25.366  45.777  51.167  1.00  0.00     0.019 C 
HETATM    4  C   UNL     1      26.049  47.055  51.593  1.00  0.00     0.069 C 
HETATM    5  N   UNL     1      24.500  45.903  50.093  1.00  0.00    -0.353 N 
HETATM    6  C   UNL     1      23.637  44.912  49.650  1.00  0.00     0.087 C 
HETATM    7  C   UNL     1      23.867  43.633  50.058  1.00  0.00     0.055 C 
HETATM    8  C   UNL     1      23.043  42.474  49.520  1.00  0.00     0.019 C 
HETATM    9  N   UNL     1      22.360  41.513  49.075  1.00  0.00    -0.096 N 
HETATM   10  H   UNL     1      24.343  46.859  49.775  1.00  0.00     0.166 HD
ENDROOT
BRANCH   1  11
HETATM   11  C   UNL     1      26.040  42.427  50.442  1.00  0.00    -0.044 A 
HETATM   12  C   UNL     1      26.430  42.645  49.111  1.00  0.00     0.011 A 
HETATM   13  C   UNL     1      27.419  41.856  48.513  1.00  0.00     0.037 A 
HETATM   14  C   UNL     1      28.034  40.834  49.234  1.00  0.00     0.068 A 
HETATM   15  C   UNL     1      27.656  40.614  50.559  1.00  0.00     0.037 A 
HETATM   16  C   UNL     1      26.678  41.407  51.164  1.00  0.00     0.011 A 
BRANCH  14  17
HETATM   17  O   UNL     1      28.999  39.985  48.766  1.00  0.00    -0.352 OA
BRANCH  17  18
HETATM   18  C   UNL     1      28.843  38.599  49.069  1.00  0.00     0.171 C 
HETATM   19  C   UNL     1      30.181  38.076  49.559  1.00  0.00     0.034 C 
ENDBRANCH  17  18
ENDBRANCH  14  17
ENDBRANCH   1  11
BRANCH   6  20
HETATM   20  S   UNL     1      22.215  45.222  48.651  1.00  0.00    -0.102 SA
BRANCH  20  21
HETATM   21  C   UNL     1      22.504  46.785  47.807  1.00  0.00     0.184 C 
BRANCH  21  22
HETATM   22  C   UNL     1      22.021  47.994  48.584  1.00  0.00     0.231 C 
HETATM   23  N   UNL     1      20.750  48.427  48.263  1.00  0.00    -0.326 N 
HETATM   24  H   UNL     1      20.158  47.758  47.787  1.00  0.00     0.169 HD
HETATM   25  O   UNL     1      22.746  48.473  49.456  1.00  0.00    -0.272 OA
BRANCH  23  26
HETATM   26  C   UNL     1      20.145  49.630  48.704  1.00  0.00     0.040 A 
HETATM   27  C   UNL     1      19.162  49.587  49.715  1.00  0.00    -0.035 A 
HETATM   28  C   UNL     1      18.781  48.312  50.417  1.00  0.00     0.050 C 
HETATM   29  C   UNL     1      18.519  50.778  50.100  1.00  0.00     0.009 A 
HETATM   30  C   UNL     1      18.842  51.995  49.502  1.00  0.00     0.001 A 
HETATM   31  C   UNL     1      19.815  52.037  48.512  1.00  0.00     0.002 A 
HETATM   32  C   UNL     1      20.462  50.863  48.117  1.00  0.00     0.030 A 
ENDBRANCH  23  26
ENDBRANCH  21  22
ENDBRANCH  20  21
ENDBRANCH   6  20
BRANCH   2  33
HETATM   33  C   UNL     1      26.251  44.354  53.041  1.00  0.00     0.255 C 
HETATM   34  N   UNL     1      27.618  44.535  52.941  1.00  0.00    -0.323 N 
HETATM   35  H   UNL     1      27.982  44.790  52.032  1.00  0.00     0.169 HD
HETATM   36  O   UNL     1      25.616  44.132  54.061  1.00  0.00    -0.268 OA
BRANCH  34  37
HETATM   37  C   UNL     1      28.591  44.344  53.944  1.00  0.00     0.035 A 
HETATM   38  C   UNL     1      29.422  43.227  54.026  1.00  0.00     0.029 A 
HETATM   39  C   UNL     1      30.374  43.128  55.046  1.00  0.00     0.002 A 
HETATM   40  C   UNL     1      30.510  44.150  55.984  1.00  0.00     0.000 A 
HETATM   41  C   UNL     1      29.689  45.270  55.908  1.00  0.00     0.002 A 
HETATM   42  C   UNL     1      28.729  45.363  54.897  1.00  0.00     0.029 A 
ENDBRANCH  34  37
ENDBRANCH   2  33
TORSDOF 9
ENDMDL
MODEL 3
REMARK VINA RESULT:      -9.9      1.661      4.845
REMARK  9 active torsions:
REMARK  status: ('A' for Active; 'I' for Inactive)
REMARK    1  A    between atoms: C_2  and  O_3 
REMARK    2  A    between atoms: O_3  and  C_4 
REMARK    3  A    between atoms: C_7  and  C_8 
REMARK    4  A    between atoms: C_9  and  C_10 
REMARK       I    between atoms: C_10  and  N_11 
REMARK    5  A    between atoms: N_11  and  C_12 
REMARK    6  A    between atoms: C_22  and  S_23 
REMARK    7  A    between atoms: S_23  and  C_24 
REMARK    8  A    between atoms: C_24  and  C_25 
REMARK       I    between atoms: C_25  and  N_26 
REMARK    9  A    between atoms: N_26  and  C_27 
ROOT
HETATM    1  C   UNL     1      26.645  44.428  49.894  1.00  0.00     0.104 C 
HETATM    2  C   UNL     1      25.878  43.169  49.483  1.00  0.00     0.046 C 
HETATM    3  C   UNL     1      24.526  43.178  49.446  1.00  0.00     0.019 C 
HETATM    4  C   UNL     1      23.644  41.966  49.265  1.00  0.00     0.069 C 
HETATM    5  N   UNL     1      23.851  44.380  49.591  1.00  0.00    -0.353 N 
HETATM    6  C   UNL     1      24.450  45.631  49.589  1.00  0.00     0.087 C 
HETATM    7  C   UNL     1      25.795  45.697  49.794  1.00  0.00     0.055 C 
HETATM    8  C   UNL     1      26.505  47.033  49.929  1.00  0.00     0.019 C 
HETATM    9  N   UNL     1      27.096  48.142  50.041  1.00  0.00    -0.096 N 
HETATM   10  H   UNL     1      22.841  44.326  49.456  1.00  0.00     0.166 HD
ENDROOT
BRANCH   1  11
HETATM   11  C   UNL     1      27.271  44.312  51.285  1.00  0.00    -0.044 A 
HETATM   12  C   UNL     1      26.567  44.768  52.410  1.00  0.00     0.011 A 
HETATM   13  C   UNL     1      27.115  44.663  53.694  1.00  0.00     0.037 A 
HETATM   14  C   UNL     1      28.378  44.103  53.874  1.00  0.00     0.068 A 
HETATM   15  C   UNL     1      29.083  43.641  52.761  1.00  0.00     0.037 A 
HETATM   16  C   UNL     1      28.535  43.733  51.480  1.00  0.00     0.011 A 
BRANCH  14  17
HETATM   17  O   UNL     1      29.032  43.954  55.066  1.00  0.00    -0.352 OA
BRANCH  17  18
HETATM   18  C   UNL     1      30.278  43.259  55.038  1.00  0.00     0.171 C 
HETATM   19  C   UNL     1      31.086  43.703  56.244  1.00  0.00     0.034 C 
ENDBRANCH  17  18
ENDBRANCH  14  17
ENDBRANCH   1  11
BRANCH   6  20
HETATM   20  S   UNL     1      23.583  47.134  49.264  1.00  0.00    -0.102 SA
BRANCH  20  21
HETATM   21  C   UNL     1      21.991  46.675  48.561  1.00  0.00     0.184 C 
BRANCH  21  22
HETATM   22  C   UNL     1      21.095  47.860  48.262  1.00  0.00     0.231 C 
HETATM   23  N   UNL     1      21.150  48.886  49.184  1.00  0.00    -0.326 N 
HETATM   24  H   UNL     1      21.966  48.901  49.785  1.00  0.00     0.169 HD
HETATM   25  O   UNL     1      20.427  47.858  47.227  1.00  0.00    -0.272 OA
BRANCH  23  26
HETATM   26  C   UNL     1      20.287  50.007  49.235  1.00  0.00     0.040 A 
HETATM   27  C   UNL     1      19.097  49.939  49.988  1.00  0.00    -0.035 A 
HETATM   28  C   UNL     1      18.737  48.741  50.823  1.00  0.00     0.050 C 
HETATM   29  C   UNL     1      18.213  51.035  49.979  1.00  0.00     0.009 A 
HETATM   30  C   UNL     1      18.500  52.183  49.242  1.00  0.00     0.001 A 
HETATM   31  C   UNL     1      19.676  52.251  48.506  1.00  0.00     0.002 A 
HETATM   32  C   UNL     1      20.562  51.172  48.504  1.00  0.00     0.030 A 
ENDBRANCH  23  26
ENDBRANCH  21  22
ENDBRANCH  20  21
ENDBRANCH   6  20
BRANCH   2  33
HETATM   33  C   UNL     1      26.711  41.986  49.097  1.00  0.00     0.255 C 
HETATM   34  N   UNL     1      26.780  41.032  50.095  1.00  0.00    -0.323 N 
HETATM   35  H   UNL     1      26.271  41.222  50.949  1.00  0.00     0.169 HD
HETATM   36  O   UNL     1      27.180  41.901  47.972  1.00  0.00    -0.268 OA
BRANCH  34  37
HETATM   37  C   UNL     1      27.532  39.839  50.100  1.00  0.00     0.035 A 
HETATM   38  C   UNL     1      28.781  39.704  50.706  1.00  0.00     0.029 A 
HETATM   39  C   UNL     1      29.451  38.476  50.679  1.00  0.00     0.002 A 
HETATM   40  C   UNL     1      28.872  37.372  50.056  1.00  0.00     0.000 A 
HETATM   41  C   UNL     1      27.624  37.495  49.453  1.00  0.00     0.002 A 
HETATM   42  C   UNL     1      26.961  38.725  49.468  1.00  0.00     0.029 A 
ENDBRANCH  34  37
ENDBRANCH   2  33
TORSDOF 9
ENDMDL
MODEL 4
REMARK VINA RESULT:      -9.5      1.841      5.431
REMARK  9 active torsions:
REMARK  status: ('A' for Active; 'I' for Inactive)
REMARK    1  A    between atoms: C_2  and  O_3 
REMARK    2  A    between atoms: O_3  and  C_4 
REMARK    3  A    between atoms: C_7  and  C_8 
REMARK    4  A    between atoms: C_9  and  C_10 
REMARK       I    between atoms: C_10  and  N_11 
REMARK    5  A    between atoms: N_11  and  C_12 
REMARK    6  A    between atoms: C_22  and  S_23 
REMARK    7  A    between atoms: S_23  and  C_24 
REMARK    8  A    between atoms: C_24  and  C_25 
REMARK       I    between atoms: C_25  and  N_26 
REMARK    9  A    between atoms: N_26  and  C_27 
ROOT
HETATM    1  C   UNL     1      26.229  44.592  50.397  1.00  0.00     0.104 C 
HETATM    2  C   UNL     1      25.308  43.382  50.228  1.00  0.00     0.046 C 
HETATM    3  C   UNL     1      23.966  43.549  50.179  1.00  0.00     0.019 C 
HETATM    4  C   UNL     1      22.941  42.441  50.226  1.00  0.00     0.069 C 
HETATM    5  N   UNL     1      23.445  44.829  50.083  1.00  0.00    -0.353 N 
HETATM    6  C   UNL     1      24.192  45.974  49.846  1.00  0.00     0.087 C 
HETATM    7  C   UNL     1      25.538  45.912  50.047  1.00  0.00     0.055 C 
HETATM    8  C   UNL     1      26.408  47.153  49.929  1.00  0.00     0.019 C 
HETATM    9  N   UNL     1      27.132  48.181  49.831  1.00  0.00    -0.096 N 
HETATM   10  H   UNL     1      22.435  44.875  49.952  1.00  0.00     0.166 HD
ENDROOT
BRANCH   1  11
HETATM   11  C   UNL     1      26.856  44.669  51.790  1.00  0.00    -0.044 A 
HETATM   12  C   UNL     1      28.077  44.023  52.045  1.00  0.00     0.011 A 
HETATM   13  C   UNL     1      28.674  44.087  53.309  1.00  0.00     0.037 A 
HETATM   14  C   UNL     1      28.060  44.794  54.341  1.00  0.00     0.068 A 
HETATM   15  C   UNL     1      26.850  45.444  54.094  1.00  0.00     0.037 A 
HETATM   16  C   UNL     1      26.256  45.393  52.831  1.00  0.00     0.011 A 
BRANCH  14  17
HETATM   17  O   UNL     1      28.528  44.923  55.619  1.00  0.00    -0.352 OA
BRANCH  17  18
HETATM   18  C   UNL     1      28.757  46.249  56.093  1.00  0.00     0.171 C 
HETATM   19  C   UNL     1      28.774  46.206  57.611  1.00  0.00     0.034 C 
ENDBRANCH  17  18
ENDBRANCH  14  17
ENDBRANCH   1  11
BRANCH   6  20
HETATM   20  S   UNL     1      23.511  47.481  49.231  1.00  0.00    -0.102 SA
BRANCH  20  21
HETATM   21  C   UNL     1      22.048  47.041  48.279  1.00  0.00     0.184 C 
BRANCH  21  22
HETATM   22  C   UNL     1      21.109  48.205  48.034  1.00  0.00     0.231 C 
HETATM   23  N   UNL     1      21.066  49.147  49.043  1.00  0.00    -0.326 N 
HETATM   24  H   UNL     1      21.848  49.146  49.687  1.00  0.00     0.169 HD
HETATM   25  O   UNL     1      20.496  48.264  46.967  1.00  0.00    -0.272 OA
BRANCH  23  26
HETATM   26  C   UNL     1      20.146  50.218  49.142  1.00  0.00     0.040 A 
HETATM   27  C   UNL     1      18.996  50.080  49.947  1.00  0.00    -0.035 A 
HETATM   28  C   UNL     1      18.741  48.858  50.786  1.00  0.00     0.050 C 
HETATM   29  C   UNL     1      18.054  51.125  49.987  1.00  0.00     0.009 A 
HETATM   30  C   UNL     1      18.244  52.291  49.249  1.00  0.00     0.001 A 
HETATM   31  C   UNL     1      19.380  52.430  48.462  1.00  0.00     0.002 A 
HETATM   32  C   UNL     1      20.323  51.401  48.410  1.00  0.00     0.030 A 
ENDBRANCH  23  26
ENDBRANCH  21  22
ENDBRANCH  20  21
ENDBRANCH   6  20
BRANCH   2  33
HETATM   33  C   UNL     1      25.984  42.053  50.084  1.00  0.00     0.255 C 
HETATM   34  N   UNL     1      26.592  41.893  48.853  1.00  0.00    -0.323 N 
HETATM   35  H   UNL     1      26.526  42.666  48.203  1.00  0.00     0.169 HD
HETATM   36  O   UNL     1      26.027  41.277  51.027  1.00  0.00    -0.268 OA
BRANCH  34  37
HETATM   37  C   UNL     1      27.247  40.747  48.355  1.00  0.00     0.035 A 
HETATM   38  C   UNL     1      26.919  40.117  47.155  1.00  0.00     0.029 A 
HETATM   39  C   UNL     1      27.635  38.994  46.727  1.00  0.00     0.002 A 
HETATM   40  C   UNL     1      28.692  38.500  47.490  1.00  0.00     0.000 A 
HETATM   41  C   UNL     1      29.030  39.124  48.686  1.00  0.00     0.002 A 
HETATM   42  C   UNL     1      28.307  40.238  49.121  1.00  0.00     0.029 A 
ENDBRANCH  34  37
ENDBRANCH   2  33
TORSDOF 9
ENDMDL
MODEL 5
REMARK VINA RESULT:      -9.0      1.475      1.803
REMARK  9 active torsions:
REMARK  status: ('A' for Active; 'I' for Inactive)
REMARK    1  A    between atoms: C_2  and  O_3 
REMARK    2  A    between atoms: O_3  and  C_4 
REMARK    3  A    between atoms: C_7  and  C_8 
REMARK    4  A    between atoms: C_9  and  C_10 
REMARK       I    between atoms: C_10  and  N_11 
REMARK    5  A    between atoms: N_11  and  C_12 
REMARK    6  A    between atoms: C_22  and  S_23 
REMARK    7  A    between atoms: S_23  and  C_24 
REMARK    8  A    between atoms: C_24  and  C_25 
REMARK       I    between atoms: C_25  and  N_26 
REMARK    9  A    between atoms: N_26  and  C_27 
ROOT
HETATM    1  C   UNL     1      24.818  42.536  49.892  1.00  0.00     0.104 C 
HETATM    2  C   UNL     1      25.354  43.888  50.371  1.00  0.00     0.046 C 
HETATM    3  C   UNL     1      25.274  44.974  49.570  1.00  0.00     0.019 C 
HETATM    4  C   UNL     1      25.942  46.304  49.824  1.00  0.00     0.069 C 
HETATM    5  N   UNL     1      24.532  44.902  48.402  1.00  0.00    -0.353 N 
HETATM    6  C   UNL     1      23.695  43.852  48.057  1.00  0.00     0.087 C 
HETATM    7  C   UNL     1      23.846  42.670  48.718  1.00  0.00     0.055 C 
HETATM    8  C   UNL     1      23.054  41.437  48.315  1.00  0.00     0.019 C 
HETATM    9  N   UNL     1      22.397  40.413  47.983  1.00  0.00    -0.096 N 
HETATM   10  H   UNL     1      24.436  45.784  47.897  1.00  0.00     0.166 HD
ENDROOT
BRANCH   1  11
HETATM   11  C   UNL     1      25.932  41.544  49.556  1.00  0.00    -0.044 A 
HETATM   12  C   UNL     1      26.872  41.857  48.561  1.00  0.00     0.011 A 
HETATM   13  C   UNL     1      27.906  40.968  48.243  1.00  0.00     0.037 A 
HETATM   14  C   UNL     1      28.015  39.750  48.910  1.00  0.00     0.068 A 
HETATM   15  C   UNL     1      27.088  39.433  49.904  1.00  0.00     0.037 A 
HETATM   16  C   UNL     1      26.062  40.322  50.234  1.00  0.00     0.011 A 
BRANCH  14  17
HETATM   17  O   UNL     1      28.964  38.791  48.687  1.00  0.00    -0.352 OA
BRANCH  17  18
HETATM   18  C   UNL     1      29.004  37.696  49.601  1.00  0.00     0.171 C 
HETATM   19  C   UNL     1      30.218  37.879  50.495  1.00  0.00     0.034 C 
ENDBRANCH  17  18
ENDBRANCH  14  17
ENDBRANCH   1  11
BRANCH   6  20
HETATM   20  S   UNL     1      22.399  43.979  46.866  1.00  0.00    -0.102 SA
BRANCH  20  21
HETATM   21  C   UNL     1      21.080  44.934  47.632  1.00  0.00     0.184 C 
BRANCH  21  22
HETATM   22  C   UNL     1      20.981  46.356  47.118  1.00  0.00     0.231 C 
HETATM   23  N   UNL     1      19.940  47.098  47.641  1.00  0.00    -0.326 N 
HETATM   24  H   UNL     1      19.539  46.755  48.505  1.00  0.00     0.169 HD
HETATM   25  O   UNL     1      21.831  46.767  46.327  1.00  0.00    -0.272 OA
BRANCH  23  26
HETATM   26  C   UNL     1      19.522  48.375  47.194  1.00  0.00     0.040 A 
HETATM   27  C   UNL     1      19.828  49.518  47.961  1.00  0.00    -0.035 A 
HETATM   28  C   UNL     1      20.664  49.452  49.210  1.00  0.00     0.050 C 
HETATM   29  C   UNL     1      19.351  50.775  47.544  1.00  0.00     0.009 A 
HETATM   30  C   UNL     1      18.588  50.905  46.385  1.00  0.00     0.001 A 
HETATM   31  C   UNL     1      18.294  49.780  45.626  1.00  0.00     0.002 A 
HETATM   32  C   UNL     1      18.758  48.525  46.028  1.00  0.00     0.030 A 
ENDBRANCH  23  26
ENDBRANCH  21  22
ENDBRANCH  20  21
ENDBRANCH   6  20
BRANCH   2  33
HETATM   33  C   UNL     1      25.913  43.920  51.760  1.00  0.00     0.255 C 
HETATM   34  N   UNL     1      27.293  44.009  51.780  1.00  0.00    -0.323 N 
HETATM   35  H   UNL     1      27.764  44.051  50.885  1.00  0.00     0.169 HD
HETATM   36  O   UNL     1      25.166  43.947  52.726  1.00  0.00    -0.268 OA
BRANCH  34  37
HETATM   37  C   UNL     1      28.145  43.985  52.903  1.00  0.00     0.035 A 
HETATM   38  C   UNL     1      27.996  44.811  54.017  1.00  0.00     0.029 A 
HETATM   39  C   UNL     1      28.877  44.708  55.098  1.00  0.00     0.002 A 
HETATM   40  C   UNL     1      29.908  43.770  55.078  1.00  0.00     0.000 A 
HETATM   41  C   UNL     1      30.064  42.939  53.973  1.00  0.00     0.002 A 
HETATM   42  C   UNL     1      29.191  43.051  52.888  1.00  0.00     0.029 A 
ENDBRANCH  34  37
ENDBRANCH   2  33
TORSDOF 9
ENDMDL
MODEL 6
REMARK VINA RESULT:      -8.8      7.524     12.484
REMARK  9 active torsions:
REMARK  status: ('A' for Active; 'I' for Inactive)
REMARK    1  A    between atoms: C_2  and  O_3 
REMARK    2  A    between atoms: O_3  and  C_4 
REMARK    3  A    between atoms: C_7  and  C_8 
REMARK    4  A    between atoms: C_9  and  C_10 
REMARK       I    between atoms: C_10  and  N_11 
REMARK    5  A    between atoms: N_11  and  C_12 
REMARK    6  A    between atoms: C_22  and  S_23 
REMARK    7  A    between atoms: S_23  and  C_24 
REMARK    8  A    between atoms: C_24  and  C_25 
REMARK       I    between atoms: C_25  and  N_26 
REMARK    9  A    between atoms: N_26  and  C_27 
ROOT
HETATM    1  C   UNL     1      16.280  50.733  48.781  1.00  0.00     0.104 C 
HETATM    2  C   UNL     1      15.677  52.044  48.268  1.00  0.00     0.046 C 
HETATM    3  C   UNL     1      15.287  52.155  46.977  1.00  0.00     0.019 C 
HETATM    4  C   UNL     1      14.876  53.435  46.292  1.00  0.00     0.069 C 
HETATM    5  N   UNL     1      15.255  51.023  46.179  1.00  0.00    -0.353 N 
HETATM    6  C   UNL     1      15.416  49.724  46.638  1.00  0.00     0.087 C 
HETATM    7  C   UNL     1      15.966  49.544  47.871  1.00  0.00     0.055 C 
HETATM    8  C   UNL     1      16.289  48.153  48.393  1.00  0.00     0.019 C 
HETATM    9  N   UNL     1      16.557  47.001  48.828  1.00  0.00    -0.096 N 
HETATM   10  H   UNL     1      14.860  51.162  45.249  1.00  0.00     0.166 HD
ENDROOT
BRANCH   1  11
HETATM   11  C   UNL     1      17.786  50.834  49.030  1.00  0.00    -0.044 A 
HETATM   12  C   UNL     1      18.344  50.264  50.186  1.00  0.00     0.011 A 
HETATM   13  C   UNL     1      19.720  50.336  50.431  1.00  0.00     0.037 A 
HETATM   14  C   UNL     1      20.562  50.981  49.526  1.00  0.00     0.068 A 
HETATM   15  C   UNL     1      20.016  51.545  48.373  1.00  0.00     0.037 A 
HETATM   16  C   UNL     1      18.645  51.466  48.118  1.00  0.00     0.011 A 
BRANCH  14  17
HETATM   17  O   UNL     1      21.915  51.133  49.652  1.00  0.00    -0.352 OA
BRANCH  17  18
HETATM   18  C   UNL     1      22.685  51.087  48.452  1.00  0.00     0.171 C 
HETATM   19  C   UNL     1      23.749  50.017  48.621  1.00  0.00     0.034 C 
ENDBRANCH  17  18
ENDBRANCH  14  17
ENDBRANCH   1  11
BRANCH   6  20
HETATM   20  S   UNL     1      14.882  48.295  45.749  1.00  0.00    -0.102 SA
BRANCH  20  21
HETATM   21  C   UNL     1      15.962  48.138  44.319  1.00  0.00     0.184 C 
BRANCH  21  22
HETATM   22  C   UNL     1      17.436  48.238  44.655  1.00  0.00     0.231 C 
HETATM   23  N   UNL     1      17.940  47.191  45.402  1.00  0.00    -0.326 N 
HETATM   24  H   UNL     1      17.392  46.339  45.401  1.00  0.00     0.169 HD
HETATM   25  O   UNL     1      18.086  49.189  44.220  1.00  0.00    -0.272 OA
BRANCH  23  26
HETATM   26  C   UNL     1      19.223  47.135  45.998  1.00  0.00     0.040 A 
HETATM   27  C   UNL     1      20.151  46.164  45.567  1.00  0.00    -0.035 A 
HETATM   28  C   UNL     1      19.866  45.224  44.428  1.00  0.00     0.050 C 
HETATM   29  C   UNL     1      21.400  46.073  46.210  1.00  0.00     0.009 A 
HETATM   30  C   UNL     1      21.732  46.929  47.258  1.00  0.00     0.001 A 
HETATM   31  C   UNL     1      20.820  47.890  47.677  1.00  0.00     0.002 A 
HETATM   32  C   UNL     1      19.576  47.992  47.050  1.00  0.00     0.030 A 
ENDBRANCH  23  26
ENDBRANCH  21  22
ENDBRANCH  20  21
ENDBRANCH   6  20
BRANCH   2  33
HETATM   33  C   UNL     1      15.518  53.136  49.280  1.00  0.00     0.255 C 
HETATM   34  N   UNL     1      14.235  53.211  49.790  1.00  0.00    -0.323 N 
HETATM   35  H   UNL     1      13.563  52.537  49.446  1.00  0.00     0.169 HD
HETATM   36  O   UNL     1      16.482  53.798  49.631  1.00  0.00    -0.268 OA
BRANCH  34  37
HETATM   37  C   UNL     1      13.718  54.160  50.696  1.00  0.00     0.035 A 
HETATM   38  C   UNL     1      14.368  54.563  51.863  1.00  0.00     0.029 A 
HETATM   39  C   UNL     1      13.791  55.526  52.697  1.00  0.00     0.002 A 
HETATM   40  C   UNL     1      12.566  56.102  52.366  1.00  0.00     0.000 A 
HETATM   41  C   UNL     1      11.912  55.710  51.202  1.00  0.00     0.002 A 
HETATM   42  C   UNL     1      12.481  54.738  50.375  1.00  0.00     0.029 A 
ENDBRANCH  34  37
ENDBRANCH   2  33
TORSDOF 9
ENDMDL
MODEL 7
REMARK VINA RESULT:      -8.6      1.480      1.836
REMARK  9 active torsions:
REMARK  status: ('A' for Active; 'I' for Inactive)
REMARK    1  A    between atoms: C_2  and  O_3 
REMARK    2  A    between atoms: O_3  and  C_4 
REMARK    3  A    between atoms: C_7  and  C_8 
REMARK    4  A    between atoms: C_9  and  C_10 
REMARK       I    between atoms: C_10  and  N_11 
REMARK    5  A    between atoms: N_11  and  C_12 
REMARK    6  A    between atoms: C_22  and  S_23 
REMARK    7  A    between atoms: S_23  and  C_24 
REMARK    8  A    between atoms: C_24  and  C_25 
REMARK       I    between atoms: C_25  and  N_26 
REMARK    9  A    between atoms: N_26  and  C_27 
ROOT
HETATM    1  C   UNL     1      25.404  41.945  49.715  1.00  0.00     0.104 C 
HETATM    2  C   UNL     1      26.197  43.090  50.350  1.00  0.00     0.046 C 
HETATM    3  C   UNL     1      26.166  44.326  49.802  1.00  0.00     0.019 C 
HETATM    4  C   UNL     1      27.052  45.483  50.195  1.00  0.00     0.069 C 
HETATM    5  N   UNL     1      25.262  44.595  48.787  1.00  0.00    -0.353 N 
HETATM    6  C   UNL     1      24.238  43.748  48.392  1.00  0.00     0.087 C 
HETATM    7  C   UNL     1      24.305  42.442  48.772  1.00  0.00     0.055 C 
HETATM    8  C   UNL     1      23.290  41.424  48.277  1.00  0.00     0.019 C 
HETATM    9  N   UNL     1      22.448  40.580  47.868  1.00  0.00    -0.096 N 
HETATM   10  H   UNL     1      25.226  45.570  48.489  1.00  0.00     0.166 HD
ENDROOT
BRANCH   1  11
HETATM   11  C   UNL     1      26.299  40.928  49.005  1.00  0.00    -0.044 A 
HETATM   12  C   UNL     1      26.338  39.597  49.451  1.00  0.00     0.011 A 
HETATM   13  C   UNL     1      27.143  38.647  48.812  1.00  0.00     0.037 A 
HETATM   14  C   UNL     1      27.925  39.011  47.717  1.00  0.00     0.068 A 
HETATM   15  C   UNL     1      27.888  40.330  47.264  1.00  0.00     0.037 A 
HETATM   16  C   UNL     1      27.078  41.280  47.891  1.00  0.00     0.011 A 
BRANCH  14  17
HETATM   17  O   UNL     1      28.761  38.188  47.015  1.00  0.00    -0.352 OA
BRANCH  17  18
HETATM   18  C   UNL     1      28.153  37.270  46.107  1.00  0.00     0.171 C 
HETATM   19  C   UNL     1      29.247  36.390  45.532  1.00  0.00     0.034 C 
ENDBRANCH  17  18
ENDBRANCH  14  17
ENDBRANCH   1  11
BRANCH   6  20
HETATM   20  S   UNL     1      22.818  44.278  47.488  1.00  0.00    -0.102 SA
BRANCH  20  21
HETATM   21  C   UNL     1      21.754  45.145  48.652  1.00  0.00     0.184 C 
BRANCH  21  22
HETATM   22  C   UNL     1      21.386  46.548  48.212  1.00  0.00     0.231 C 
HETATM   23  N   UNL     1      21.635  47.538  49.141  1.00  0.00    -0.326 N 
HETATM   24  H   UNL     1      22.291  47.304  49.877  1.00  0.00     0.169 HD
HETATM   25  O   UNL     1      20.946  46.722  47.075  1.00  0.00    -0.272 OA
BRANCH  23  26
HETATM   26  C   UNL     1      21.217  48.888  49.051  1.00  0.00     0.040 A 
HETATM   27  C   UNL     1      19.908  49.242  49.439  1.00  0.00    -0.035 A 
HETATM   28  C   UNL     1      18.947  48.249  50.034  1.00  0.00     0.050 C 
HETATM   29  C   UNL     1      19.480  50.574  49.283  1.00  0.00     0.009 A 
HETATM   30  C   UNL     1      20.330  51.544  48.757  1.00  0.00     0.001 A 
HETATM   31  C   UNL     1      21.621  51.197  48.382  1.00  0.00     0.002 A 
HETATM   32  C   UNL     1      22.061  49.879  48.529  1.00  0.00     0.030 A 
ENDBRANCH  23  26
ENDBRANCH  21  22
ENDBRANCH  20  21
ENDBRANCH   6  20
BRANCH   2  33
HETATM   33  C   UNL     1      26.948  42.756  51.603  1.00  0.00     0.255 C 
HETATM   34  N   UNL     1      27.737  43.800  52.048  1.00  0.00    -0.323 N 
HETATM   35  H   UNL     1      27.719  44.654  51.506  1.00  0.00     0.169 HD
HETATM   36  O   UNL     1      26.769  41.685  52.163  1.00  0.00    -0.268 OA
BRANCH  34  37
HETATM   37  C   UNL     1      28.627  43.805  53.143  1.00  0.00     0.035 A 
HETATM   38  C   UNL     1      29.762  43.000  53.233  1.00  0.00     0.029 A 
HETATM   39  C   UNL     1      30.601  43.084  54.349  1.00  0.00     0.002 A 
HETATM   40  C   UNL     1      30.318  43.980  55.378  1.00  0.00     0.000 A 
HETATM   41  C   UNL     1      29.189  44.790  55.296  1.00  0.00     0.002 A 
HETATM   42  C   UNL     1      28.344  44.698  54.187  1.00  0.00     0.029 A 
ENDBRANCH  34  37
ENDBRANCH   2  33
TORSDOF 9
ENDMDL
MODEL 8
REMARK VINA RESULT:      -8.4      2.768      6.118
REMARK  9 active torsions:
REMARK  status: ('A' for Active; 'I' for Inactive)
REMARK    1  A    between atoms: C_2  and  O_3 
REMARK    2  A    between atoms: O_3  and  C_4 
REMARK    3  A    between atoms: C_7  and  C_8 
REMARK    4  A    between atoms: C_9  and  C_10 
REMARK       I    between atoms: C_10  and  N_11 
REMARK    5  A    between atoms: N_11  and  C_12 
REMARK    6  A    between atoms: C_22  and  S_23 
REMARK    7  A    between atoms: S_23  and  C_24 
REMARK    8  A    between atoms: C_24  and  C_25 
REMARK       I    between atoms: C_25  and  N_26 
REMARK    9  A    between atoms: N_26  and  C_27 
ROOT
HETATM    1  C   UNL     1      25.143  45.425  49.383  1.00  0.00     0.104 C 
HETATM    2  C   UNL     1      23.846  44.709  48.998  1.00  0.00     0.046 C 
HETATM    3  C   UNL     1      22.658  45.347  49.104  1.00  0.00     0.019 C 
HETATM    4  C   UNL     1      21.300  44.705  48.961  1.00  0.00     0.069 C 
HETATM    5  N   UNL     1      22.640  46.707  49.371  1.00  0.00    -0.353 N 
HETATM    6  C   UNL     1      23.756  47.531  49.363  1.00  0.00     0.087 C 
HETATM    7  C   UNL     1      24.984  46.947  49.429  1.00  0.00     0.055 C 
HETATM    8  C   UNL     1      26.248  47.782  49.550  1.00  0.00     0.019 C 
HETATM    9  N   UNL     1      27.297  48.475  49.649  1.00  0.00    -0.096 N 
HETATM   10  H   UNL     1      21.718  47.140  49.341  1.00  0.00     0.166 HD
ENDROOT
BRANCH   1  11
HETATM   11  C   UNL     1      25.737  44.908  50.695  1.00  0.00    -0.044 A 
HETATM   12  C   UNL     1      25.014  45.039  51.891  1.00  0.00     0.011 A 
HETATM   13  C   UNL     1      25.533  44.566  53.101  1.00  0.00     0.037 A 
HETATM   14  C   UNL     1      26.786  43.955  53.137  1.00  0.00     0.068 A 
HETATM   15  C   UNL     1      27.509  43.816  51.952  1.00  0.00     0.037 A 
HETATM   16  C   UNL     1      26.989  44.276  50.739  1.00  0.00     0.011 A 
BRANCH  14  17
HETATM   17  O   UNL     1      27.412  43.465  54.249  1.00  0.00    -0.352 OA
BRANCH  17  18
HETATM   18  C   UNL     1      28.595  42.696  54.039  1.00  0.00     0.171 C 
HETATM   19  C   UNL     1      29.730  43.373  54.785  1.00  0.00     0.034 C 
ENDBRANCH  17  18
ENDBRANCH  14  17
ENDBRANCH   1  11
BRANCH   6  20
HETATM   20  S   UNL     1      23.678  49.287  49.198  1.00  0.00    -0.102 SA
BRANCH  20  21
HETATM   21  C   UNL     1      22.705  49.629  47.724  1.00  0.00     0.184 C 
BRANCH  21  22
HETATM   22  C   UNL     1      21.216  49.729  47.987  1.00  0.00     0.231 C 
HETATM   23  N   UNL     1      20.674  50.987  47.819  1.00  0.00    -0.326 N 
HETATM   24  H   UNL     1      21.219  51.637  47.265  1.00  0.00     0.169 HD
HETATM   25  O   UNL     1      20.590  48.709  48.280  1.00  0.00    -0.272 OA
BRANCH  23  26
HETATM   26  C   UNL     1      19.362  51.383  48.176  1.00  0.00     0.040 A 
HETATM   27  C   UNL     1      18.326  51.311  47.221  1.00  0.00    -0.035 A 
HETATM   28  C   UNL     1      18.537  50.745  45.843  1.00  0.00     0.050 C 
HETATM   29  C   UNL     1      17.040  51.769  47.565  1.00  0.00     0.009 A 
HETATM   30  C   UNL     1      16.777  52.285  48.832  1.00  0.00     0.001 A 
HETATM   31  C   UNL     1      17.795  52.348  49.774  1.00  0.00     0.002 A 
HETATM   32  C   UNL     1      19.077  51.900  49.448  1.00  0.00     0.030 A 
ENDBRANCH  23  26
ENDBRANCH  21  22
ENDBRANCH  20  21
ENDBRANCH   6  20
BRANCH   2  33
HETATM   33  C   UNL     1      23.994  43.313  48.475  1.00  0.00     0.255 C 
HETATM   34  N   UNL     1      23.915  43.248  47.096  1.00  0.00    -0.323 N 
HETATM   35  H   UNL     1      23.779  44.120  46.601  1.00  0.00     0.169 HD
HETATM   36  O   UNL     1      24.241  42.391  49.237  1.00  0.00    -0.268 OA
BRANCH  34  37
HETATM   37  C   UNL     1      23.936  42.095  46.283  1.00  0.00     0.035 A 
HETATM   38  C   UNL     1      22.845  41.637  45.546  1.00  0.00     0.029 A 
HETATM   39  C   UNL     1      22.959  40.493  44.750  1.00  0.00     0.002 A 
HETATM   40  C   UNL     1      24.169  39.805  44.675  1.00  0.00     0.000 A 
HETATM   41  C   UNL     1      25.266  40.257  45.402  1.00  0.00     0.002 A 
HETATM   42  C   UNL     1      25.148  41.392  46.209  1.00  0.00     0.029 A 
ENDBRANCH  34  37
ENDBRANCH   2  33
TORSDOF 9
ENDMDL
MODEL 9
REMARK VINA RESULT:      -8.3      7.985     12.767
REMARK  9 active torsions:
REMARK  status: ('A' for Active; 'I' for Inactive)
REMARK    1  A    between atoms: C_2  and  O_3 
REMARK    2  A    between atoms: O_3  and  C_4 
REMARK    3  A    between atoms: C_7  and  C_8 
REMARK    4  A    between atoms: C_9  and  C_10 
REMARK       I    between atoms: C_10  and  N_11 
REMARK    5  A    between atoms: N_11  and  C_12 
REMARK    6  A    between atoms: C_22  and  S_23 
REMARK    7  A    between atoms: S_23  and  C_24 
REMARK    8  A    between atoms: C_24  and  C_25 
REMARK       I    between atoms: C_25  and  N_26 
REMARK    9  A    between atoms: N_26  and  C_27 
ROOT
HETATM    1  C   UNL     1      16.336  50.617  48.843  1.00  0.00     0.104 C 
HETATM    2  C   UNL     1      15.695  51.926  48.373  1.00  0.00     0.046 C 
HETATM    3  C   UNL     1      15.257  52.051  47.100  1.00  0.00     0.019 C 
HETATM    4  C   UNL     1      14.802  53.335  46.449  1.00  0.00     0.069 C 
HETATM    5  N   UNL     1      15.211  50.930  46.285  1.00  0.00    -0.353 N 
HETATM    6  C   UNL     1      15.406  49.627  46.718  1.00  0.00     0.087 C 
HETATM    7  C   UNL     1      16.004  49.437  47.926  1.00  0.00     0.055 C 
HETATM    8  C   UNL     1      16.366  48.043  48.415  1.00  0.00     0.019 C 
HETATM    9  N   UNL     1      16.666  46.888  48.821  1.00  0.00    -0.096 N 
HETATM   10  H   UNL     1      14.780  51.078  45.373  1.00  0.00     0.166 HD
ENDROOT
BRANCH   1  11
HETATM   11  C   UNL     1      17.848  50.736  49.038  1.00  0.00    -0.044 A 
HETATM   12  C   UNL     1      18.631  51.381  48.068  1.00  0.00     0.011 A 
HETATM   13  C   UNL     1      20.016  51.510  48.230  1.00  0.00     0.037 A 
HETATM   14  C   UNL     1      20.641  50.993  49.363  1.00  0.00     0.068 A 
HETATM   15  C   UNL     1      19.870  50.354  50.335  1.00  0.00     0.037 A 
HETATM   16  C   UNL     1      18.486  50.234  50.183  1.00  0.00     0.011 A 
BRANCH  14  17
HETATM   17  O   UNL     1      21.981  51.038  49.636  1.00  0.00    -0.352 OA
BRANCH  17  18
HETATM   18  C   UNL     1      22.870  50.968  48.522  1.00  0.00     0.171 C 
HETATM   19  C   UNL     1      23.301  49.522  48.359  1.00  0.00     0.034 C 
ENDBRANCH  17  18
ENDBRANCH  14  17
ENDBRANCH   1  11
BRANCH   6  20
HETATM   20  S   UNL     1      14.860  48.205  45.827  1.00  0.00    -0.102 SA
BRANCH  20  21
HETATM   21  C   UNL     1      16.119  47.848  44.592  1.00  0.00     0.184 C 
BRANCH  21  22
HETATM   22  C   UNL     1      16.247  48.918  43.526  1.00  0.00     0.231 C 
HETATM   23  N   UNL     1      17.286  49.808  43.710  1.00  0.00    -0.326 N 
HETATM   24  H   UNL     1      18.025  49.508  44.335  1.00  0.00     0.169 HD
HETATM   25  O   UNL     1      15.472  48.904  42.569  1.00  0.00    -0.272 OA
BRANCH  23  26
HETATM   26  C   UNL     1      17.507  50.995  42.969  1.00  0.00     0.040 A 
HETATM   27  C   UNL     1      18.452  50.999  41.923  1.00  0.00    -0.035 A 
HETATM   28  C   UNL     1      19.189  49.759  41.495  1.00  0.00     0.050 C 
HETATM   29  C   UNL     1      18.713  52.200  41.235  1.00  0.00     0.009 A 
HETATM   30  C   UNL     1      18.048  53.378  41.570  1.00  0.00     0.001 A 
HETATM   31  C   UNL     1      17.112  53.371  42.596  1.00  0.00     0.002 A 
HETATM   32  C   UNL     1      16.843  52.188  43.289  1.00  0.00     0.030 A 
ENDBRANCH  23  26
ENDBRANCH  21  22
ENDBRANCH  20  21
ENDBRANCH   6  20
BRANCH   2  33
HETATM   33  C   UNL     1      15.558  53.001  49.407  1.00  0.00     0.255 C 
HETATM   34  N   UNL     1      14.251  53.185  49.818  1.00  0.00    -0.323 N 
HETATM   35  H   UNL     1      13.549  52.589  49.398  1.00  0.00     0.169 HD
HETATM   36  O   UNL     1      16.550  53.556  49.856  1.00  0.00    -0.268 OA
BRANCH  34  37
HETATM   37  C   UNL     1      13.755  54.155  50.713  1.00  0.00     0.035 A 
HETATM   38  C   UNL     1      14.435  54.592  51.850  1.00  0.00     0.029 A 
HETATM   39  C   UNL     1      13.876  55.574  52.675  1.00  0.00     0.002 A 
HETATM   40  C   UNL     1      12.638  56.133  52.364  1.00  0.00     0.000 A 
HETATM   41  C   UNL     1      11.953  55.707  51.230  1.00  0.00     0.002 A 
HETATM   42  C   UNL     1      12.505  54.717  50.413  1.00  0.00     0.029 A 
ENDBRANCH  34  37
ENDBRANCH   2  33
TORSDOF 9
ENDMDL
MODEL 10
REMARK VINA RESULT:      -8.2      3.438      5.868
REMARK  9 active torsions:
REMARK  status: ('A' for Active; 'I' for Inactive)
REMARK    1  A    between atoms: C_2  and  O_3 
REMARK    2  A    between atoms: O_3  and  C_4 
REMARK    3  A    between atoms: C_7  and  C_8 
REMARK    4  A    between atoms: C_9  and  C_10 
REMARK       I    between atoms: C_10  and  N_11 
REMARK    5  A    between atoms: N_11  and  C_12 
REMARK    6  A    between atoms: C_22  and  S_23 
REMARK    7  A    between atoms: S_23  and  C_24 
REMARK    8  A    between atoms: C_24  and  C_25 
REMARK       I    between atoms: C_25  and  N_26 
REMARK    9  A    between atoms: N_26  and  C_27 
ROOT
HETATM    1  C   UNL     1      24.795  42.784  50.220  1.00  0.00     0.104 C 
HETATM    2  C   UNL     1      25.345  44.100  50.777  1.00  0.00     0.046 C 
HETATM    3  C   UNL     1      25.251  45.238  50.052  1.00  0.00     0.019 C 
HETATM    4  C   UNL     1      25.928  46.547  50.380  1.00  0.00     0.069 C 
HETATM    5  N   UNL     1      24.484  45.246  48.898  1.00  0.00    -0.353 N 
HETATM    6  C   UNL     1      23.636  44.222  48.502  1.00  0.00     0.087 C 
HETATM    7  C   UNL     1      23.798  42.998  49.078  1.00  0.00     0.055 C 
HETATM    8  C   UNL     1      22.994  41.796  48.612  1.00  0.00     0.019 C 
HETATM    9  N   UNL     1      22.327  40.798  48.226  1.00  0.00    -0.096 N 
HETATM   10  H   UNL     1      24.379  46.159  48.456  1.00  0.00     0.166 HD
ENDROOT
BRANCH   1  11
HETATM   11  C   UNL     1      25.898  41.815  49.793  1.00  0.00    -0.044 A 
HETATM   12  C   UNL     1      25.941  40.520  50.334  1.00  0.00     0.011 A 
HETATM   13  C   UNL     1      26.936  39.613  49.952  1.00  0.00     0.037 A 
HETATM   14  C   UNL     1      27.907  39.985  49.025  1.00  0.00     0.068 A 
HETATM   15  C   UNL     1      27.869  41.269  48.478  1.00  0.00     0.037 A 
HETATM   16  C   UNL     1      26.871  42.174  48.848  1.00  0.00     0.011 A 
BRANCH  14  17
HETATM   17  O   UNL     1      28.937  39.204  48.578  1.00  0.00    -0.352 OA
BRANCH  17  18
HETATM   18  C   UNL     1      29.049  37.899  49.142  1.00  0.00     0.171 C 
HETATM   19  C   UNL     1      30.253  37.892  50.066  1.00  0.00     0.034 C 
ENDBRANCH  17  18
ENDBRANCH  14  17
ENDBRANCH   1  11
BRANCH   6  20
HETATM   20  S   UNL     1      22.315  44.430  47.351  1.00  0.00    -0.102 SA
BRANCH  20  21
HETATM   21  C   UNL     1      23.050  44.423  45.708  1.00  0.00     0.184 C 
BRANCH  21  22
HETATM   22  C   UNL     1      23.158  43.041  45.096  1.00  0.00     0.231 C 
HETATM   23  N   UNL     1      24.426  42.679  44.686  1.00  0.00    -0.326 N 
HETATM   24  H   UNL     1      25.191  43.208  45.085  1.00  0.00     0.169 HD
HETATM   25  O   UNL     1      22.154  42.330  45.043  1.00  0.00    -0.272 OA
BRANCH  23  26
HETATM   26  C   UNL     1      24.758  41.532  43.925  1.00  0.00     0.040 A 
HETATM   27  C   UNL     1      25.211  40.367  44.579  1.00  0.00    -0.035 A 
HETATM   28  C   UNL     1      25.277  40.257  46.078  1.00  0.00     0.050 C 
HETATM   29  C   UNL     1      25.601  39.254  43.810  1.00  0.00     0.009 A 
HETATM   30  C   UNL     1      25.544  39.286  42.419  1.00  0.00     0.001 A 
HETATM   31  C   UNL     1      25.091  40.431  41.776  1.00  0.00     0.002 A 
HETATM   32  C   UNL     1      24.701  41.545  42.524  1.00  0.00     0.030 A 
ENDBRANCH  23  26
ENDBRANCH  21  22
ENDBRANCH  20  21
ENDBRANCH   6  20
BRANCH   2  33
HETATM   33  C   UNL     1      25.934  44.038  52.152  1.00  0.00     0.255 C 
HETATM   34  N   UNL     1      27.309  44.187  52.153  1.00  0.00    -0.323 N 
HETATM   35  H   UNL     1      27.757  44.327  51.256  1.00  0.00     0.169 HD
HETATM   36  O   UNL     1      25.209  43.949  53.131  1.00  0.00    -0.268 OA
BRANCH  34  37
HETATM   37  C   UNL     1      28.187  44.105  53.253  1.00  0.00     0.035 A 
HETATM   38  C   UNL     1      29.111  43.078  53.443  1.00  0.00     0.029 A 
HETATM   39  C   UNL     1      29.958  43.085  54.556  1.00  0.00     0.002 A 
HETATM   40  C   UNL     1      29.895  44.125  55.482  1.00  0.00     0.000 A 
HETATM   41  C   UNL     1      28.979  45.157  55.300  1.00  0.00     0.002 A 
HETATM   42  C   UNL     1      28.124  45.143  54.195  1.00  0.00     0.029 A 
ENDBRANCH  34  37
ENDBRANCH   2  33
TORSDOF 9
ENDMDL
