MODEL 1
REMARK VINA RESULT:     -10.5      0.000      0.000
REMARK  5 active torsions:
REMARK  status: ('A' for Active; 'I' for Inactive)
REMARK    1  A    between atoms: O_2  and  C_3 
REMARK    2  A    between atoms: C_4  and  C_5 
REMARK    3  A    between atoms: C_5  and  C_6 
REMARK       I    between atoms: C_6  and  N_7 
REMARK    4  A    between atoms: N_7  and  C_8 
REMARK    5  A    between atoms: C_9  and  O_10 
ROOT
HETATM    1  C   UNL     1      26.519  46.439  53.635  1.00  0.00     0.071 A 
HETATM    2  C   UNL     1      26.674  47.235  54.786  1.00  0.00     0.096 A 
HETATM    3  C   UNL     1      27.673  46.981  55.736  1.00  0.00     0.054 A 
HETATM    4  C   UNL     1      28.495  45.858  55.554  1.00  0.00     0.014 A 
HETATM    5  C   UNL     1      28.279  45.050  54.442  1.00  0.00     0.089 A 
HETATM    6  O   UNL     1      29.159  44.008  54.437  1.00  0.00    -0.309 OA
HETATM    7  C   UNL     1      29.943  44.141  55.544  1.00  0.00     0.087 A 
HETATM    8  C   UNL     1      29.572  45.266  56.273  1.00  0.00     0.011 A 
HETATM    9  C   UNL     1      30.976  43.281  55.913  1.00  0.00     0.038 A 
HETATM   10  C   UNL     1      31.658  43.590  57.094  1.00  0.00     0.003 A 
HETATM   11  C   UNL     1      31.312  44.709  57.859  1.00  0.00     0.001 A 
HETATM   12  C   UNL     1      30.269  45.558  57.461  1.00  0.00     0.015 A 
HETATM   13  C   UNL     1      27.299  45.286  53.475  1.00  0.00     0.070 A 
ENDROOT
BRANCH   1  14
HETATM   14  N   UNL     1      25.535  46.712  52.659  1.00  0.00    -0.324 N 
HETATM   15  C   UNL     1      25.439  46.034  51.454  1.00  0.00     0.226 C 
HETATM   16  O   UNL     1      25.962  44.946  51.212  1.00  0.00    -0.273 OA
HETATM   17  H   UNL     1      24.712  47.231  52.944  1.00  0.00     0.169 HD
BRANCH  15  18
HETATM   18  C   UNL     1      24.663  46.772  50.383  1.00  0.00     0.144 C 
BRANCH  18  19
HETATM   19  C   UNL     1      25.406  47.872  49.669  1.00  0.00    -0.016 A 
HETATM   20  C   UNL     1      24.730  48.906  49.006  1.00  0.00     0.074 A 
HETATM   21  C   UNL     1      25.430  49.931  48.367  1.00  0.00     0.037 A 
HETATM   22  C   UNL     1      26.822  49.952  48.414  1.00  0.00     0.003 A 
HETATM   23  C   UNL     1      27.511  48.934  49.072  1.00  0.00     0.001 A 
HETATM   24  C   UNL     1      26.808  47.896  49.689  1.00  0.00     0.010 A 
BRANCH  20  25
HETATM   25  O   UNL     1      23.365  48.855  48.902  1.00  0.00    -0.355 OA
HETATM   26  C   UNL     1      22.797  50.146  49.138  1.00  0.00     0.210 C 
ENDBRANCH  20  25
ENDBRANCH  18  19
ENDBRANCH  15  18
ENDBRANCH   1  14
BRANCH   2  27
HETATM   27  O   UNL     1      25.810  48.268  55.073  1.00  0.00    -0.354 OA
HETATM   28  C   UNL     1      26.203  48.912  56.286  1.00  0.00     0.210 C 
ENDBRANCH   2  27
TORSDOF 5
ENDMDL
MODEL 2
REMARK VINA RESULT:      -9.8      2.687      3.866
REMARK  5 active torsions:
REMARK  status: ('A' for Active; 'I' for Inactive)
REMARK    1  A    between atoms: O_2  and  C_3 
REMARK    2  A    between atoms: C_4  and  C_5 
REMARK    3  A    between atoms: C_5  and  C_6 
REMARK       I    between atoms: C_6  and  N_7 
REMARK    4  A    between atoms: N_7  and  C_8 
REMARK    5  A    between atoms: C_9  and  O_10 
ROOT
HETATM    1  C   UNL     1      26.798  46.031  53.475  1.00  0.00     0.071 A 
HETATM    2  C   UNL     1      26.805  46.902  54.581  1.00  0.00     0.096 A 
HETATM    3  C   UNL     1      27.735  46.772  55.622  1.00  0.00     0.054 A 
HETATM    4  C   UNL     1      28.639  45.698  55.578  1.00  0.00     0.014 A 
HETATM    5  C   UNL     1      28.567  44.814  54.507  1.00  0.00     0.089 A 
HETATM    6  O   UNL     1      29.508  43.836  54.638  1.00  0.00    -0.309 OA
HETATM    7  C   UNL     1      30.187  44.086  55.793  1.00  0.00     0.087 A 
HETATM    8  C   UNL     1      29.687  45.223  56.418  1.00  0.00     0.011 A 
HETATM    9  C   UNL     1      31.237  43.320  56.297  1.00  0.00     0.038 A 
HETATM   10  C   UNL     1      31.798  43.743  57.508  1.00  0.00     0.003 A 
HETATM   11  C   UNL     1      31.318  44.878  58.169  1.00  0.00     0.001 A 
HETATM   12  C   UNL     1      30.262  45.630  57.636  1.00  0.00     0.015 A 
HETATM   13  C   UNL     1      27.660  44.926  53.451  1.00  0.00     0.070 A 
ENDROOT
BRANCH   1  14
HETATM   14  N   UNL     1      25.884  46.180  52.408  1.00  0.00    -0.324 N 
HETATM   15  C   UNL     1      24.929  45.232  52.077  1.00  0.00     0.226 C 
HETATM   16  O   UNL     1      24.547  44.326  52.816  1.00  0.00    -0.273 OA
HETATM   17  H   UNL     1      25.736  47.111  52.034  1.00  0.00     0.169 HD
BRANCH  15  18
HETATM   18  C   UNL     1      24.398  45.349  50.662  1.00  0.00     0.144 C 
BRANCH  18  19
HETATM   19  C   UNL     1      24.241  44.053  49.908  1.00  0.00    -0.016 A 
HETATM   20  C   UNL     1      25.344  43.378  49.368  1.00  0.00     0.074 A 
HETATM   21  C   UNL     1      25.188  42.168  48.691  1.00  0.00     0.037 A 
HETATM   22  C   UNL     1      23.922  41.599  48.573  1.00  0.00     0.003 A 
HETATM   23  C   UNL     1      22.813  42.255  49.106  1.00  0.00     0.001 A 
HETATM   24  C   UNL     1      22.969  43.479  49.762  1.00  0.00     0.010 A 
BRANCH  20  25
HETATM   25  O   UNL     1      26.582  43.964  49.426  1.00  0.00    -0.355 OA
HETATM   26  C   UNL     1      27.454  43.209  50.271  1.00  0.00     0.210 C 
ENDBRANCH  20  25
ENDBRANCH  18  19
ENDBRANCH  15  18
ENDBRANCH   1  14
BRANCH   2  27
HETATM   27  O   UNL     1      25.858  47.889  54.732  1.00  0.00    -0.354 OA
HETATM   28  C   UNL     1      26.221  48.756  55.807  1.00  0.00     0.210 C 
ENDBRANCH   2  27
TORSDOF 5
ENDMDL
MODEL 3
REMARK VINA RESULT:      -9.7      1.439      2.714
REMARK  5 active torsions:
REMARK  status: ('A' for Active; 'I' for Inactive)
REMARK    1  A    between atoms: O_2  and  C_3 
REMARK    2  A    between atoms: C_4  and  C_5 
REMARK    3  A    between atoms: C_5  and  C_6 
REMARK       I    between atoms: C_6  and  N_7 
REMARK    4  A    between atoms: N_7  and  C_8 
REMARK    5  A    between atoms: C_9  and  O_10 
ROOT
HETATM    1  C   UNL     1      26.727  44.947  53.036  1.00  0.00     0.071 A 
HETATM    2  C   UNL     1      27.328  43.686  52.858  1.00  0.00     0.096 A 
HETATM    3  C   UNL     1      28.361  43.233  53.690  1.00  0.00     0.054 A 
HETATM    4  C   UNL     1      28.845  44.098  54.684  1.00  0.00     0.014 A 
HETATM    5  C   UNL     1      28.279  45.364  54.795  1.00  0.00     0.089 A 
HETATM    6  O   UNL     1      28.878  46.063  55.801  1.00  0.00    -0.309 OA
HETATM    7  C   UNL     1      29.832  45.252  56.339  1.00  0.00     0.087 A 
HETATM    8  C   UNL     1      29.858  44.026  55.682  1.00  0.00     0.011 A 
HETATM    9  C   UNL     1      30.676  45.585  57.398  1.00  0.00     0.038 A 
HETATM   10  C   UNL     1      31.596  44.609  57.798  1.00  0.00     0.003 A 
HETATM   11  C   UNL     1      31.657  43.367  57.159  1.00  0.00     0.001 A 
HETATM   12  C   UNL     1      30.794  43.060  56.098  1.00  0.00     0.015 A 
HETATM   13  C   UNL     1      27.241  45.837  53.989  1.00  0.00     0.070 A 
ENDROOT
BRANCH   1  14
HETATM   14  N   UNL     1      25.662  45.393  52.222  1.00  0.00    -0.324 N 
HETATM   15  C   UNL     1      25.828  45.854  50.926  1.00  0.00     0.226 C 
HETATM   16  O   UNL     1      26.819  45.651  50.225  1.00  0.00    -0.273 OA
HETATM   17  H   UNL     1      24.719  45.127  52.482  1.00  0.00     0.169 HD
BRANCH  15  18
HETATM   18  C   UNL     1      24.686  46.711  50.417  1.00  0.00     0.144 C 
BRANCH  18  19
HETATM   19  C   UNL     1      25.077  47.900  49.576  1.00  0.00    -0.016 A 
HETATM   20  C   UNL     1      24.123  48.656  48.883  1.00  0.00     0.074 A 
HETATM   21  C   UNL     1      24.495  49.768  48.125  1.00  0.00     0.037 A 
HETATM   22  C   UNL     1      25.832  50.157  48.079  1.00  0.00     0.003 A 
HETATM   23  C   UNL     1      26.795  49.419  48.764  1.00  0.00     0.001 A 
HETATM   24  C   UNL     1      26.422  48.292  49.502  1.00  0.00     0.010 A 
BRANCH  20  25
HETATM   25  O   UNL     1      22.817  48.240  48.874  1.00  0.00    -0.355 OA
HETATM   26  C   UNL     1      21.942  49.334  49.163  1.00  0.00     0.210 C 
ENDBRANCH  20  25
ENDBRANCH  18  19
ENDBRANCH  15  18
ENDBRANCH   1  14
BRANCH   2  27
HETATM   27  O   UNL     1      26.976  42.857  51.818  1.00  0.00    -0.354 OA
HETATM   28  C   UNL     1      28.073  42.008  51.476  1.00  0.00     0.210 C 
ENDBRANCH   2  27
TORSDOF 5
ENDMDL
MODEL 4
REMARK VINA RESULT:      -9.6      2.416      3.893
REMARK  5 active torsions:
REMARK  status: ('A' for Active; 'I' for Inactive)
REMARK    1  A    between atoms: O_2  and  C_3 
REMARK    2  A    between atoms: C_4  and  C_5 
REMARK    3  A    between atoms: C_5  and  C_6 
REMARK       I    between atoms: C_6  and  N_7 
REMARK    4  A    between atoms: N_7  and  C_8 
REMARK    5  A    between atoms: C_9  and  O_10 
ROOT
HETATM    1  C   UNL     1      27.538  44.261  52.536  1.00  0.00     0.071 A 
HETATM    2  C   UNL     1      28.395  43.143  52.524  1.00  0.00     0.096 A 
HETATM    3  C   UNL     1      29.315  42.902  53.554  1.00  0.00     0.054 A 
HETATM    4  C   UNL     1      29.421  43.846  54.587  1.00  0.00     0.014 A 
HETATM    5  C   UNL     1      28.609  44.975  54.541  1.00  0.00     0.089 A 
HETATM    6  O   UNL     1      28.856  45.778  55.615  1.00  0.00    -0.309 OA
HETATM    7  C   UNL     1      29.826  45.171  56.355  1.00  0.00     0.087 A 
HETATM    8  C   UNL     1      30.216  43.975  55.762  1.00  0.00     0.011 A 
HETATM    9  C   UNL     1      30.368  45.664  57.541  1.00  0.00     0.038 A 
HETATM   10  C   UNL     1      31.364  44.889  58.145  1.00  0.00     0.003 A 
HETATM   11  C   UNL     1      31.787  43.683  57.577  1.00  0.00     0.001 A 
HETATM   12  C   UNL     1      31.222  43.212  56.384  1.00  0.00     0.015 A 
HETATM   13  C   UNL     1      27.675  45.234  53.535  1.00  0.00     0.070 A 
ENDROOT
BRANCH   1  14
HETATM   14  N   UNL     1      26.586  44.488  51.518  1.00  0.00    -0.324 N 
HETATM   15  C   UNL     1      25.228  44.254  51.669  1.00  0.00     0.226 C 
HETATM   16  O   UNL     1      24.649  44.129  52.747  1.00  0.00    -0.273 OA
HETATM   17  H   UNL     1      26.850  45.087  50.743  1.00  0.00     0.169 HD
BRANCH  15  18
HETATM   18  C   UNL     1      24.473  44.097  50.365  1.00  0.00     0.144 C 
BRANCH  18  19
HETATM   19  C   UNL     1      23.914  45.365  49.770  1.00  0.00    -0.016 A 
HETATM   20  C   UNL     1      22.869  45.340  48.837  1.00  0.00     0.074 A 
HETATM   21  C   UNL     1      22.345  46.522  48.309  1.00  0.00     0.037 A 
HETATM   22  C   UNL     1      22.843  47.751  48.738  1.00  0.00     0.003 A 
HETATM   23  C   UNL     1      23.881  47.795  49.667  1.00  0.00     0.001 A 
HETATM   24  C   UNL     1      24.419  46.609  50.175  1.00  0.00     0.010 A 
BRANCH  20  25
HETATM   25  O   UNL     1      22.420  44.134  48.365  1.00  0.00    -0.355 OA
HETATM   26  C   UNL     1      22.815  43.951  47.004  1.00  0.00     0.210 C 
ENDBRANCH  20  25
ENDBRANCH  18  19
ENDBRANCH  15  18
ENDBRANCH   1  14
BRANCH   2  27
HETATM   27  O   UNL     1      28.418  42.260  51.468  1.00  0.00    -0.354 OA
HETATM   28  C   UNL     1      27.759  41.046  51.830  1.00  0.00     0.210 C 
ENDBRANCH   2  27
TORSDOF 5
ENDMDL
MODEL 5
REMARK VINA RESULT:      -9.3      4.451      5.961
REMARK  5 active torsions:
REMARK  status: ('A' for Active; 'I' for Inactive)
REMARK    1  A    between atoms: O_2  and  C_3 
REMARK    2  A    between atoms: C_4  and  C_5 
REMARK    3  A    between atoms: C_5  and  C_6 
REMARK       I    between atoms: C_6  and  N_7 
REMARK    4  A    between atoms: N_7  and  C_8 
REMARK    5  A    between atoms: C_9  and  O_10 
ROOT
HETATM    1  C   UNL     1      28.048  43.921  52.138  1.00  0.00     0.071 A 
HETATM    2  C   UNL     1      27.339  44.897  52.866  1.00  0.00     0.096 A 
HETATM    3  C   UNL     1      27.758  45.327  54.133  1.00  0.00     0.054 A 
HETATM    4  C   UNL     1      28.881  44.712  54.708  1.00  0.00     0.014 A 
HETATM    5  C   UNL     1      29.524  43.705  53.996  1.00  0.00     0.089 A 
HETATM    6  O   UNL     1      30.579  43.221  54.711  1.00  0.00    -0.309 OA
HETATM    7  C   UNL     1      30.619  43.913  55.884  1.00  0.00     0.087 A 
HETATM    8  C   UNL     1      29.588  44.845  55.937  1.00  0.00     0.011 A 
HETATM    9  C   UNL     1      31.552  43.728  56.903  1.00  0.00     0.038 A 
HETATM   10  C   UNL     1      31.415  44.539  58.035  1.00  0.00     0.003 A 
HETATM   11  C   UNL     1      30.388  45.483  58.129  1.00  0.00     0.001 A 
HETATM   12  C   UNL     1      29.465  45.648  57.087  1.00  0.00     0.015 A 
HETATM   13  C   UNL     1      29.136  43.265  52.728  1.00  0.00     0.070 A 
ENDROOT
BRANCH   1  14
HETATM   14  N   UNL     1      27.648  43.509  50.847  1.00  0.00    -0.324 N 
HETATM   15  C   UNL     1      26.756  42.475  50.613  1.00  0.00     0.226 C 
HETATM   16  O   UNL     1      25.982  42.007  51.447  1.00  0.00    -0.273 OA
HETATM   17  H   UNL     1      27.803  44.148  50.074  1.00  0.00     0.169 HD
BRANCH  15  18
HETATM   18  C   UNL     1      26.833  41.889  49.218  1.00  0.00     0.144 C 
BRANCH  18  19
HETATM   19  C   UNL     1      27.603  40.600  49.085  1.00  0.00    -0.016 A 
HETATM   20  C   UNL     1      27.746  39.953  47.850  1.00  0.00     0.074 A 
HETATM   21  C   UNL     1      28.481  38.771  47.736  1.00  0.00     0.037 A 
HETATM   22  C   UNL     1      29.113  38.239  48.858  1.00  0.00     0.003 A 
HETATM   23  C   UNL     1      28.984  38.870  50.094  1.00  0.00     0.001 A 
HETATM   24  C   UNL     1      28.227  40.040  50.209  1.00  0.00     0.010 A 
BRANCH  20  25
HETATM   25  O   UNL     1      27.075  40.437  46.758  1.00  0.00    -0.355 OA
HETATM   26  C   UNL     1      27.997  40.925  45.780  1.00  0.00     0.210 C 
ENDBRANCH  20  25
ENDBRANCH  18  19
ENDBRANCH  15  18
ENDBRANCH   1  14
BRANCH   2  27
HETATM   27  O   UNL     1      26.161  45.434  52.399  1.00  0.00    -0.354 OA
HETATM   28  C   UNL     1      26.082  46.817  52.747  1.00  0.00     0.210 C 
ENDBRANCH   2  27
TORSDOF 5
ENDMDL
MODEL 6
REMARK VINA RESULT:      -9.0      2.046      3.659
REMARK  5 active torsions:
REMARK  status: ('A' for Active; 'I' for Inactive)
REMARK    1  A    between atoms: O_2  and  C_3 
REMARK    2  A    between atoms: C_4  and  C_5 
REMARK    3  A    between atoms: C_5  and  C_6 
REMARK       I    between atoms: C_6  and  N_7 
REMARK    4  A    between atoms: N_7  and  C_8 
REMARK    5  A    between atoms: C_9  and  O_10 
ROOT
HETATM    1  C   UNL     1      25.952  45.671  52.210  1.00  0.00     0.071 A 
HETATM    2  C   UNL     1      26.388  44.366  51.911  1.00  0.00     0.096 A 
HETATM    3  C   UNL     1      27.396  43.732  52.652  1.00  0.00     0.054 A 
HETATM    4  C   UNL     1      28.025  44.456  53.677  1.00  0.00     0.014 A 
HETATM    5  C   UNL     1      27.621  45.767  53.908  1.00  0.00     0.089 A 
HETATM    6  O   UNL     1      28.345  46.311  54.927  1.00  0.00    -0.309 OA
HETATM    7  C   UNL     1      29.217  45.356  55.354  1.00  0.00     0.087 A 
HETATM    8  C   UNL     1      29.066  44.189  54.612  1.00  0.00     0.011 A 
HETATM    9  C   UNL     1      30.141  45.505  56.387  1.00  0.00     0.038 A 
HETATM   10  C   UNL     1      30.954  44.401  56.667  1.00  0.00     0.003 A 
HETATM   11  C   UNL     1      30.836  43.213  55.939  1.00  0.00     0.001 A 
HETATM   12  C   UNL     1      29.896  43.091  54.907  1.00  0.00     0.015 A 
HETATM   13  C   UNL     1      26.612  46.418  53.195  1.00  0.00     0.070 A 
ENDROOT
BRANCH   1  14
HETATM   14  N   UNL     1      24.914  46.300  51.487  1.00  0.00    -0.324 N 
HETATM   15  C   UNL     1      25.118  47.023  50.323  1.00  0.00     0.226 C 
HETATM   16  O   UNL     1      26.122  46.956  49.616  1.00  0.00    -0.273 OA
HETATM   17  H   UNL     1      23.961  46.001  51.665  1.00  0.00     0.169 HD
BRANCH  15  18
HETATM   18  C   UNL     1      24.000  47.989  49.985  1.00  0.00     0.144 C 
BRANCH  18  19
HETATM   19  C   UNL     1      22.965  47.486  49.011  1.00  0.00    -0.016 A 
HETATM   20  C   UNL     1      21.910  48.299  48.575  1.00  0.00     0.074 A 
HETATM   21  C   UNL     1      20.970  47.829  47.656  1.00  0.00     0.037 A 
HETATM   22  C   UNL     1      21.097  46.543  47.133  1.00  0.00     0.003 A 
HETATM   23  C   UNL     1      22.143  45.722  47.552  1.00  0.00     0.001 A 
HETATM   24  C   UNL     1      23.067  46.187  48.491  1.00  0.00     0.010 A 
BRANCH  20  25
HETATM   25  O   UNL     1      21.744  49.539  49.134  1.00  0.00    -0.355 OA
HETATM   26  C   UNL     1      21.756  50.549  48.121  1.00  0.00     0.210 C 
ENDBRANCH  20  25
ENDBRANCH  18  19
ENDBRANCH  15  18
ENDBRANCH   1  14
BRANCH   2  27
HETATM   27  O   UNL     1      25.893  43.665  50.835  1.00  0.00    -0.354 OA
HETATM   28  C   UNL     1      26.916  43.486  49.854  1.00  0.00     0.210 C 
ENDBRANCH   2  27
TORSDOF 5
ENDMDL
MODEL 7
REMARK VINA RESULT:      -8.7      2.610      5.589
REMARK  5 active torsions:
REMARK  status: ('A' for Active; 'I' for Inactive)
REMARK    1  A    between atoms: O_2  and  C_3 
REMARK    2  A    between atoms: C_4  and  C_5 
REMARK    3  A    between atoms: C_5  and  C_6 
REMARK       I    between atoms: C_6  and  N_7 
REMARK    4  A    between atoms: N_7  and  C_8 
REMARK    5  A    between atoms: C_9  and  O_10 
ROOT
HETATM    1  C   UNL     1      24.271  46.611  49.911  1.00  0.00     0.071 A 
HETATM    2  C   UNL     1      24.829  45.323  49.789  1.00  0.00     0.096 A 
HETATM    3  C   UNL     1      25.686  44.791  50.762  1.00  0.00     0.054 A 
HETATM    4  C   UNL     1      26.042  45.601  51.852  1.00  0.00     0.014 A 
HETATM    5  C   UNL     1      25.530  46.893  51.914  1.00  0.00     0.089 A 
HETATM    6  O   UNL     1      25.989  47.530  53.029  1.00  0.00    -0.309 OA
HETATM    7  C   UNL     1      26.798  46.653  53.687  1.00  0.00     0.087 A 
HETATM    8  C   UNL     1      26.871  45.446  53.000  1.00  0.00     0.011 A 
HETATM    9  C   UNL     1      27.471  46.910  54.880  1.00  0.00     0.038 A 
HETATM   10  C   UNL     1      28.261  45.875  55.391  1.00  0.00     0.003 A 
HETATM   11  C   UNL     1      28.365  44.649  54.727  1.00  0.00     0.001 A 
HETATM   12  C   UNL     1      27.675  44.418  53.528  1.00  0.00     0.015 A 
HETATM   13  C   UNL     1      24.665  47.444  50.966  1.00  0.00     0.070 A 
ENDROOT
BRANCH   1  14
HETATM   14  N   UNL     1      23.380  47.137  48.949  1.00  0.00    -0.324 N 
HETATM   15  C   UNL     1      22.838  48.410  49.020  1.00  0.00     0.226 C 
HETATM   16  O   UNL     1      23.276  49.327  49.714  1.00  0.00    -0.273 OA
HETATM   17  H   UNL     1      23.336  46.684  48.042  1.00  0.00     0.169 HD
BRANCH  15  18
HETATM   18  C   UNL     1      21.579  48.599  48.197  1.00  0.00     0.144 C 
BRANCH  18  19
HETATM   19  C   UNL     1      20.652  49.698  48.653  1.00  0.00    -0.016 A 
HETATM   20  C   UNL     1      19.634  49.461  49.586  1.00  0.00     0.074 A 
HETATM   21  C   UNL     1      18.797  50.491  50.017  1.00  0.00     0.037 A 
HETATM   22  C   UNL     1      18.991  51.785  49.539  1.00  0.00     0.003 A 
HETATM   23  C   UNL     1      20.000  52.041  48.612  1.00  0.00     0.001 A 
HETATM   24  C   UNL     1      20.821  51.002  48.165  1.00  0.00     0.010 A 
BRANCH  20  25
HETATM   25  O   UNL     1      19.400  48.179  50.010  1.00  0.00    -0.355 OA
HETATM   26  C   UNL     1      18.199  47.670  49.424  1.00  0.00     0.210 C 
ENDBRANCH  20  25
ENDBRANCH  18  19
ENDBRANCH  15  18
ENDBRANCH   1  14
BRANCH   2  27
HETATM   27  O   UNL     1      24.613  44.543  48.676  1.00  0.00    -0.354 OA
HETATM   28  C   UNL     1      23.798  43.420  49.017  1.00  0.00     0.210 C 
ENDBRANCH   2  27
TORSDOF 5
ENDMDL
MODEL 8
REMARK VINA RESULT:      -8.5      4.350      9.786
REMARK  5 active torsions:
REMARK  status: ('A' for Active; 'I' for Inactive)
REMARK    1  A    between atoms: O_2  and  C_3 
REMARK    2  A    between atoms: C_4  and  C_5 
REMARK    3  A    between atoms: C_5  and  C_6 
REMARK       I    between atoms: C_6  and  N_7 
REMARK    4  A    between atoms: N_7  and  C_8 
REMARK    5  A    between atoms: C_9  and  O_10 
ROOT
HETATM    1  C   UNL     1      23.182  48.375  48.729  1.00  0.00     0.071 A 
HETATM    2  C   UNL     1      23.407  49.599  48.069  1.00  0.00     0.096 A 
HETATM    3  C   UNL     1      22.438  50.612  48.034  1.00  0.00     0.054 A 
HETATM    4  C   UNL     1      21.189  50.360  48.622  1.00  0.00     0.014 A 
HETATM    5  C   UNL     1      20.970  49.118  49.209  1.00  0.00     0.089 A 
HETATM    6  O   UNL     1      19.705  49.051  49.715  1.00  0.00    -0.309 OA
HETATM    7  C   UNL     1      19.106  50.247  49.455  1.00  0.00     0.087 A 
HETATM    8  C   UNL     1      19.977  51.092  48.776  1.00  0.00     0.011 A 
HETATM    9  C   UNL     1      17.803  50.594  49.809  1.00  0.00     0.038 A 
HETATM   10  C   UNL     1      17.373  51.874  49.442  1.00  0.00     0.003 A 
HETATM   11  C   UNL     1      18.217  52.751  48.753  1.00  0.00     0.001 A 
HETATM   12  C   UNL     1      19.524  52.375  48.412  1.00  0.00     0.015 A 
HETATM   13  C   UNL     1      21.920  48.096  49.269  1.00  0.00     0.070 A 
ENDROOT
BRANCH   1  14
HETATM   14  N   UNL     1      24.168  47.366  48.796  1.00  0.00    -0.324 N 
HETATM   15  C   UNL     1      24.982  47.159  49.898  1.00  0.00     0.226 C 
HETATM   16  O   UNL     1      24.760  47.586  51.030  1.00  0.00    -0.273 OA
HETATM   17  H   UNL     1      24.110  46.599  48.135  1.00  0.00     0.169 HD
BRANCH  15  18
HETATM   18  C   UNL     1      26.251  46.385  49.600  1.00  0.00     0.144 C 
BRANCH  18  19
HETATM   19  C   UNL     1      26.276  44.953  50.071  1.00  0.00    -0.016 A 
HETATM   20  C   UNL     1      25.435  43.981  49.514  1.00  0.00     0.074 A 
HETATM   21  C   UNL     1      25.483  42.654  49.943  1.00  0.00     0.037 A 
HETATM   22  C   UNL     1      26.404  42.275  50.918  1.00  0.00     0.003 A 
HETATM   23  C   UNL     1      27.250  43.228  51.482  1.00  0.00     0.001 A 
HETATM   24  C   UNL     1      27.182  44.561  51.068  1.00  0.00     0.010 A 
BRANCH  20  25
HETATM   25  O   UNL     1      24.486  44.360  48.600  1.00  0.00    -0.355 OA
HETATM   26  C   UNL     1      23.927  43.214  47.955  1.00  0.00     0.210 C 
ENDBRANCH  20  25
ENDBRANCH  18  19
ENDBRANCH  15  18
ENDBRANCH   1  14
BRANCH   2  27
HETATM   27  O   UNL     1      24.567  49.842  47.369  1.00  0.00    -0.354 OA
HETATM   28  C   UNL     1      25.593  50.281  48.260  1.00  0.00     0.210 C 
ENDBRANCH   2  27
TORSDOF 5
ENDMDL
MODEL 9
REMARK VINA RESULT:      -8.5      3.558      5.242
REMARK  5 active torsions:
REMARK  status: ('A' for Active; 'I' for Inactive)
REMARK    1  A    between atoms: O_2  and  C_3 
REMARK    2  A    between atoms: C_4  and  C_5 
REMARK    3  A    between atoms: C_5  and  C_6 
REMARK       I    between atoms: C_6  and  N_7 
REMARK    4  A    between atoms: N_7  and  C_8 
REMARK    5  A    between atoms: C_9  and  O_10 
ROOT
HETATM    1  C   UNL     1      25.802  43.763  51.627  1.00  0.00     0.071 A 
HETATM    2  C   UNL     1      26.760  42.749  51.438  1.00  0.00     0.096 A 
HETATM    3  C   UNL     1      27.887  42.628  52.264  1.00  0.00     0.054 A 
HETATM    4  C   UNL     1      28.086  43.594  53.263  1.00  0.00     0.014 A 
HETATM    5  C   UNL     1      27.160  44.624  53.386  1.00  0.00     0.089 A 
HETATM    6  O   UNL     1      27.521  45.466  54.396  1.00  0.00    -0.309 OA
HETATM    7  C   UNL     1      28.680  44.983  54.926  1.00  0.00     0.087 A 
HETATM    8  C   UNL     1      29.077  43.829  54.259  1.00  0.00     0.011 A 
HETATM    9  C   UNL     1      29.386  45.551  55.985  1.00  0.00     0.038 A 
HETATM   10  C   UNL     1      30.562  44.902  56.375  1.00  0.00     0.003 A 
HETATM   11  C   UNL     1      30.999  43.743  55.726  1.00  0.00     0.001 A 
HETATM   12  C   UNL     1      30.266  43.193  54.664  1.00  0.00     0.015 A 
HETATM   13  C   UNL     1      26.023  44.761  52.587  1.00  0.00     0.070 A 
ENDROOT
BRANCH   1  14
HETATM   14  N   UNL     1      24.648  43.867  50.819  1.00  0.00    -0.324 N 
HETATM   15  C   UNL     1      24.530  44.753  49.760  1.00  0.00     0.226 C 
HETATM   16  O   UNL     1      25.471  45.315  49.201  1.00  0.00    -0.273 OA
HETATM   17  H   UNL     1      23.985  43.100  50.834  1.00  0.00     0.169 HD
BRANCH  15  18
HETATM   18  C   UNL     1      23.101  45.046  49.348  1.00  0.00     0.144 C 
BRANCH  18  19
HETATM   19  C   UNL     1      22.685  44.523  47.996  1.00  0.00    -0.016 A 
HETATM   20  C   UNL     1      22.458  43.159  47.773  1.00  0.00     0.074 A 
HETATM   21  C   UNL     1      22.051  42.690  46.523  1.00  0.00     0.037 A 
HETATM   22  C   UNL     1      21.833  43.592  45.483  1.00  0.00     0.003 A 
HETATM   23  C   UNL     1      22.050  44.954  45.687  1.00  0.00     0.001 A 
HETATM   24  C   UNL     1      22.481  45.417  46.934  1.00  0.00     0.010 A 
BRANCH  20  25
HETATM   25  O   UNL     1      22.732  42.262  48.772  1.00  0.00    -0.355 OA
HETATM   26  C   UNL     1      23.543  41.194  48.277  1.00  0.00     0.210 C 
ENDBRANCH  20  25
ENDBRANCH  18  19
ENDBRANCH  15  18
ENDBRANCH   1  14
BRANCH   2  27
HETATM   27  O   UNL     1      26.675  41.858  50.392  1.00  0.00    -0.354 OA
HETATM   28  C   UNL     1      26.170  40.605  50.855  1.00  0.00     0.210 C 
ENDBRANCH   2  27
TORSDOF 5
ENDMDL
MODEL 10
REMARK VINA RESULT:      -8.4      6.038      9.795
REMARK  5 active torsions:
REMARK  status: ('A' for Active; 'I' for Inactive)
REMARK    1  A    between atoms: O_2  and  C_3 
REMARK    2  A    between atoms: C_4  and  C_5 
REMARK    3  A    between atoms: C_5  and  C_6 
REMARK       I    between atoms: C_6  and  N_7 
REMARK    4  A    between atoms: N_7  and  C_8 
REMARK    5  A    between atoms: C_9  and  O_10 
ROOT
HETATM    1  C   UNL     1      20.759  50.222  47.719  1.00  0.00     0.071 A 
HETATM    2  C   UNL     1      20.702  49.056  48.508  1.00  0.00     0.096 A 
HETATM    3  C   UNL     1      21.855  48.465  49.043  1.00  0.00     0.054 A 
HETATM    4  C   UNL     1      23.101  49.025  48.721  1.00  0.00     0.014 A 
HETATM    5  C   UNL     1      23.134  50.137  47.886  1.00  0.00     0.089 A 
HETATM    6  O   UNL     1      24.422  50.533  47.678  1.00  0.00    -0.309 OA
HETATM    7  C   UNL     1      25.222  49.678  48.375  1.00  0.00     0.087 A 
HETATM    8  C   UNL     1      24.457  48.722  49.035  1.00  0.00     0.011 A 
HETATM    9  C   UNL     1      26.613  49.735  48.432  1.00  0.00     0.038 A 
HETATM   10  C   UNL     1      27.251  48.756  49.201  1.00  0.00     0.003 A 
HETATM   11  C   UNL     1      26.517  47.774  49.875  1.00  0.00     0.001 A 
HETATM   12  C   UNL     1      25.118  47.743  49.802  1.00  0.00     0.015 A 
HETATM   13  C   UNL     1      22.001  50.754  47.350  1.00  0.00     0.070 A 
ENDROOT
BRANCH   1  14
HETATM   14  N   UNL     1      19.596  50.839  47.207  1.00  0.00    -0.324 N 
HETATM   15  C   UNL     1      18.845  51.767  47.911  1.00  0.00     0.226 C 
HETATM   16  O   UNL     1      19.237  52.391  48.897  1.00  0.00    -0.273 OA
HETATM   17  H   UNL     1      19.446  50.814  46.204  1.00  0.00     0.169 HD
BRANCH  15  18
HETATM   18  C   UNL     1      17.427  51.935  47.405  1.00  0.00     0.144 C 
BRANCH  18  19
HETATM   19  C   UNL     1      16.652  50.661  47.179  1.00  0.00    -0.016 A 
HETATM   20  C   UNL     1      16.374  50.190  45.889  1.00  0.00     0.074 A 
HETATM   21  C   UNL     1      15.675  48.998  45.692  1.00  0.00     0.037 A 
HETATM   22  C   UNL     1      15.273  48.242  46.792  1.00  0.00     0.003 A 
HETATM   23  C   UNL     1      15.544  48.693  48.082  1.00  0.00     0.001 A 
HETATM   24  C   UNL     1      16.222  49.900  48.276  1.00  0.00     0.010 A 
BRANCH  20  25
HETATM   25  O   UNL     1      16.710  50.960  44.807  1.00  0.00    -0.355 OA
HETATM   26  C   UNL     1      15.566  51.192  43.982  1.00  0.00     0.210 C 
ENDBRANCH  20  25
ENDBRANCH  18  19
ENDBRANCH  15  18
ENDBRANCH   1  14
BRANCH   2  27
HETATM   27  O   UNL     1      19.516  48.398  48.742  1.00  0.00    -0.354 OA
HETATM   28  C   UNL     1      19.095  48.613  50.090  1.00  0.00     0.210 C 
ENDBRANCH   2  27
TORSDOF 5
ENDMDL
