MODEL 1
REMARK VINA RESULT:     -10.2      0.000      0.000
REMARK  5 active torsions:
REMARK  status: ('A' for Active; 'I' for Inactive)
REMARK    1  A    between atoms: C_4  and  C_5 
REMARK       I    between atoms: N_6  and  C_7 
REMARK    2  A    between atoms: C_7  and  C_8 
REMARK    3  A    between atoms: C_8  and  C_9 
REMARK    4  A    between atoms: C_11  and  O_12 
REMARK    5  A    between atoms: C_14  and  O_15 
ROOT
HETATM    1  C   UNL     1      24.843  46.265  50.353  1.00  0.00     0.189 C 
HETATM    2  N   UNL     1      25.821  45.306  50.923  1.00  0.00    -0.336 N 
HETATM    3  C   UNL     1      25.956  45.259  52.298  1.00  0.00     0.225 C 
HETATM    4  O   UNL     1      25.520  46.152  53.030  1.00  0.00    -0.273 OA
HETATM    5  C   UNL     1      26.532  44.437  49.959  1.00  0.00     0.132 C 
HETATM    6  C   UNL     1      25.576  43.492  49.215  1.00  0.00     0.061 C 
HETATM    7  C   UNL     1      24.326  44.213  48.846  1.00  0.00    -0.019 A 
HETATM    8  C   UNL     1      24.015  45.456  49.373  1.00  0.00     0.046 A 
HETATM    9  N   UNL     1      22.759  45.784  48.930  1.00  0.00    -0.356 N 
HETATM   10  H   UNL     1      22.235  46.606  49.189  1.00  0.00     0.166 HD
HETATM   11  C   UNL     1      22.272  44.795  48.102  1.00  0.00     0.043 A 
HETATM   12  C   UNL     1      23.244  43.795  48.028  1.00  0.00    -0.001 A 
HETATM   13  C   UNL     1      21.045  44.703  47.435  1.00  0.00     0.030 A 
HETATM   14  C   UNL     1      20.808  43.555  46.671  1.00  0.00     0.002 A 
HETATM   15  C   UNL     1      21.760  42.543  46.578  1.00  0.00     0.001 A 
HETATM   16  C   UNL     1      22.981  42.649  47.253  1.00  0.00     0.014 A 
ENDROOT
BRANCH   1  17
HETATM   17  C   UNL     1      25.468  47.538  49.755  1.00  0.00     0.063 A 
HETATM   18  N   UNL     1      24.671  48.463  49.149  1.00  0.00    -0.256 NA
HETATM   19  C   UNL     1      25.253  49.556  48.597  1.00  0.00     0.031 A 
HETATM   20  C   UNL     1      24.363  50.533  47.890  1.00  0.00     0.070 C 
HETATM   21  C   UNL     1      26.624  49.780  48.635  1.00  0.00     0.027 A 
HETATM   22  C   UNL     1      27.434  48.842  49.254  1.00  0.00     0.004 A 
HETATM   23  C   UNL     1      26.856  47.705  49.809  1.00  0.00     0.030 A 
ENDBRANCH   1  17
BRANCH   3  24
HETATM   24  C   UNL     1      26.532  43.995  52.915  1.00  0.00     0.141 C 
BRANCH  24  25
HETATM   25  C   UNL     1      27.764  44.098  53.783  1.00  0.00    -0.047 A 
HETATM   26  C   UNL     1      27.986  45.119  54.715  1.00  0.00     0.047 A 
HETATM   27  C   UNL     1      29.187  45.175  55.441  1.00  0.00     0.102 A 
HETATM   28  C   UNL     1      30.167  44.179  55.262  1.00  0.00     0.101 A 
HETATM   29  C   UNL     1      29.932  43.144  54.359  1.00  0.00     0.040 A 
HETATM   30  C   UNL     1      28.747  43.109  53.623  1.00  0.00     0.010 A 
BRANCH  27  31
HETATM   31  O   UNL     1      29.487  46.156  56.355  1.00  0.00    -0.353 OA
HETATM   32  C   UNL     1      28.762  46.133  57.577  1.00  0.00     0.210 C 
ENDBRANCH  27  31
BRANCH  28  33
HETATM   33  O   UNL     1      31.312  44.308  56.011  1.00  0.00    -0.353 OA
HETATM   34  C   UNL     1      31.524  43.359  57.047  1.00  0.00     0.210 C 
ENDBRANCH  28  33
ENDBRANCH  24  25
ENDBRANCH   3  24
TORSDOF 5
ENDMDL
MODEL 2
REMARK VINA RESULT:      -9.9      6.447     11.917
REMARK  5 active torsions:
REMARK  status: ('A' for Active; 'I' for Inactive)
REMARK    1  A    between atoms: C_4  and  C_5 
REMARK       I    between atoms: N_6  and  C_7 
REMARK    2  A    between atoms: C_7  and  C_8 
REMARK    3  A    between atoms: C_8  and  C_9 
REMARK    4  A    between atoms: C_11  and  O_12 
REMARK    5  A    between atoms: C_14  and  O_15 
ROOT
HETATM    1  C   UNL     1      20.469  48.511  49.406  1.00  0.00     0.189 C 
HETATM    2  N   UNL     1      19.838  49.796  49.016  1.00  0.00    -0.336 N 
HETATM    3  C   UNL     1      18.964  50.385  49.912  1.00  0.00     0.225 C 
HETATM    4  O   UNL     1      18.484  49.764  50.863  1.00  0.00    -0.273 OA
HETATM    5  C   UNL     1      20.249  50.365  47.714  1.00  0.00     0.132 C 
HETATM    6  C   UNL     1      21.740  50.737  47.688  1.00  0.00     0.061 C 
HETATM    7  C   UNL     1      22.542  49.685  48.371  1.00  0.00    -0.019 A 
HETATM    8  C   UNL     1      21.951  48.697  49.141  1.00  0.00     0.046 A 
HETATM    9  N   UNL     1      22.961  47.971  49.719  1.00  0.00    -0.356 N 
HETATM   10  H   UNL     1      22.846  47.217  50.380  1.00  0.00     0.166 HD
HETATM   11  C   UNL     1      24.187  48.449  49.308  1.00  0.00     0.043 A 
HETATM   12  C   UNL     1      23.951  49.526  48.453  1.00  0.00    -0.001 A 
HETATM   13  C   UNL     1      25.478  48.023  49.644  1.00  0.00     0.030 A 
HETATM   14  C   UNL     1      26.555  48.721  49.086  1.00  0.00     0.002 A 
HETATM   15  C   UNL     1      26.348  49.799  48.229  1.00  0.00     0.001 A 
HETATM   16  C   UNL     1      25.051  50.213  47.905  1.00  0.00     0.014 A 
ENDROOT
BRANCH   1  17
HETATM   17  C   UNL     1      19.857  47.267  48.735  1.00  0.00     0.063 A 
HETATM   18  N   UNL     1      20.675  46.306  48.220  1.00  0.00    -0.256 NA
HETATM   19  C   UNL     1      20.109  45.240  47.601  1.00  0.00     0.031 A 
HETATM   20  C   UNL     1      21.027  44.221  46.997  1.00  0.00     0.070 C 
HETATM   21  C   UNL     1      18.733  45.081  47.481  1.00  0.00     0.027 A 
HETATM   22  C   UNL     1      17.903  46.057  48.008  1.00  0.00     0.004 A 
HETATM   23  C   UNL     1      18.466  47.166  48.630  1.00  0.00     0.030 A 
ENDBRANCH   1  17
BRANCH   3  24
HETATM   24  C   UNL     1      18.714  51.878  49.784  1.00  0.00     0.141 C 
BRANCH  24  25
HETATM   25  C   UNL     1      17.390  52.357  49.236  1.00  0.00    -0.047 A 
HETATM   26  C   UNL     1      16.908  52.043  47.959  1.00  0.00     0.047 A 
HETATM   27  C   UNL     1      15.693  52.578  47.502  1.00  0.00     0.102 A 
HETATM   28  C   UNL     1      14.927  53.410  48.343  1.00  0.00     0.101 A 
HETATM   29  C   UNL     1      15.390  53.696  49.627  1.00  0.00     0.040 A 
HETATM   30  C   UNL     1      16.611  53.180  50.064  1.00  0.00     0.010 A 
BRANCH  27  31
HETATM   31  O   UNL     1      15.166  52.334  46.257  1.00  0.00    -0.353 OA
HETATM   32  C   UNL     1      15.823  52.946  45.156  1.00  0.00     0.210 C 
ENDBRANCH  27  31
BRANCH  28  33
HETATM   33  O   UNL     1      13.751  53.890  47.820  1.00  0.00    -0.353 OA
HETATM   34  C   UNL     1      13.682  55.281  47.538  1.00  0.00     0.210 C 
ENDBRANCH  28  33
ENDBRANCH  24  25
ENDBRANCH   3  24
TORSDOF 5
ENDMDL
MODEL 3
REMARK VINA RESULT:      -9.4      1.958      2.760
REMARK  5 active torsions:
REMARK  status: ('A' for Active; 'I' for Inactive)
REMARK    1  A    between atoms: C_4  and  C_5 
REMARK       I    between atoms: N_6  and  C_7 
REMARK    2  A    between atoms: C_7  and  C_8 
REMARK    3  A    between atoms: C_8  and  C_9 
REMARK    4  A    between atoms: C_11  and  O_12 
REMARK    5  A    between atoms: C_14  and  O_15 
ROOT
HETATM    1  C   UNL     1      24.425  43.884  50.596  1.00  0.00     0.189 C 
HETATM    2  N   UNL     1      25.805  43.755  51.124  1.00  0.00    -0.336 N 
HETATM    3  C   UNL     1      25.972  43.719  52.497  1.00  0.00     0.225 C 
HETATM    4  O   UNL     1      25.079  44.067  53.275  1.00  0.00    -0.273 OA
HETATM    5  C   UNL     1      26.886  43.620  50.123  1.00  0.00     0.132 C 
HETATM    6  C   UNL     1      26.754  42.330  49.298  1.00  0.00     0.061 C 
HETATM    7  C   UNL     1      25.327  42.090  48.948  1.00  0.00    -0.019 A 
HETATM    8  C   UNL     1      24.296  42.797  49.546  1.00  0.00     0.046 A 
HETATM    9  N   UNL     1      23.118  42.259  49.097  1.00  0.00    -0.356 N 
HETATM   10  H   UNL     1      22.192  42.526  49.397  1.00  0.00     0.166 HD
HETATM   11  C   UNL     1      23.369  41.246  48.196  1.00  0.00     0.043 A 
HETATM   12  C   UNL     1      24.754  41.124  48.080  1.00  0.00    -0.001 A 
HETATM   13  C   UNL     1      22.479  40.423  47.497  1.00  0.00     0.030 A 
HETATM   14  C   UNL     1      23.024  39.447  46.654  1.00  0.00     0.002 A 
HETATM   15  C   UNL     1      24.403  39.304  46.518  1.00  0.00     0.001 A 
HETATM   16  C   UNL     1      25.279  40.134  47.226  1.00  0.00     0.014 A 
ENDROOT
BRANCH   1  17
HETATM   17  C   UNL     1      24.059  45.294  50.096  1.00  0.00     0.063 A 
HETATM   18  N   UNL     1      23.113  45.443  49.126  1.00  0.00    -0.256 NA
HETATM   19  C   UNL     1      22.839  46.693  48.678  1.00  0.00     0.031 A 
HETATM   20  C   UNL     1      21.833  46.829  47.575  1.00  0.00     0.070 C 
HETATM   21  C   UNL     1      23.470  47.828  49.174  1.00  0.00     0.027 A 
HETATM   22  C   UNL     1      24.430  47.675  50.162  1.00  0.00     0.004 A 
HETATM   23  C   UNL     1      24.737  46.399  50.621  1.00  0.00     0.030 A 
ENDBRANCH   1  17
BRANCH   3  24
HETATM   24  C   UNL     1      27.245  43.095  53.043  1.00  0.00     0.141 C 
BRANCH  24  25
HETATM   25  C   UNL     1      28.048  43.850  54.076  1.00  0.00    -0.047 A 
HETATM   26  C   UNL     1      27.642  45.058  54.659  1.00  0.00     0.047 A 
HETATM   27  C   UNL     1      28.476  45.728  55.569  1.00  0.00     0.102 A 
HETATM   28  C   UNL     1      29.718  45.170  55.931  1.00  0.00     0.101 A 
HETATM   29  C   UNL     1      30.108  43.952  55.377  1.00  0.00     0.040 A 
HETATM   30  C   UNL     1      29.285  43.304  54.455  1.00  0.00     0.010 A 
BRANCH  27  31
HETATM   31  O   UNL     1      28.157  46.924  56.165  1.00  0.00    -0.353 OA
HETATM   32  C   UNL     1      27.128  47.688  55.552  1.00  0.00     0.210 C 
ENDBRANCH  27  31
BRANCH  28  33
HETATM   33  O   UNL     1      30.471  45.889  56.827  1.00  0.00    -0.353 OA
HETATM   34  C   UNL     1      30.757  45.278  58.077  1.00  0.00     0.210 C 
ENDBRANCH  28  33
ENDBRANCH  24  25
ENDBRANCH   3  24
TORSDOF 5
ENDMDL
MODEL 4
REMARK VINA RESULT:      -9.3      6.172     11.495
REMARK  5 active torsions:
REMARK  status: ('A' for Active; 'I' for Inactive)
REMARK    1  A    between atoms: C_4  and  C_5 
REMARK       I    between atoms: N_6  and  C_7 
REMARK    2  A    between atoms: C_7  and  C_8 
REMARK    3  A    between atoms: C_8  and  C_9 
REMARK    4  A    between atoms: C_11  and  O_12 
REMARK    5  A    between atoms: C_14  and  O_15 
ROOT
HETATM    1  C   UNL     1      21.016  48.286  49.267  1.00  0.00     0.189 C 
HETATM    2  N   UNL     1      20.410  49.577  48.862  1.00  0.00    -0.336 N 
HETATM    3  C   UNL     1      19.461  50.137  49.699  1.00  0.00     0.225 C 
HETATM    4  O   UNL     1      18.911  49.488  50.592  1.00  0.00    -0.273 OA
HETATM    5  C   UNL     1      20.920  50.184  47.613  1.00  0.00     0.132 C 
HETATM    6  C   UNL     1      22.405  50.564  47.717  1.00  0.00     0.061 C 
HETATM    7  C   UNL     1      23.157  49.498  48.435  1.00  0.00    -0.019 A 
HETATM    8  C   UNL     1      22.514  48.487  49.128  1.00  0.00     0.046 A 
HETATM    9  N   UNL     1      23.478  47.751  49.766  1.00  0.00    -0.356 N 
HETATM   10  H   UNL     1      23.316  46.978  50.395  1.00  0.00     0.166 HD
HETATM   11  C   UNL     1      24.730  48.246  49.468  1.00  0.00     0.043 A 
HETATM   12  C   UNL     1      24.556  49.345  48.626  1.00  0.00    -0.001 A 
HETATM   13  C   UNL     1      25.993  47.818  49.896  1.00  0.00     0.030 A 
HETATM   14  C   UNL     1      27.107  48.536  49.447  1.00  0.00     0.002 A 
HETATM   15  C   UNL     1      26.962  49.636  48.604  1.00  0.00     0.001 A 
HETATM   16  C   UNL     1      25.692  50.052  48.188  1.00  0.00     0.014 A 
ENDROOT
BRANCH   1  17
HETATM   17  C   UNL     1      20.470  47.057  48.515  1.00  0.00     0.063 A 
HETATM   18  N   UNL     1      19.190  47.065  48.048  1.00  0.00    -0.256 NA
HETATM   19  C   UNL     1      18.723  45.955  47.424  1.00  0.00     0.031 A 
HETATM   20  C   UNL     1      17.297  45.965  46.965  1.00  0.00     0.070 C 
HETATM   21  C   UNL     1      19.499  44.817  47.229  1.00  0.00     0.027 A 
HETATM   22  C   UNL     1      20.801  44.812  47.701  1.00  0.00     0.004 A 
HETATM   23  C   UNL     1      21.290  45.935  48.360  1.00  0.00     0.030 A 
ENDBRANCH   1  17
BRANCH   3  24
HETATM   24  C   UNL     1      19.211  51.632  49.591  1.00  0.00     0.141 C 
BRANCH  24  25
HETATM   25  C   UNL     1      17.914  52.118  48.989  1.00  0.00    -0.047 A 
HETATM   26  C   UNL     1      16.965  52.884  49.679  1.00  0.00     0.047 A 
HETATM   27  C   UNL     1      15.754  53.244  49.065  1.00  0.00     0.102 A 
HETATM   28  C   UNL     1      15.499  52.868  47.732  1.00  0.00     0.101 A 
HETATM   29  C   UNL     1      16.457  52.133  47.034  1.00  0.00     0.040 A 
HETATM   30  C   UNL     1      17.647  51.758  47.659  1.00  0.00     0.010 A 
BRANCH  27  31
HETATM   31  O   UNL     1      14.768  53.975  49.683  1.00  0.00    -0.353 OA
HETATM   32  C   UNL     1      14.472  53.636  51.030  1.00  0.00     0.210 C 
ENDBRANCH  27  31
BRANCH  28  33
HETATM   33  O   UNL     1      14.292  53.262  47.207  1.00  0.00    -0.353 OA
HETATM   34  C   UNL     1      14.322  54.087  46.051  1.00  0.00     0.210 C 
ENDBRANCH  28  33
ENDBRANCH  24  25
ENDBRANCH   3  24
TORSDOF 5
ENDMDL
MODEL 5
REMARK VINA RESULT:      -9.0      3.519      8.059
REMARK  5 active torsions:
REMARK  status: ('A' for Active; 'I' for Inactive)
REMARK    1  A    between atoms: C_4  and  C_5 
REMARK       I    between atoms: N_6  and  C_7 
REMARK    2  A    between atoms: C_7  and  C_8 
REMARK    3  A    between atoms: C_8  and  C_9 
REMARK    4  A    between atoms: C_11  and  O_12 
REMARK    5  A    between atoms: C_14  and  O_15 
ROOT
HETATM    1  C   UNL     1      27.166  43.480  50.650  1.00  0.00     0.189 C 
HETATM    2  N   UNL     1      25.752  43.758  50.298  1.00  0.00    -0.336 N 
HETATM    3  C   UNL     1      25.494  44.820  49.450  1.00  0.00     0.225 C 
HETATM    4  O   UNL     1      26.337  45.690  49.213  1.00  0.00    -0.273 OA
HETATM    5  C   UNL     1      24.739  42.830  50.847  1.00  0.00     0.132 C 
HETATM    6  C   UNL     1      24.911  41.401  50.311  1.00  0.00     0.061 C 
HETATM    7  C   UNL     1      26.355  41.043  50.260  1.00  0.00    -0.019 A 
HETATM    8  C   UNL     1      27.352  41.993  50.411  1.00  0.00     0.046 A 
HETATM    9  N   UNL     1      28.551  41.365  50.194  1.00  0.00    -0.356 N 
HETATM   10  H   UNL     1      29.458  41.808  50.181  1.00  0.00     0.166 HD
HETATM   11  C   UNL     1      28.349  40.025  49.944  1.00  0.00     0.043 A 
HETATM   12  C   UNL     1      26.973  39.794  49.985  1.00  0.00    -0.001 A 
HETATM   13  C   UNL     1      29.274  39.012  49.666  1.00  0.00     0.030 A 
HETATM   14  C   UNL     1      28.774  37.727  49.424  1.00  0.00     0.002 A 
HETATM   15  C   UNL     1      27.406  37.469  49.461  1.00  0.00     0.001 A 
HETATM   16  C   UNL     1      26.495  38.494  49.738  1.00  0.00     0.014 A 
ENDROOT
BRANCH   1  17
HETATM   17  C   UNL     1      27.581  43.951  52.056  1.00  0.00     0.063 A 
HETATM   18  N   UNL     1      28.655  43.381  52.671  1.00  0.00    -0.256 NA
HETATM   19  C   UNL     1      28.974  43.789  53.925  1.00  0.00     0.031 A 
HETATM   20  C   UNL     1      30.127  43.112  54.602  1.00  0.00     0.070 C 
HETATM   21  C   UNL     1      28.262  44.772  54.602  1.00  0.00     0.027 A 
HETATM   22  C   UNL     1      27.172  45.354  53.974  1.00  0.00     0.004 A 
HETATM   23  C   UNL     1      26.819  44.934  52.696  1.00  0.00     0.030 A 
ENDBRANCH   1  17
BRANCH   3  24
HETATM   24  C   UNL     1      24.180  44.818  48.687  1.00  0.00     0.141 C 
BRANCH  24  25
HETATM   25  C   UNL     1      23.282  46.031  48.768  1.00  0.00    -0.047 A 
HETATM   26  C   UNL     1      23.714  47.304  49.163  1.00  0.00     0.047 A 
HETATM   27  C   UNL     1      22.802  48.366  49.270  1.00  0.00     0.102 A 
HETATM   28  C   UNL     1      21.445  48.167  48.946  1.00  0.00     0.101 A 
HETATM   29  C   UNL     1      21.021  46.909  48.522  1.00  0.00     0.040 A 
HETATM   30  C   UNL     1      21.929  45.852  48.441  1.00  0.00     0.010 A 
BRANCH  27  31
HETATM   31  O   UNL     1      23.144  49.635  49.671  1.00  0.00    -0.353 OA
HETATM   32  C   UNL     1      23.886  50.417  48.745  1.00  0.00     0.210 C 
ENDBRANCH  27  31
BRANCH  28  33
HETATM   33  O   UNL     1      20.620  49.258  49.078  1.00  0.00    -0.353 OA
HETATM   34  C   UNL     1      19.529  49.146  49.980  1.00  0.00     0.210 C 
ENDBRANCH  28  33
ENDBRANCH  24  25
ENDBRANCH   3  24
TORSDOF 5
ENDMDL
MODEL 6
REMARK VINA RESULT:      -8.9      3.546      8.219
REMARK  5 active torsions:
REMARK  status: ('A' for Active; 'I' for Inactive)
REMARK    1  A    between atoms: C_4  and  C_5 
REMARK       I    between atoms: N_6  and  C_7 
REMARK    2  A    between atoms: C_7  and  C_8 
REMARK    3  A    between atoms: C_8  and  C_9 
REMARK    4  A    between atoms: C_11  and  O_12 
REMARK    5  A    between atoms: C_14  and  O_15 
ROOT
HETATM    1  C   UNL     1      25.543  45.554  50.146  1.00  0.00     0.189 C 
HETATM    2  N   UNL     1      24.181  45.999  49.761  1.00  0.00    -0.336 N 
HETATM    3  C   UNL     1      24.053  47.234  49.153  1.00  0.00     0.225 C 
HETATM    4  O   UNL     1      24.956  48.074  49.177  1.00  0.00    -0.273 OA
HETATM    5  C   UNL     1      23.078  45.046  50.015  1.00  0.00     0.132 C 
HETATM    6  C   UNL     1      23.222  43.758  49.191  1.00  0.00     0.061 C 
HETATM    7  C   UNL     1      24.645  43.321  49.168  1.00  0.00    -0.019 A 
HETATM    8  C   UNL     1      25.672  44.145  49.598  1.00  0.00     0.046 A 
HETATM    9  N   UNL     1      26.852  43.497  49.337  1.00  0.00    -0.356 N 
HETATM   10  H   UNL     1      27.778  43.868  49.488  1.00  0.00     0.166 HD
HETATM   11  C   UNL     1      26.604  42.260  48.782  1.00  0.00     0.043 A 
HETATM   12  C   UNL     1      25.220  42.122  48.670  1.00  0.00    -0.001 A 
HETATM   13  C   UNL     1      27.496  41.269  48.355  1.00  0.00     0.030 A 
HETATM   14  C   UNL     1      26.954  40.105  47.799  1.00  0.00     0.002 A 
HETATM   15  C   UNL     1      25.576  39.940  47.677  1.00  0.00     0.001 A 
HETATM   16  C   UNL     1      24.698  40.942  48.106  1.00  0.00     0.014 A 
ENDROOT
BRANCH   1  17
HETATM   17  C   UNL     1      25.857  45.680  51.648  1.00  0.00     0.063 A 
HETATM   18  N   UNL     1      26.301  44.593  52.340  1.00  0.00    -0.256 NA
HETATM   19  C   UNL     1      26.534  44.724  53.670  1.00  0.00     0.031 A 
HETATM   20  C   UNL     1      26.972  43.503  54.421  1.00  0.00     0.070 C 
HETATM   21  C   UNL     1      26.352  45.920  54.353  1.00  0.00     0.027 A 
HETATM   22  C   UNL     1      25.905  47.026  53.648  1.00  0.00     0.004 A 
HETATM   23  C   UNL     1      25.643  46.905  52.288  1.00  0.00     0.030 A 
ENDBRANCH   1  17
BRANCH   3  24
HETATM   24  C   UNL     1      22.811  47.488  48.313  1.00  0.00     0.141 C 
BRANCH  24  25
HETATM   25  C   UNL     1      21.923  48.662  48.654  1.00  0.00    -0.047 A 
HETATM   26  C   UNL     1      20.717  48.557  49.358  1.00  0.00     0.047 A 
HETATM   27  C   UNL     1      19.919  49.691  49.582  1.00  0.00     0.102 A 
HETATM   28  C   UNL     1      20.345  50.955  49.128  1.00  0.00     0.101 A 
HETATM   29  C   UNL     1      21.561  51.065  48.456  1.00  0.00     0.040 A 
HETATM   30  C   UNL     1      22.336  49.930  48.216  1.00  0.00     0.010 A 
BRANCH  27  31
HETATM   31  O   UNL     1      18.715  49.664  50.244  1.00  0.00    -0.353 OA
HETATM   32  C   UNL     1      18.556  48.660  51.237  1.00  0.00     0.210 C 
ENDBRANCH  27  31
BRANCH  28  33
HETATM   33  O   UNL     1      19.506  52.011  49.389  1.00  0.00    -0.353 OA
HETATM   34  C   UNL     1      18.783  52.556  48.294  1.00  0.00     0.210 C 
ENDBRANCH  28  33
ENDBRANCH  24  25
ENDBRANCH   3  24
TORSDOF 5
ENDMDL
MODEL 7
REMARK VINA RESULT:      -8.8      1.237      2.240
REMARK  5 active torsions:
REMARK  status: ('A' for Active; 'I' for Inactive)
REMARK    1  A    between atoms: C_4  and  C_5 
REMARK       I    between atoms: N_6  and  C_7 
REMARK    2  A    between atoms: C_7  and  C_8 
REMARK    3  A    between atoms: C_8  and  C_9 
REMARK    4  A    between atoms: C_11  and  O_12 
REMARK    5  A    between atoms: C_14  and  O_15 
ROOT
HETATM    1  C   UNL     1      24.148  47.144  49.990  1.00  0.00     0.189 C 
HETATM    2  N   UNL     1      25.046  46.146  50.620  1.00  0.00    -0.336 N 
HETATM    3  C   UNL     1      25.214  46.203  51.992  1.00  0.00     0.225 C 
HETATM    4  O   UNL     1      24.888  47.193  52.652  1.00  0.00    -0.273 OA
HETATM    5  C   UNL     1      25.641  45.133  49.722  1.00  0.00     0.132 C 
HETATM    6  C   UNL     1      24.578  44.226  49.083  1.00  0.00     0.061 C 
HETATM    7  C   UNL     1      23.394  45.033  48.678  1.00  0.00    -0.019 A 
HETATM    8  C   UNL     1      23.219  46.341  49.100  1.00  0.00     0.046 A 
HETATM    9  N   UNL     1      21.988  46.752  48.657  1.00  0.00    -0.356 N 
HETATM   10  H   UNL     1      21.553  47.641  48.853  1.00  0.00     0.166 HD
HETATM   11  C   UNL     1      21.385  45.749  47.927  1.00  0.00     0.043 A 
HETATM   12  C   UNL     1      22.253  44.656  47.921  1.00  0.00    -0.001 A 
HETATM   13  C   UNL     1      20.136  45.722  47.296  1.00  0.00     0.030 A 
HETATM   14  C   UNL     1      19.768  44.542  46.639  1.00  0.00     0.002 A 
HETATM   15  C   UNL     1      20.615  43.437  46.616  1.00  0.00     0.001 A 
HETATM   16  C   UNL     1      21.860  43.480  47.254  1.00  0.00     0.014 A 
ENDROOT
BRANCH   1  17
HETATM   17  C   UNL     1      24.876  48.295  49.270  1.00  0.00     0.063 A 
HETATM   18  N   UNL     1      26.211  48.479  49.467  1.00  0.00    -0.256 NA
HETATM   19  C   UNL     1      26.818  49.524  48.850  1.00  0.00     0.031 A 
HETATM   20  C   UNL     1      28.276  49.738  49.122  1.00  0.00     0.070 C 
HETATM   21  C   UNL     1      26.139  50.405  48.017  1.00  0.00     0.027 A 
HETATM   22  C   UNL     1      24.781  50.215  47.814  1.00  0.00     0.004 A 
HETATM   23  C   UNL     1      24.139  49.160  48.453  1.00  0.00     0.030 A 
ENDBRANCH   1  17
BRANCH   3  24
HETATM   24  C   UNL     1      25.683  44.945  52.704  1.00  0.00     0.141 C 
BRANCH  24  25
HETATM   25  C   UNL     1      26.912  45.012  53.580  1.00  0.00    -0.047 A 
HETATM   26  C   UNL     1      27.982  44.111  53.506  1.00  0.00     0.047 A 
HETATM   27  C   UNL     1      29.061  44.207  54.399  1.00  0.00     0.102 A 
HETATM   28  C   UNL     1      29.094  45.239  55.358  1.00  0.00     0.101 A 
HETATM   29  C   UNL     1      28.046  46.156  55.411  1.00  0.00     0.040 A 
HETATM   30  C   UNL     1      26.965  46.039  54.536  1.00  0.00     0.010 A 
BRANCH  27  31
HETATM   31  O   UNL     1      30.135  43.349  54.402  1.00  0.00    -0.353 OA
HETATM   32  C   UNL     1      30.405  42.662  53.188  1.00  0.00     0.210 C 
ENDBRANCH  27  31
BRANCH  28  33
HETATM   33  O   UNL     1      30.186  45.262  56.191  1.00  0.00    -0.353 OA
HETATM   34  C   UNL     1      30.043  45.932  57.436  1.00  0.00     0.210 C 
ENDBRANCH  28  33
ENDBRANCH  24  25
ENDBRANCH   3  24
TORSDOF 5
ENDMDL
MODEL 8
REMARK VINA RESULT:      -8.6      6.885     11.574
REMARK  5 active torsions:
REMARK  status: ('A' for Active; 'I' for Inactive)
REMARK    1  A    between atoms: C_4  and  C_5 
REMARK       I    between atoms: N_6  and  C_7 
REMARK    2  A    between atoms: C_7  and  C_8 
REMARK    3  A    between atoms: C_8  and  C_9 
REMARK    4  A    between atoms: C_11  and  O_12 
REMARK    5  A    between atoms: C_14  and  O_15 
ROOT
HETATM    1  C   UNL     1      20.508  49.675  47.963  1.00  0.00     0.189 C 
HETATM    2  N   UNL     1      19.702  50.115  49.127  1.00  0.00    -0.336 N 
HETATM    3  C   UNL     1      19.306  51.440  49.176  1.00  0.00     0.225 C 
HETATM    4  O   UNL     1      19.819  52.304  48.461  1.00  0.00    -0.273 OA
HETATM    5  C   UNL     1      19.344  49.074  50.115  1.00  0.00     0.132 C 
HETATM    6  C   UNL     1      18.440  47.988  49.511  1.00  0.00     0.061 C 
HETATM    7  C   UNL     1      18.903  47.641  48.139  1.00  0.00    -0.019 A 
HETATM    8  C   UNL     1      19.829  48.415  47.460  1.00  0.00     0.046 A 
HETATM    9  N   UNL     1      19.946  47.898  46.196  1.00  0.00    -0.356 N 
HETATM   10  H   UNL     1      20.505  48.280  45.448  1.00  0.00     0.166 HD
HETATM   11  C   UNL     1      19.141  46.786  46.060  1.00  0.00     0.043 A 
HETATM   12  C   UNL     1      18.477  46.600  47.273  1.00  0.00    -0.001 A 
HETATM   13  C   UNL     1      18.939  45.951  44.954  1.00  0.00     0.030 A 
HETATM   14  C   UNL     1      18.031  44.896  45.098  1.00  0.00     0.002 A 
HETATM   15  C   UNL     1      17.355  44.686  46.297  1.00  0.00     0.001 A 
HETATM   16  C   UNL     1      17.568  45.531  47.392  1.00  0.00     0.014 A 
ENDROOT
BRANCH   1  17
HETATM   17  C   UNL     1      22.013  49.512  48.249  1.00  0.00     0.063 A 
HETATM   18  N   UNL     1      22.455  48.428  48.947  1.00  0.00    -0.256 NA
HETATM   19  C   UNL     1      23.780  48.331  49.218  1.00  0.00     0.031 A 
HETATM   20  C   UNL     1      24.237  47.158  50.031  1.00  0.00     0.070 C 
HETATM   21  C   UNL     1      24.707  49.280  48.802  1.00  0.00     0.027 A 
HETATM   22  C   UNL     1      24.257  50.380  48.089  1.00  0.00     0.004 A 
HETATM   23  C   UNL     1      22.898  50.506  47.819  1.00  0.00     0.030 A 
ENDBRANCH   1  17
BRANCH   3  24
HETATM   24  C   UNL     1      18.103  51.791  50.036  1.00  0.00     0.141 C 
BRANCH  24  25
HETATM   25  C   UNL     1      16.882  52.393  49.381  1.00  0.00    -0.047 A 
HETATM   26  C   UNL     1      16.436  52.060  48.095  1.00  0.00     0.047 A 
HETATM   27  C   UNL     1      15.325  52.710  47.534  1.00  0.00     0.102 A 
HETATM   28  C   UNL     1      14.626  53.682  48.278  1.00  0.00     0.101 A 
HETATM   29  C   UNL     1      15.050  53.990  49.569  1.00  0.00     0.040 A 
HETATM   30  C   UNL     1      16.170  53.357  50.110  1.00  0.00     0.010 A 
BRANCH  27  31
HETATM   31  O   UNL     1      14.840  52.454  46.274  1.00  0.00    -0.353 OA
HETATM   32  C   UNL     1      15.646  52.877  45.183  1.00  0.00     0.210 C 
ENDBRANCH  27  31
BRANCH  28  33
HETATM   33  O   UNL     1      13.551  54.269  47.656  1.00  0.00    -0.353 OA
HETATM   34  C   UNL     1      13.660  55.647  47.326  1.00  0.00     0.210 C 
ENDBRANCH  28  33
ENDBRANCH  24  25
ENDBRANCH   3  24
TORSDOF 5
ENDMDL
MODEL 9
REMARK VINA RESULT:      -8.5      5.902     10.552
REMARK  5 active torsions:
REMARK  status: ('A' for Active; 'I' for Inactive)
REMARK    1  A    between atoms: C_4  and  C_5 
REMARK       I    between atoms: N_6  and  C_7 
REMARK    2  A    between atoms: C_7  and  C_8 
REMARK    3  A    between atoms: C_8  and  C_9 
REMARK    4  A    between atoms: C_11  and  O_12 
REMARK    5  A    between atoms: C_14  and  O_15 
ROOT
HETATM    1  C   UNL     1      21.484  48.442  48.214  1.00  0.00     0.189 C 
HETATM    2  N   UNL     1      20.729  49.241  49.210  1.00  0.00    -0.336 N 
HETATM    3  C   UNL     1      21.063  50.575  49.356  1.00  0.00     0.225 C 
HETATM    4  O   UNL     1      22.118  51.039  48.914  1.00  0.00    -0.273 OA
HETATM    5  C   UNL     1      19.637  48.545  49.924  1.00  0.00     0.132 C 
HETATM    6  C   UNL     1      18.514  48.100  48.975  1.00  0.00     0.061 C 
HETATM    7  C   UNL     1      19.093  47.562  47.713  1.00  0.00    -0.019 A 
HETATM    8  C   UNL     1      20.428  47.731  47.389  1.00  0.00     0.046 A 
HETATM    9  N   UNL     1      20.608  47.230  46.125  1.00  0.00    -0.356 N 
HETATM   10  H   UNL     1      21.465  47.260  45.592  1.00  0.00     0.166 HD
HETATM   11  C   UNL     1      19.425  46.710  45.645  1.00  0.00     0.043 A 
HETATM   12  C   UNL     1      18.454  46.902  46.630  1.00  0.00    -0.001 A 
HETATM   13  C   UNL     1      19.140  46.109  44.414  1.00  0.00     0.030 A 
HETATM   14  C   UNL     1      17.824  45.691  44.186  1.00  0.00     0.002 A 
HETATM   15  C   UNL     1      16.836  45.868  45.152  1.00  0.00     0.001 A 
HETATM   16  C   UNL     1      17.137  46.474  46.377  1.00  0.00     0.014 A 
ENDROOT
BRANCH   1  17
HETATM   17  C   UNL     1      22.552  47.510  48.816  1.00  0.00     0.063 A 
HETATM   18  N   UNL     1      22.466  46.165  48.615  1.00  0.00    -0.256 NA
HETATM   19  C   UNL     1      23.399  45.365  49.190  1.00  0.00     0.031 A 
HETATM   20  C   UNL     1      23.255  43.885  49.000  1.00  0.00     0.070 C 
HETATM   21  C   UNL     1      24.444  45.859  49.962  1.00  0.00     0.027 A 
HETATM   22  C   UNL     1      24.532  47.227  50.162  1.00  0.00     0.004 A 
HETATM   23  C   UNL     1      23.574  48.061  49.596  1.00  0.00     0.030 A 
ENDBRANCH   1  17
BRANCH   3  24
HETATM   24  C   UNL     1      20.023  51.508  49.954  1.00  0.00     0.141 C 
BRANCH  24  25
HETATM   25  C   UNL     1      18.726  51.731  49.213  1.00  0.00    -0.047 A 
HETATM   26  C   UNL     1      17.471  51.809  49.831  1.00  0.00     0.047 A 
HETATM   27  C   UNL     1      16.304  51.958  49.063  1.00  0.00     0.102 A 
HETATM   28  C   UNL     1      16.391  52.068  47.661  1.00  0.00     0.101 A 
HETATM   29  C   UNL     1      17.643  52.024  47.048  1.00  0.00     0.040 A 
HETATM   30  C   UNL     1      18.795  51.851  47.816  1.00  0.00     0.010 A 
BRANCH  27  31
HETATM   31  O   UNL     1      15.038  52.021  49.594  1.00  0.00    -0.353 OA
HETATM   32  C   UNL     1      14.734  53.161  50.385  1.00  0.00     0.210 C 
ENDBRANCH  27  31
BRANCH  28  33
HETATM   33  O   UNL     1      15.204  52.213  46.986  1.00  0.00    -0.353 OA
HETATM   34  C   UNL     1      15.218  52.998  45.802  1.00  0.00     0.210 C 
ENDBRANCH  28  33
ENDBRANCH  24  25
ENDBRANCH   3  24
TORSDOF 5
ENDMDL
MODEL 10
REMARK VINA RESULT:      -8.5      2.662      5.165
REMARK  5 active torsions:
REMARK  status: ('A' for Active; 'I' for Inactive)
REMARK    1  A    between atoms: C_4  and  C_5 
REMARK       I    between atoms: N_6  and  C_7 
REMARK    2  A    between atoms: C_7  and  C_8 
REMARK    3  A    between atoms: C_8  and  C_9 
REMARK    4  A    between atoms: C_11  and  O_12 
REMARK    5  A    between atoms: C_14  and  O_15 
ROOT
HETATM    1  C   UNL     1      24.659  42.908  50.517  1.00  0.00     0.189 C 
HETATM    2  N   UNL     1      25.499  44.071  50.896  1.00  0.00    -0.336 N 
HETATM    3  C   UNL     1      25.276  44.654  52.130  1.00  0.00     0.225 C 
HETATM    4  O   UNL     1      24.253  44.434  52.784  1.00  0.00    -0.273 OA
HETATM    5  C   UNL     1      26.547  44.471  49.932  1.00  0.00     0.132 C 
HETATM    6  C   UNL     1      27.609  43.378  49.742  1.00  0.00     0.061 C 
HETATM    7  C   UNL     1      26.961  42.039  49.683  1.00  0.00    -0.019 A 
HETATM    8  C   UNL     1      25.636  41.849  50.039  1.00  0.00     0.046 A 
HETATM    9  N   UNL     1      25.388  40.502  49.989  1.00  0.00    -0.356 N 
HETATM   10  H   UNL     1      24.525  40.048  50.248  1.00  0.00     0.166 HD
HETATM   11  C   UNL     1      26.514  39.825  49.572  1.00  0.00     0.043 A 
HETATM   12  C   UNL     1      27.519  40.772  49.367  1.00  0.00    -0.001 A 
HETATM   13  C   UNL     1      26.722  38.454  49.384  1.00  0.00     0.030 A 
HETATM   14  C   UNL     1      27.995  38.042  48.972  1.00  0.00     0.002 A 
HETATM   15  C   UNL     1      29.016  38.965  48.759  1.00  0.00     0.001 A 
HETATM   16  C   UNL     1      28.792  40.333  48.954  1.00  0.00     0.014 A 
ENDROOT
BRANCH   1  17
HETATM   17  C   UNL     1      23.534  43.229  49.516  1.00  0.00     0.063 A 
HETATM   18  N   UNL     1      23.444  42.527  48.351  1.00  0.00    -0.256 NA
HETATM   19  C   UNL     1      22.466  42.857  47.471  1.00  0.00     0.031 A 
HETATM   20  C   UNL     1      22.419  42.107  46.174  1.00  0.00     0.070 C 
HETATM   21  C   UNL     1      21.545  43.869  47.712  1.00  0.00     0.027 A 
HETATM   22  C   UNL     1      21.635  44.580  48.898  1.00  0.00     0.004 A 
HETATM   23  C   UNL     1      22.643  44.268  49.804  1.00  0.00     0.030 A 
ENDBRANCH   1  17
BRANCH   3  24
HETATM   24  C   UNL     1      26.401  45.470  52.745  1.00  0.00     0.141 C 
BRANCH  24  25
HETATM   25  C   UNL     1      27.509  44.754  53.482  1.00  0.00    -0.047 A 
HETATM   26  C   UNL     1      27.859  43.414  53.268  1.00  0.00     0.047 A 
HETATM   27  C   UNL     1      28.862  42.806  54.039  1.00  0.00     0.102 A 
HETATM   28  C   UNL     1      29.553  43.552  55.015  1.00  0.00     0.101 A 
HETATM   29  C   UNL     1      29.228  44.894  55.206  1.00  0.00     0.040 A 
HETATM   30  C   UNL     1      28.213  45.484  54.452  1.00  0.00     0.010 A 
BRANCH  27  31
HETATM   31  O   UNL     1      29.246  41.493  53.903  1.00  0.00    -0.353 OA
HETATM   32  C   UNL     1      28.882  40.845  52.692  1.00  0.00     0.210 C 
ENDBRANCH  27  31
BRANCH  28  33
HETATM   33  O   UNL     1      30.520  42.881  55.724  1.00  0.00    -0.353 OA
HETATM   34  C   UNL     1      31.303  43.638  56.635  1.00  0.00     0.210 C 
ENDBRANCH  28  33
ENDBRANCH  24  25
ENDBRANCH   3  24
TORSDOF 5
ENDMDL
