MODEL 1
REMARK VINA RESULT:      -7.5      0.000      0.000
REMARK  5 active torsions:
REMARK  status: ('A' for Active; 'I' for Inactive)
REMARK    1  A    between atoms: C_2  and  O_3 
REMARK    2  A    between atoms: O_3  and  C_4 
REMARK    3  A    between atoms: C_9  and  C_10 
REMARK       I    between atoms: C_10  and  N_11 
REMARK    4  A    between atoms: N_11  and  C_12 
REMARK    5  A    between atoms: C_12  and  C_13 
ROOT
HETATM    1  C   UNL     1      26.721  46.207  50.186  1.00  0.00     0.256 C 
HETATM    2  N   UNL     1      26.285  45.899  51.450  1.00  0.00    -0.348 N 
HETATM    3  O   UNL     1      27.413  45.440  49.523  1.00  0.00    -0.267 OA
HETATM    4  H   UNL     1      25.677  46.555  51.931  1.00  0.00     0.163 HD
ENDROOT
BRANCH   1   5
HETATM    5  C   UNL     1      26.347  47.539  49.628  1.00  0.00     0.084 A 
HETATM    6  C   UNL     1      25.049  48.047  49.556  1.00  0.00     0.180 A 
HETATM    7  N   UNL     1      24.748  49.273  49.053  1.00  0.00    -0.236 NA
HETATM    8  C   UNL     1      25.774  50.025  48.602  1.00  0.00     0.119 A 
HETATM    9  C   UNL     1      27.093  49.614  48.624  1.00  0.00     0.020 A 
HETATM   10  C   UNL     1      27.380  48.355  49.142  1.00  0.00     0.023 A 
BRANCH   6  11
HETATM   11  O   UNL     1      24.004  47.265  50.011  1.00  0.00    -0.334 OA
BRANCH  11  12
HETATM   12  C   UNL     1      23.174  46.733  48.976  1.00  0.00     0.173 C 
HETATM   13  C   UNL     1      23.374  45.227  48.957  1.00  0.00     0.034 C 
ENDBRANCH  11  12
ENDBRANCH   6  11
ENDBRANCH   1   5
BRANCH   2  14
HETATM   14  C   UNL     1      26.580  44.641  52.109  1.00  0.00     0.114 C 
HETATM   15  C   UNL     1      25.304  43.828  52.334  1.00  0.00     0.037 C 
BRANCH  14  16
HETATM   16  C   UNL     1      27.361  44.933  53.381  1.00  0.00    -0.036 A 
HETATM   17  C   UNL     1      27.125  46.073  54.166  1.00  0.00     0.010 A 
HETATM   18  C   UNL     1      27.900  46.334  55.298  1.00  0.00     0.019 A 
HETATM   19  C   UNL     1      28.929  45.462  55.650  1.00  0.00     0.011 A 
HETATM   20 BR   UNL     1      29.984  45.823  57.175  1.00  0.00    -0.051 Br
HETATM   21  C   UNL     1      29.191  44.334  54.878  1.00  0.00     0.019 A 
HETATM   22  C   UNL     1      28.413  44.075  53.747  1.00  0.00     0.010 A 
ENDBRANCH  14  16
ENDBRANCH   2  14
TORSDOF 5
ENDMDL
MODEL 2
REMARK VINA RESULT:      -7.5      2.204      3.414
REMARK  5 active torsions:
REMARK  status: ('A' for Active; 'I' for Inactive)
REMARK    1  A    between atoms: C_2  and  O_3 
REMARK    2  A    between atoms: O_3  and  C_4 
REMARK    3  A    between atoms: C_9  and  C_10 
REMARK       I    between atoms: C_10  and  N_11 
REMARK    4  A    between atoms: N_11  and  C_12 
REMARK    5  A    between atoms: C_12  and  C_13 
ROOT
HETATM    1  C   UNL     1      27.214  44.581  51.186  1.00  0.00     0.256 C 
HETATM    2  N   UNL     1      27.473  44.277  52.499  1.00  0.00    -0.348 N 
HETATM    3  O   UNL     1      27.823  44.057  50.257  1.00  0.00    -0.267 OA
HETATM    4  H   UNL     1      26.905  44.708  53.222  1.00  0.00     0.163 HD
ENDROOT
BRANCH   1   5
HETATM    5  C   UNL     1      26.166  45.604  50.903  1.00  0.00     0.084 A 
HETATM    6  C   UNL     1      25.899  46.723  51.694  1.00  0.00     0.180 A 
HETATM    7  N   UNL     1      24.944  47.642  51.396  1.00  0.00    -0.236 NA
HETATM    8  C   UNL     1      24.225  47.446  50.271  1.00  0.00     0.119 A 
HETATM    9  C   UNL     1      24.407  46.370  49.423  1.00  0.00     0.020 A 
HETATM   10  C   UNL     1      25.390  45.438  49.747  1.00  0.00     0.023 A 
BRANCH   6  11
HETATM   11  O   UNL     1      26.634  46.910  52.850  1.00  0.00    -0.334 OA
BRANCH  11  12
HETATM   12  C   UNL     1      25.856  47.292  53.986  1.00  0.00     0.173 C 
HETATM   13  C   UNL     1      26.772  48.041  54.938  1.00  0.00     0.034 C 
ENDBRANCH  11  12
ENDBRANCH   6  11
ENDBRANCH   1   5
BRANCH   2  14
HETATM   14  C   UNL     1      28.468  43.305  52.910  1.00  0.00     0.114 C 
HETATM   15  C   UNL     1      27.843  41.917  53.068  1.00  0.00     0.037 C 
BRANCH  14  16
HETATM   16  C   UNL     1      29.159  43.819  54.163  1.00  0.00    -0.036 A 
HETATM   17  C   UNL     1      30.269  43.172  54.730  1.00  0.00     0.010 A 
HETATM   18  C   UNL     1      30.843  43.645  55.913  1.00  0.00     0.019 A 
HETATM   19  C   UNL     1      30.304  44.763  56.547  1.00  0.00     0.011 A 
HETATM   20 BR   UNL     1      31.074  45.394  58.153  1.00  0.00    -0.051 Br
HETATM   21  C   UNL     1      29.195  45.410  56.011  1.00  0.00     0.019 A 
HETATM   22  C   UNL     1      28.624  44.936  54.827  1.00  0.00     0.010 A 
ENDBRANCH  14  16
ENDBRANCH   2  14
TORSDOF 5
ENDMDL
MODEL 3
REMARK VINA RESULT:      -7.3      3.471      4.887
REMARK  5 active torsions:
REMARK  status: ('A' for Active; 'I' for Inactive)
REMARK    1  A    between atoms: C_2  and  O_3 
REMARK    2  A    between atoms: O_3  and  C_4 
REMARK    3  A    between atoms: C_9  and  C_10 
REMARK       I    between atoms: C_10  and  N_11 
REMARK    4  A    between atoms: N_11  and  C_12 
REMARK    5  A    between atoms: C_12  and  C_13 
ROOT
HETATM    1  C   UNL     1      25.609  44.550  53.032  1.00  0.00     0.256 C 
HETATM    2  N   UNL     1      26.690  45.381  53.186  1.00  0.00    -0.348 N 
HETATM    3  O   UNL     1      24.843  44.288  53.954  1.00  0.00    -0.267 OA
HETATM    4  H   UNL     1      27.262  45.597  52.375  1.00  0.00     0.163 HD
ENDROOT
BRANCH   1   5
HETATM    5  C   UNL     1      25.392  43.936  51.690  1.00  0.00     0.084 A 
HETATM    6  C   UNL     1      26.238  43.005  51.083  1.00  0.00     0.180 A 
HETATM    7  N   UNL     1      25.999  42.457  49.864  1.00  0.00    -0.236 NA
HETATM    8  C   UNL     1      24.878  42.845  49.219  1.00  0.00     0.119 A 
HETATM    9  C   UNL     1      23.979  43.762  49.729  1.00  0.00     0.020 A 
HETATM   10  C   UNL     1      24.243  44.314  50.980  1.00  0.00     0.023 A 
BRANCH   6  11
HETATM   11  O   UNL     1      27.388  42.621  51.747  1.00  0.00    -0.334 OA
BRANCH  11  12
HETATM   12  C   UNL     1      27.588  41.207  51.806  1.00  0.00     0.173 C 
HETATM   13  C   UNL     1      28.725  40.946  52.779  1.00  0.00     0.034 C 
ENDBRANCH  11  12
ENDBRANCH   6  11
ENDBRANCH   1   5
BRANCH   2  14
HETATM   14  C   UNL     1      27.017  46.038  54.438  1.00  0.00     0.114 C 
HETATM   15  C   UNL     1      27.118  47.553  54.250  1.00  0.00     0.037 C 
BRANCH  14  16
HETATM   16  C   UNL     1      28.273  45.399  55.008  1.00  0.00    -0.036 A 
HETATM   17  C   UNL     1      28.789  44.187  54.522  1.00  0.00     0.010 A 
HETATM   18  C   UNL     1      29.915  43.604  55.109  1.00  0.00     0.019 A 
HETATM   19  C   UNL     1      30.529  44.222  56.196  1.00  0.00     0.011 A 
HETATM   20 BR   UNL     1      32.044  43.426  56.995  1.00  0.00    -0.051 Br
HETATM   21  C   UNL     1      30.026  45.416  56.703  1.00  0.00     0.019 A 
HETATM   22  C   UNL     1      28.900  45.998  56.114  1.00  0.00     0.010 A 
ENDBRANCH  14  16
ENDBRANCH   2  14
TORSDOF 5
ENDMDL
MODEL 4
REMARK VINA RESULT:      -7.2      2.951      4.391
REMARK  5 active torsions:
REMARK  status: ('A' for Active; 'I' for Inactive)
REMARK    1  A    between atoms: C_2  and  O_3 
REMARK    2  A    between atoms: O_3  and  C_4 
REMARK    3  A    between atoms: C_9  and  C_10 
REMARK       I    between atoms: C_10  and  N_11 
REMARK    4  A    between atoms: N_11  and  C_12 
REMARK    5  A    between atoms: C_12  and  C_13 
ROOT
HETATM    1  C   UNL     1      26.865  42.596  50.668  1.00  0.00     0.256 C 
HETATM    2  N   UNL     1      27.335  42.550  51.956  1.00  0.00    -0.348 N 
HETATM    3  O   UNL     1      27.595  42.432  49.694  1.00  0.00    -0.267 OA
HETATM    4  H   UNL     1      26.675  42.647  52.722  1.00  0.00     0.163 HD
ENDROOT
BRANCH   1   5
HETATM    5  C   UNL     1      25.414  42.879  50.467  1.00  0.00     0.084 A 
HETATM    6  C   UNL     1      24.688  43.869  51.132  1.00  0.00     0.180 A 
HETATM    7  N   UNL     1      23.369  44.107  50.912  1.00  0.00    -0.236 NA
HETATM    8  C   UNL     1      22.744  43.334  49.999  1.00  0.00     0.119 A 
HETATM    9  C   UNL     1      23.369  42.326  49.292  1.00  0.00     0.020 A 
HETATM   10  C   UNL     1      24.721  42.097  49.532  1.00  0.00     0.023 A 
BRANCH   6  11
HETATM   11  O   UNL     1      25.335  44.649  52.072  1.00  0.00    -0.334 OA
BRANCH  11  12
HETATM   12  C   UNL     1      25.589  45.991  51.649  1.00  0.00     0.173 C 
HETATM   13  C   UNL     1      25.742  46.843  52.896  1.00  0.00     0.034 C 
ENDBRANCH  11  12
ENDBRANCH   6  11
ENDBRANCH   1   5
BRANCH   2  14
HETATM   14  C   UNL     1      28.723  42.288  52.288  1.00  0.00     0.114 C 
HETATM   15  C   UNL     1      28.957  40.793  52.519  1.00  0.00     0.037 C 
BRANCH  14  16
HETATM   16  C   UNL     1      29.113  43.165  53.467  1.00  0.00    -0.036 A 
HETATM   17  C   UNL     1      30.288  42.956  54.206  1.00  0.00     0.010 A 
HETATM   18  C   UNL     1      30.585  43.750  55.317  1.00  0.00     0.019 A 
HETATM   19  C   UNL     1      29.701  44.754  55.707  1.00  0.00     0.011 A 
HETATM   20 BR   UNL     1      30.097  45.819  57.216  1.00  0.00    -0.051 Br
HETATM   21  C   UNL     1      28.522  44.969  54.998  1.00  0.00     0.019 A 
HETATM   22  C   UNL     1      28.229  44.175  53.887  1.00  0.00     0.010 A 
ENDBRANCH  14  16
ENDBRANCH   2  14
TORSDOF 5
ENDMDL
MODEL 5
REMARK VINA RESULT:      -7.2      1.946      3.981
REMARK  5 active torsions:
REMARK  status: ('A' for Active; 'I' for Inactive)
REMARK    1  A    between atoms: C_2  and  O_3 
REMARK    2  A    between atoms: O_3  and  C_4 
REMARK    3  A    between atoms: C_9  and  C_10 
REMARK       I    between atoms: C_10  and  N_11 
REMARK    4  A    between atoms: N_11  and  C_12 
REMARK    5  A    between atoms: C_12  and  C_13 
ROOT
HETATM    1  C   UNL     1      25.689  45.039  53.163  1.00  0.00     0.256 C 
HETATM    2  N   UNL     1      26.764  45.833  53.473  1.00  0.00    -0.348 N 
HETATM    3  O   UNL     1      24.856  44.702  54.000  1.00  0.00    -0.267 OA
HETATM    4  H   UNL     1      27.394  46.116  52.729  1.00  0.00     0.163 HD
ENDROOT
BRANCH   1   5
HETATM    5  C   UNL     1      25.562  44.560  51.756  1.00  0.00     0.084 A 
HETATM    6  C   UNL     1      25.892  45.302  50.620  1.00  0.00     0.180 A 
HETATM    7  N   UNL     1      25.776  44.827  49.353  1.00  0.00    -0.236 NA
HETATM    8  C   UNL     1      25.313  43.568  49.204  1.00  0.00     0.119 A 
HETATM    9  C   UNL     1      24.954  42.753  50.260  1.00  0.00     0.020 A 
HETATM   10  C   UNL     1      25.080  43.259  51.551  1.00  0.00     0.023 A 
BRANCH   6  11
HETATM   11  O   UNL     1      26.356  46.594  50.783  1.00  0.00    -0.334 OA
BRANCH  11  12
HETATM   12  C   UNL     1      25.742  47.552  49.917  1.00  0.00     0.173 C 
HETATM   13  C   UNL     1      26.832  48.485  49.421  1.00  0.00     0.034 C 
ENDBRANCH  11  12
ENDBRANCH   6  11
ENDBRANCH   1   5
BRANCH   2  14
HETATM   14  C   UNL     1      27.007  46.361  54.802  1.00  0.00     0.114 C 
HETATM   15  C   UNL     1      27.143  47.884  54.769  1.00  0.00     0.037 C 
BRANCH  14  16
HETATM   16  C   UNL     1      28.209  45.644  55.397  1.00  0.00    -0.036 A 
HETATM   17  C   UNL     1      28.853  46.092  56.560  1.00  0.00     0.010 A 
HETATM   18  C   UNL     1      29.989  45.437  57.045  1.00  0.00     0.019 A 
HETATM   19  C   UNL     1      30.498  44.335  56.361  1.00  0.00     0.011 A 
HETATM   20 BR   UNL     1      32.040  43.458  57.011  1.00  0.00    -0.051 Br
HETATM   21  C   UNL     1      29.884  43.883  55.197  1.00  0.00     0.019 A 
HETATM   22  C   UNL     1      28.748  44.539  54.716  1.00  0.00     0.010 A 
ENDBRANCH  14  16
ENDBRANCH   2  14
TORSDOF 5
ENDMDL
MODEL 6
REMARK VINA RESULT:      -7.2      3.773      6.821
REMARK  5 active torsions:
REMARK  status: ('A' for Active; 'I' for Inactive)
REMARK    1  A    between atoms: C_2  and  O_3 
REMARK    2  A    between atoms: O_3  and  C_4 
REMARK    3  A    between atoms: C_9  and  C_10 
REMARK       I    between atoms: C_10  and  N_11 
REMARK    4  A    between atoms: N_11  and  C_12 
REMARK    5  A    between atoms: C_12  and  C_13 
ROOT
HETATM    1  C   UNL     1      27.963  43.241  53.576  1.00  0.00     0.256 C 
HETATM    2  N   UNL     1      27.485  44.033  52.562  1.00  0.00    -0.348 N 
HETATM    3  O   UNL     1      27.627  42.068  53.708  1.00  0.00    -0.267 OA
HETATM    4  H   UNL     1      27.836  44.982  52.476  1.00  0.00     0.163 HD
ENDROOT
BRANCH   1   5
HETATM    5  C   UNL     1      28.907  43.857  54.553  1.00  0.00     0.084 A 
HETATM    6  C   UNL     1      28.723  45.089  55.184  1.00  0.00     0.180 A 
HETATM    7  N   UNL     1      29.599  45.612  56.080  1.00  0.00    -0.236 NA
HETATM    8  C   UNL     1      30.702  44.887  56.363  1.00  0.00     0.119 A 
HETATM    9  C   UNL     1      30.980  43.660  55.791  1.00  0.00     0.020 A 
HETATM   10  C   UNL     1      30.070  43.142  54.874  1.00  0.00     0.023 A 
BRANCH   6  11
HETATM   11  O   UNL     1      27.595  45.829  54.879  1.00  0.00    -0.334 OA
BRANCH  11  12
HETATM   12  C   UNL     1      27.689  47.212  55.225  1.00  0.00     0.173 C 
HETATM   13  C   UNL     1      26.385  47.875  54.819  1.00  0.00     0.034 C 
ENDBRANCH  11  12
ENDBRANCH   6  11
ENDBRANCH   1   5
BRANCH   2  14
HETATM   14  C   UNL     1      26.561  43.560  51.550  1.00  0.00     0.114 C 
HETATM   15  C   UNL     1      27.287  42.724  50.493  1.00  0.00     0.037 C 
BRANCH  14  16
HETATM   16  C   UNL     1      25.807  44.754  50.985  1.00  0.00    -0.036 A 
HETATM   17  C   UNL     1      25.887  46.034  51.555  1.00  0.00     0.010 A 
HETATM   18  C   UNL     1      25.137  47.094  51.039  1.00  0.00     0.019 A 
HETATM   19  C   UNL     1      24.289  46.879  49.955  1.00  0.00     0.011 A 
HETATM   20 BR   UNL     1      23.265  48.311  49.267  1.00  0.00    -0.051 Br
HETATM   21  C   UNL     1      24.181  45.615  49.384  1.00  0.00     0.019 A 
HETATM   22  C   UNL     1      24.934  44.557  49.900  1.00  0.00     0.010 A 
ENDBRANCH  14  16
ENDBRANCH   2  14
TORSDOF 5
ENDMDL
MODEL 7
REMARK VINA RESULT:      -6.8      1.132      2.845
REMARK  5 active torsions:
REMARK  status: ('A' for Active; 'I' for Inactive)
REMARK    1  A    between atoms: C_2  and  O_3 
REMARK    2  A    between atoms: O_3  and  C_4 
REMARK    3  A    between atoms: C_9  and  C_10 
REMARK       I    between atoms: C_10  and  N_11 
REMARK    4  A    between atoms: N_11  and  C_12 
REMARK    5  A    between atoms: C_12  and  C_13 
ROOT
HETATM    1  C   UNL     1      26.125  45.381  49.976  1.00  0.00     0.256 C 
HETATM    2  N   UNL     1      26.184  44.786  51.211  1.00  0.00    -0.348 N 
HETATM    3  O   UNL     1      27.051  45.325  49.172  1.00  0.00    -0.267 OA
HETATM    4  H   UNL     1      25.369  44.827  51.814  1.00  0.00     0.163 HD
ENDROOT
BRANCH   1   5
HETATM    5  C   UNL     1      24.887  46.138  49.629  1.00  0.00     0.084 A 
HETATM    6  C   UNL     1      24.765  47.529  49.635  1.00  0.00     0.180 A 
HETATM    7  N   UNL     1      23.624  48.184  49.299  1.00  0.00    -0.236 NA
HETATM    8  C   UNL     1      22.560  47.433  48.943  1.00  0.00     0.119 A 
HETATM    9  C   UNL     1      22.575  46.052  48.908  1.00  0.00     0.020 A 
HETATM   10  C   UNL     1      23.754  45.399  49.258  1.00  0.00     0.023 A 
BRANCH   6  11
HETATM   11  O   UNL     1      25.857  48.289  50.010  1.00  0.00    -0.334 OA
BRANCH  11  12
HETATM   12  C   UNL     1      26.410  49.083  48.958  1.00  0.00     0.173 C 
HETATM   13  C   UNL     1      27.912  49.149  49.176  1.00  0.00     0.034 C 
ENDBRANCH  11  12
ENDBRANCH   6  11
ENDBRANCH   1   5
BRANCH   2  14
HETATM   14  C   UNL     1      27.330  44.025  51.673  1.00  0.00     0.114 C 
HETATM   15  C   UNL     1      27.032  42.524  51.657  1.00  0.00     0.037 C 
BRANCH  14  16
HETATM   16  C   UNL     1      27.749  44.559  53.033  1.00  0.00    -0.036 A 
HETATM   17  C   UNL     1      28.833  44.027  53.750  1.00  0.00     0.010 A 
HETATM   18  C   UNL     1      29.153  44.508  55.022  1.00  0.00     0.019 A 
HETATM   19  C   UNL     1      28.384  45.519  55.594  1.00  0.00     0.011 A 
HETATM   20 BR   UNL     1      28.811  46.161  57.319  1.00  0.00    -0.051 Br
HETATM   21  C   UNL     1      27.296  46.051  54.909  1.00  0.00     0.019 A 
HETATM   22  C   UNL     1      26.979  45.568  53.636  1.00  0.00     0.010 A 
ENDBRANCH  14  16
ENDBRANCH   2  14
TORSDOF 5
ENDMDL
MODEL 8
REMARK VINA RESULT:      -6.8      2.727      5.258
REMARK  5 active torsions:
REMARK  status: ('A' for Active; 'I' for Inactive)
REMARK    1  A    between atoms: C_2  and  O_3 
REMARK    2  A    between atoms: O_3  and  C_4 
REMARK    3  A    between atoms: C_9  and  C_10 
REMARK       I    between atoms: C_10  and  N_11 
REMARK    4  A    between atoms: N_11  and  C_12 
REMARK    5  A    between atoms: C_12  and  C_13 
ROOT
HETATM    1  C   UNL     1      25.240  43.738  51.376  1.00  0.00     0.256 C 
HETATM    2  N   UNL     1      26.193  44.679  51.678  1.00  0.00    -0.348 N 
HETATM    3  O   UNL     1      24.085  43.817  51.782  1.00  0.00    -0.267 OA
HETATM    4  H   UNL     1      27.119  44.584  51.275  1.00  0.00     0.163 HD
ENDROOT
BRANCH   1   5
HETATM    5  C   UNL     1      25.655  42.574  50.541  1.00  0.00     0.084 A 
HETATM    6  C   UNL     1      26.895  41.935  50.608  1.00  0.00     0.180 A 
HETATM    7  N   UNL     1      27.232  40.867  49.839  1.00  0.00    -0.236 NA
HETATM    8  C   UNL     1      26.305  40.413  48.969  1.00  0.00     0.119 A 
HETATM    9  C   UNL     1      25.052  40.976  48.822  1.00  0.00     0.020 A 
HETATM   10  C   UNL     1      24.726  42.071  49.618  1.00  0.00     0.023 A 
BRANCH   6  11
HETATM   11  O   UNL     1      27.841  42.414  51.495  1.00  0.00    -0.334 OA
BRANCH  11  12
HETATM   12  C   UNL     1      28.678  41.404  52.063  1.00  0.00     0.173 C 
HETATM   13  C   UNL     1      28.151  41.103  53.456  1.00  0.00     0.034 C 
ENDBRANCH  11  12
ENDBRANCH   6  11
ENDBRANCH   1   5
BRANCH   2  14
HETATM   14  C   UNL     1      25.922  45.855  52.483  1.00  0.00     0.114 C 
HETATM   15  C   UNL     1      25.979  47.125  51.633  1.00  0.00     0.037 C 
BRANCH  14  16
HETATM   16  C   UNL     1      26.874  45.860  53.669  1.00  0.00    -0.036 A 
HETATM   17  C   UNL     1      27.002  46.963  54.528  1.00  0.00     0.010 A 
HETATM   18  C   UNL     1      27.928  46.950  55.574  1.00  0.00     0.019 A 
HETATM   19  C   UNL     1      28.744  45.837  55.763  1.00  0.00     0.011 A 
HETATM   20 BR   UNL     1      30.005  45.826  57.171  1.00  0.00    -0.051 Br
HETATM   21  C   UNL     1      28.646  44.739  54.914  1.00  0.00     0.019 A 
HETATM   22  C   UNL     1      27.718  44.754  53.870  1.00  0.00     0.010 A 
ENDBRANCH  14  16
ENDBRANCH   2  14
TORSDOF 5
ENDMDL
MODEL 9
REMARK VINA RESULT:      -6.7      3.415      6.851
REMARK  5 active torsions:
REMARK  status: ('A' for Active; 'I' for Inactive)
REMARK    1  A    between atoms: C_2  and  O_3 
REMARK    2  A    between atoms: O_3  and  C_4 
REMARK    3  A    between atoms: C_9  and  C_10 
REMARK       I    between atoms: C_10  and  N_11 
REMARK    4  A    between atoms: N_11  and  C_12 
REMARK    5  A    between atoms: C_12  and  C_13 
ROOT
HETATM    1  C   UNL     1      25.996  45.094  52.925  1.00  0.00     0.256 C 
HETATM    2  N   UNL     1      26.293  45.441  51.631  1.00  0.00    -0.348 N 
HETATM    3  O   UNL     1      24.959  44.512  53.229  1.00  0.00    -0.267 OA
HETATM    4  H   UNL     1      27.187  45.880  51.434  1.00  0.00     0.163 HD
ENDROOT
BRANCH   1   5
HETATM    5  C   UNL     1      26.976  45.468  53.986  1.00  0.00     0.084 A 
HETATM    6  C   UNL     1      27.849  44.584  54.623  1.00  0.00     0.180 A 
HETATM    7  N   UNL     1      28.738  44.964  55.577  1.00  0.00    -0.236 NA
HETATM    8  C   UNL     1      28.764  46.271  55.913  1.00  0.00     0.119 A 
HETATM    9  C   UNL     1      27.940  47.225  55.347  1.00  0.00     0.020 A 
HETATM   10  C   UNL     1      27.035  46.815  54.372  1.00  0.00     0.023 A 
BRANCH   6  11
HETATM   11  O   UNL     1      27.807  43.246  54.279  1.00  0.00    -0.334 OA
BRANCH  11  12
HETATM   12  C   UNL     1      29.092  42.646  54.094  1.00  0.00     0.173 C 
HETATM   13  C   UNL     1      29.619  43.101  52.744  1.00  0.00     0.034 C 
ENDBRANCH  11  12
ENDBRANCH   6  11
ENDBRANCH   1   5
BRANCH   2  14
HETATM   14  C   UNL     1      25.425  45.141  50.507  1.00  0.00     0.114 C 
HETATM   15  C   UNL     1      26.099  44.163  49.542  1.00  0.00     0.037 C 
BRANCH  14  16
HETATM   16  C   UNL     1      24.996  46.450  49.863  1.00  0.00    -0.036 A 
HETATM   17  C   UNL     1      25.847  47.563  49.779  1.00  0.00     0.010 A 
HETATM   18  C   UNL     1      25.397  48.766  49.228  1.00  0.00     0.019 A 
HETATM   19  C   UNL     1      24.086  48.870  48.768  1.00  0.00     0.011 A 
HETATM   20 BR   UNL     1      23.475  50.501  48.036  1.00  0.00    -0.051 Br
HETATM   21  C   UNL     1      23.220  47.785  48.856  1.00  0.00     0.019 A 
HETATM   22  C   UNL     1      23.673  46.582  49.406  1.00  0.00     0.010 A 
ENDBRANCH  14  16
ENDBRANCH   2  14
TORSDOF 5
ENDMDL
MODEL 10
REMARK VINA RESULT:      -6.6     16.857     18.203
REMARK  5 active torsions:
REMARK  status: ('A' for Active; 'I' for Inactive)
REMARK    1  A    between atoms: C_2  and  O_3 
REMARK    2  A    between atoms: O_3  and  C_4 
REMARK    3  A    between atoms: C_9  and  C_10 
REMARK       I    between atoms: C_10  and  N_11 
REMARK    4  A    between atoms: N_11  and  C_12 
REMARK    5  A    between atoms: C_12  and  C_13 
ROOT
HETATM    1  C   UNL     1      37.120  46.671  64.487  1.00  0.00     0.256 C 
HETATM    2  N   UNL     1      36.963  45.543  65.252  1.00  0.00    -0.348 N 
HETATM    3  O   UNL     1      36.583  46.804  63.391  1.00  0.00    -0.267 OA
HETATM    4  H   UNL     1      37.395  45.510  66.170  1.00  0.00     0.163 HD
ENDROOT
BRANCH   1   5
HETATM    5  C   UNL     1      38.000  47.753  65.018  1.00  0.00     0.084 A 
HETATM    6  C   UNL     1      39.327  47.589  65.418  1.00  0.00     0.180 A 
HETATM    7  N   UNL     1      40.102  48.602  65.884  1.00  0.00    -0.236 NA
HETATM    8  C   UNL     1      39.541  49.827  65.957  1.00  0.00     0.119 A 
HETATM    9  C   UNL     1      38.236  50.095  65.591  1.00  0.00     0.020 A 
HETATM   10  C   UNL     1      37.457  49.043  65.117  1.00  0.00     0.023 A 
BRANCH   6  11
HETATM   11  O   UNL     1      39.890  46.328  65.349  1.00  0.00    -0.334 OA
BRANCH  11  12
HETATM   12  C   UNL     1      41.018  46.235  64.476  1.00  0.00     0.173 C 
HETATM   13  C   UNL     1      40.946  44.888  63.778  1.00  0.00     0.034 C 
ENDBRANCH  11  12
ENDBRANCH   6  11
ENDBRANCH   1   5
BRANCH   2  14
HETATM   14  C   UNL     1      36.141  44.417  64.851  1.00  0.00     0.114 C 
HETATM   15  C   UNL     1      35.174  44.021  65.969  1.00  0.00     0.037 C 
BRANCH  14  16
HETATM   16  C   UNL     1      37.051  43.290  64.391  1.00  0.00    -0.036 A 
HETATM   17  C   UNL     1      37.722  43.319  63.158  1.00  0.00     0.010 A 
HETATM   18  C   UNL     1      38.507  42.239  62.747  1.00  0.00     0.019 A 
HETATM   19  C   UNL     1      38.619  41.113  63.561  1.00  0.00     0.011 A 
HETATM   20 BR   UNL     1      39.671  39.649  62.998  1.00  0.00    -0.051 Br
HETATM   21  C   UNL     1      37.951  41.057  64.780  1.00  0.00     0.019 A 
HETATM   22  C   UNL     1      37.167  42.139  65.189  1.00  0.00     0.010 A 
ENDBRANCH  14  16
ENDBRANCH   2  14
TORSDOF 5
ENDMDL
