MODEL 1
REMARK VINA RESULT:      -9.3      0.000      0.000
REMARK  6 active torsions:
REMARK  status: ('A' for Active; 'I' for Inactive)
REMARK    1  A    between atoms: C_5  and  N_6 
REMARK    2  A    between atoms: N_6  and  C_7 
REMARK    3  A    between atoms: C_7  and  C_8 
REMARK    4  A    between atoms: N_10  and  C_12 
REMARK    5  A    between atoms: C_12  and  C_13 
REMARK    6  A    between atoms: C_14  and  C_15 
ROOT
HETATM    1  C   UNL     1      24.524  45.135  49.892  1.00  0.00     0.031 C 
HETATM    2  C   UNL     1      25.890  44.606  49.442  1.00  0.00     0.241 C 
HETATM    3  N   UNL     1      26.203  43.444  50.367  1.00  0.00    -0.067 N 
HETATM    4  H   UNL     1      26.294  42.598  49.787  1.00  0.00     0.280 HD
HETATM    5  C   UNL     1      24.999  43.222  51.257  1.00  0.00     0.235 C 
HETATM    6  C   UNL     1      23.872  43.892  50.496  1.00  0.00     0.035 C 
ENDROOT
BRANCH   3   7
HETATM    7  C   UNL     1      27.531  43.564  51.084  1.00  0.00     0.277 C 
BRANCH   7   8
HETATM    8  C   UNL     1      27.898  42.377  51.892  1.00  0.00     0.016 A 
HETATM    9  C   UNL     1      28.349  42.353  53.250  1.00  0.00     0.102 A 
HETATM   10  N   UNL     1      28.533  41.094  53.661  1.00  0.00    -0.174 NA
HETATM   11  N   UNL     1      28.335  40.331  52.583  1.00  0.00    -0.288 N 
HETATM   12  H   UNL     1      28.491  39.329  52.667  1.00  0.00     0.188 HD
HETATM   13  C   UNL     1      27.925  41.050  51.496  1.00  0.00     0.120 A 
BRANCH   9  14
HETATM   14  C   UNL     1      28.601  43.457  54.165  1.00  0.00     0.072 A 
HETATM   15  C   UNL     1      27.585  44.328  54.564  1.00  0.00     0.132 A 
HETATM   16  F   UNL     1      26.342  44.201  54.063  1.00  0.00    -0.205 F 
HETATM   17  C   UNL     1      27.831  45.373  55.457  1.00  0.00     0.043 A 
HETATM   18  C   UNL     1      29.115  45.560  55.968  1.00  0.00     0.006 A 
HETATM   19  C   UNL     1      30.145  44.707  55.574  1.00  0.00     0.043 A 
HETATM   20  C   UNL     1      29.884  43.667  54.682  1.00  0.00     0.132 A 
HETATM   21  F   UNL     1      30.910  42.896  54.292  1.00  0.00    -0.205 F 
ENDBRANCH   9  14
ENDBRANCH   7   8
ENDBRANCH   3   7
BRANCH   1  22
HETATM   22  C   UNL     1      24.655  46.303  50.894  1.00  0.00     0.127 C 
BRANCH  22  23
HETATM   23  N   UNL     1      25.931  46.996  50.692  1.00  0.00    -0.376 N 
HETATM   24  H   UNL     1      26.503  47.051  51.531  1.00  0.00     0.161 HD
BRANCH  23  25
HETATM   25  C   UNL     1      26.045  48.054  49.802  1.00  0.00     0.101 A 
HETATM   26  N   UNL     1      24.914  48.568  49.280  1.00  0.00    -0.347 N 
HETATM   27  C   UNL     1      24.877  49.616  48.435  1.00  0.00     0.007 A 
HETATM   28  H   UNL     1      24.033  48.146  49.554  1.00  0.00     0.167 HD
HETATM   29  C   UNL     1      23.554  50.091  47.923  1.00  0.00     0.068 C 
HETATM   30  C   UNL     1      26.068  50.239  48.070  1.00  0.00     0.025 A 
HETATM   31  C   UNL     1      27.262  49.769  48.595  1.00  0.00     0.006 A 
HETATM   32  C   UNL     1      27.251  48.682  49.466  1.00  0.00     0.048 A 
ENDBRANCH  23  25
ENDBRANCH  22  23
ENDBRANCH   1  22
TORSDOF 6
ENDMDL
MODEL 2
REMARK VINA RESULT:      -9.2      1.052      2.102
REMARK  6 active torsions:
REMARK  status: ('A' for Active; 'I' for Inactive)
REMARK    1  A    between atoms: C_5  and  N_6 
REMARK    2  A    between atoms: N_6  and  C_7 
REMARK    3  A    between atoms: C_7  and  C_8 
REMARK    4  A    between atoms: N_10  and  C_12 
REMARK    5  A    between atoms: C_12  and  C_13 
REMARK    6  A    between atoms: C_14  and  C_15 
ROOT
HETATM    1  C   UNL     1      24.918  45.415  49.695  1.00  0.00     0.031 C 
HETATM    2  C   UNL     1      26.260  44.720  49.439  1.00  0.00     0.241 C 
HETATM    3  N   UNL     1      26.386  43.665  50.522  1.00  0.00    -0.067 N 
HETATM    4  H   UNL     1      26.444  42.747  50.059  1.00  0.00     0.280 HD
HETATM    5  C   UNL     1      25.100  43.661  51.319  1.00  0.00     0.235 C 
HETATM    6  C   UNL     1      24.106  44.320  50.383  1.00  0.00     0.035 C 
ENDROOT
BRANCH   3   7
HETATM    7  C   UNL     1      27.658  43.766  51.338  1.00  0.00     0.277 C 
BRANCH   7   8
HETATM    8  C   UNL     1      27.952  42.567  52.158  1.00  0.00     0.016 A 
HETATM    9  C   UNL     1      28.396  42.530  53.519  1.00  0.00     0.102 A 
HETATM   10  N   UNL     1      28.506  41.267  53.944  1.00  0.00    -0.174 NA
HETATM   11  N   UNL     1      28.268  40.507  52.872  1.00  0.00    -0.288 N 
HETATM   12  H   UNL     1      28.365  39.498  52.966  1.00  0.00     0.188 HD
HETATM   13  C   UNL     1      27.904  41.237  51.776  1.00  0.00     0.120 A 
BRANCH   9  14
HETATM   14  C   UNL     1      28.709  43.628  54.424  1.00  0.00     0.072 A 
HETATM   15  C   UNL     1      29.990  43.803  54.952  1.00  0.00     0.132 A 
HETATM   16  F   UNL     1      30.967  42.920  54.678  1.00  0.00    -0.205 F 
HETATM   17  C   UNL     1      30.285  44.870  55.804  1.00  0.00     0.043 A 
HETATM   18  C   UNL     1      29.289  45.784  56.141  1.00  0.00     0.006 A 
HETATM   19  C   UNL     1      28.001  45.621  55.632  1.00  0.00     0.043 A 
HETATM   20  C   UNL     1      27.721  44.551  54.782  1.00  0.00     0.132 A 
HETATM   21  F   UNL     1      26.460  44.401  54.349  1.00  0.00    -0.205 F 
ENDBRANCH   9  14
ENDBRANCH   7   8
ENDBRANCH   3   7
BRANCH   1  22
HETATM   22  C   UNL     1      25.078  46.687  50.555  1.00  0.00     0.127 C 
BRANCH  22  23
HETATM   23  N   UNL     1      23.861  47.501  50.481  1.00  0.00    -0.376 N 
HETATM   24  H   UNL     1      23.007  46.972  50.642  1.00  0.00     0.161 HD
BRANCH  23  25
HETATM   25  C   UNL     1      23.762  48.574  49.608  1.00  0.00     0.101 A 
HETATM   26  N   UNL     1      22.612  49.276  49.595  1.00  0.00    -0.347 N 
HETATM   27  C   UNL     1      22.393  50.360  48.826  1.00  0.00     0.007 A 
HETATM   28  H   UNL     1      21.869  48.975  50.217  1.00  0.00     0.167 HD
HETATM   29  C   UNL     1      21.069  51.051  48.903  1.00  0.00     0.068 C 
HETATM   30  C   UNL     1      23.409  50.817  47.990  1.00  0.00     0.025 A 
HETATM   31  C   UNL     1      24.625  50.149  47.979  1.00  0.00     0.006 A 
HETATM   32  C   UNL     1      24.804  49.032  48.792  1.00  0.00     0.048 A 
ENDBRANCH  23  25
ENDBRANCH  22  23
ENDBRANCH   1  22
TORSDOF 6
ENDMDL
MODEL 3
REMARK VINA RESULT:      -9.2      2.921      8.326
REMARK  6 active torsions:
REMARK  status: ('A' for Active; 'I' for Inactive)
REMARK    1  A    between atoms: C_5  and  N_6 
REMARK    2  A    between atoms: N_6  and  C_7 
REMARK    3  A    between atoms: C_7  and  C_8 
REMARK    4  A    between atoms: N_10  and  C_12 
REMARK    5  A    between atoms: C_12  and  C_13 
REMARK    6  A    between atoms: C_14  and  C_15 
ROOT
HETATM    1  C   UNL     1      25.305  43.940  51.177  1.00  0.00     0.031 C 
HETATM    2  C   UNL     1      24.502  45.094  50.566  1.00  0.00     0.241 C 
HETATM    3  N   UNL     1      25.531  46.034  49.966  1.00  0.00    -0.067 N 
HETATM    4  H   UNL     1      25.348  46.094  48.954  1.00  0.00     0.280 HD
HETATM    5  C   UNL     1      26.892  45.390  50.114  1.00  0.00     0.235 C 
HETATM    6  C   UNL     1      26.565  43.923  50.314  1.00  0.00     0.035 C 
ENDROOT
BRANCH   3   7
HETATM    7  C   UNL     1      25.428  47.461  50.460  1.00  0.00     0.277 C 
BRANCH   7   8
HETATM    8  C   UNL     1      25.640  48.487  49.412  1.00  0.00     0.016 A 
HETATM    9  C   UNL     1      24.643  49.271  48.746  1.00  0.00     0.102 A 
HETATM   10  N   UNL     1      25.214  50.133  47.897  1.00  0.00    -0.174 NA
HETATM   11  N   UNL     1      26.516  49.841  47.911  1.00  0.00    -0.288 N 
HETATM   12  H   UNL     1      27.130  50.346  47.275  1.00  0.00     0.188 HD
HETATM   13  C   UNL     1      26.832  48.875  48.824  1.00  0.00     0.120 A 
BRANCH   9  14
HETATM   14  C   UNL     1      23.194  49.244  48.885  1.00  0.00     0.072 A 
HETATM   15  C   UNL     1      22.448  48.103  48.580  1.00  0.00     0.132 A 
HETATM   16  F   UNL     1      23.051  47.004  48.091  1.00  0.00    -0.205 F 
HETATM   17  C   UNL     1      21.060  48.080  48.736  1.00  0.00     0.043 A 
HETATM   18  C   UNL     1      20.396  49.212  49.204  1.00  0.00     0.006 A 
HETATM   19  C   UNL     1      21.122  50.364  49.504  1.00  0.00     0.043 A 
HETATM   20  C   UNL     1      22.507  50.372  49.345  1.00  0.00     0.132 A 
HETATM   21  F   UNL     1      23.166  51.512  49.602  1.00  0.00    -0.205 F 
ENDBRANCH   9  14
ENDBRANCH   7   8
ENDBRANCH   3   7
BRANCH   1  22
HETATM   22  C   UNL     1      25.596  44.166  52.677  1.00  0.00     0.127 C 
BRANCH  22  23
HETATM   23  N   UNL     1      26.499  43.124  53.175  1.00  0.00    -0.376 N 
HETATM   24  H   UNL     1      26.017  42.298  53.521  1.00  0.00     0.161 HD
BRANCH  23  25
HETATM   25  C   UNL     1      27.694  43.444  53.802  1.00  0.00     0.101 A 
HETATM   26  N   UNL     1      27.751  44.586  54.513  1.00  0.00    -0.347 N 
HETATM   27  C   UNL     1      28.834  45.000  55.199  1.00  0.00     0.007 A 
HETATM   28  H   UNL     1      26.918  45.165  54.544  1.00  0.00     0.167 HD
HETATM   29  C   UNL     1      28.770  46.293  55.949  1.00  0.00     0.068 C 
HETATM   30  C   UNL     1      29.979  44.208  55.205  1.00  0.00     0.025 A 
HETATM   31  C   UNL     1      29.972  43.007  54.510  1.00  0.00     0.006 A 
HETATM   32  C   UNL     1      28.828  42.621  53.815  1.00  0.00     0.048 A 
ENDBRANCH  23  25
ENDBRANCH  22  23
ENDBRANCH   1  22
TORSDOF 6
ENDMDL
MODEL 4
REMARK VINA RESULT:      -9.0      2.856      6.699
REMARK  6 active torsions:
REMARK  status: ('A' for Active; 'I' for Inactive)
REMARK    1  A    between atoms: C_5  and  N_6 
REMARK    2  A    between atoms: N_6  and  C_7 
REMARK    3  A    between atoms: C_7  and  C_8 
REMARK    4  A    between atoms: N_10  and  C_12 
REMARK    5  A    between atoms: C_12  and  C_13 
REMARK    6  A    between atoms: C_14  and  C_15 
ROOT
HETATM    1  C   UNL     1      28.790  41.602  53.229  1.00  0.00     0.031 C 
HETATM    2  C   UNL     1      27.368  42.032  52.848  1.00  0.00     0.241 C 
HETATM    3  N   UNL     1      27.162  41.547  51.425  1.00  0.00    -0.067 N 
HETATM    4  H   UNL     1      26.373  40.885  51.432  1.00  0.00     0.280 HD
HETATM    5  C   UNL     1      28.384  40.749  51.024  1.00  0.00     0.235 C 
HETATM    6  C   UNL     1      29.005  40.368  52.354  1.00  0.00     0.035 C 
ENDROOT
BRANCH   3   7
HETATM    7  C   UNL     1      26.746  42.632  50.456  1.00  0.00     0.277 C 
BRANCH   7   8
HETATM    8  C   UNL     1      25.291  42.917  50.447  1.00  0.00     0.016 A 
HETATM    9  C   UNL     1      24.618  44.028  51.049  1.00  0.00     0.102 A 
HETATM   10  N   UNL     1      23.307  43.980  50.788  1.00  0.00    -0.174 NA
HETATM   11  N   UNL     1      23.110  42.823  50.150  1.00  0.00    -0.288 N 
HETATM   12  H   UNL     1      22.156  42.559  49.915  1.00  0.00     0.188 HD
HETATM   13  C   UNL     1      24.275  42.155  49.896  1.00  0.00     0.120 A 
BRANCH   9  14
HETATM   14  C   UNL     1      25.157  45.121  51.845  1.00  0.00     0.072 A 
HETATM   15  C   UNL     1      25.624  46.298  51.255  1.00  0.00     0.132 A 
HETATM   16  F   UNL     1      25.638  46.431  49.916  1.00  0.00    -0.205 F 
HETATM   17  C   UNL     1      26.122  47.351  52.027  1.00  0.00     0.043 A 
HETATM   18  C   UNL     1      26.158  47.234  53.416  1.00  0.00     0.006 A 
HETATM   19  C   UNL     1      25.706  46.063  54.023  1.00  0.00     0.043 A 
HETATM   20  C   UNL     1      25.211  45.022  53.239  1.00  0.00     0.132 A 
HETATM   21  F   UNL     1      24.827  43.894  53.856  1.00  0.00    -0.205 F 
ENDBRANCH   9  14
ENDBRANCH   7   8
ENDBRANCH   3   7
BRANCH   1  22
HETATM   22  C   UNL     1      29.823  42.721  52.971  1.00  0.00     0.127 C 
BRANCH  22  23
HETATM   23  N   UNL     1      30.563  43.013  54.202  1.00  0.00    -0.376 N 
HETATM   24  H   UNL     1      31.023  42.200  54.604  1.00  0.00     0.161 HD
BRANCH  23  25
HETATM   25  C   UNL     1      30.122  43.974  55.099  1.00  0.00     0.101 A 
HETATM   26  N   UNL     1      30.789  44.110  56.261  1.00  0.00    -0.347 N 
HETATM   27  C   UNL     1      30.492  45.024  57.205  1.00  0.00     0.007 A 
HETATM   28  H   UNL     1      31.576  43.491  56.429  1.00  0.00     0.167 HD
HETATM   29  C   UNL     1      31.311  45.071  58.456  1.00  0.00     0.068 C 
HETATM   30  C   UNL     1      29.441  45.910  56.986  1.00  0.00     0.025 A 
HETATM   31  C   UNL     1      28.732  45.835  55.796  1.00  0.00     0.006 A 
HETATM   32  C   UNL     1      29.076  44.872  54.850  1.00  0.00     0.048 A 
ENDBRANCH  23  25
ENDBRANCH  22  23
ENDBRANCH   1  22
TORSDOF 6
ENDMDL
MODEL 5
REMARK VINA RESULT:      -8.9      1.998      4.342
REMARK  6 active torsions:
REMARK  status: ('A' for Active; 'I' for Inactive)
REMARK    1  A    between atoms: C_5  and  N_6 
REMARK    2  A    between atoms: N_6  and  C_7 
REMARK    3  A    between atoms: C_7  and  C_8 
REMARK    4  A    between atoms: N_10  and  C_12 
REMARK    5  A    between atoms: C_12  and  C_13 
REMARK    6  A    between atoms: C_14  and  C_15 
ROOT
HETATM    1  C   UNL     1      28.525  42.105  51.567  1.00  0.00     0.031 C 
HETATM    2  C   UNL     1      28.782  43.231  52.575  1.00  0.00     0.241 C 
HETATM    3  N   UNL     1      28.371  42.671  53.925  1.00  0.00    -0.067 N 
HETATM    4  H   UNL     1      29.204  42.679  54.532  1.00  0.00     0.280 HD
HETATM    5  C   UNL     1      27.999  41.217  53.731  1.00  0.00     0.235 C 
HETATM    6  C   UNL     1      28.680  40.852  52.426  1.00  0.00     0.035 C 
ENDROOT
BRANCH   3   7
HETATM    7  C   UNL     1      27.351  43.514  54.660  1.00  0.00     0.277 C 
BRANCH   7   8
HETATM    8  C   UNL     1      27.561  44.975  54.534  1.00  0.00     0.016 A 
HETATM    9  C   UNL     1      28.508  45.783  55.241  1.00  0.00     0.102 A 
HETATM   10  N   UNL     1      28.445  47.053  54.825  1.00  0.00    -0.174 NA
HETATM   11  N   UNL     1      27.417  47.102  53.975  1.00  0.00    -0.288 N 
HETATM   12  H   UNL     1      27.155  48.005  53.588  1.00  0.00     0.188 HD
HETATM   13  C   UNL     1      26.865  45.874  53.743  1.00  0.00     0.120 A 
BRANCH   9  14
HETATM   14  C   UNL     1      29.462  45.406  56.275  1.00  0.00     0.072 A 
HETATM   15  C   UNL     1      29.333  45.852  57.592  1.00  0.00     0.132 A 
HETATM   16  F   UNL     1      28.343  46.696  57.932  1.00  0.00    -0.205 F 
HETATM   17  C   UNL     1      30.242  45.469  58.581  1.00  0.00     0.043 A 
HETATM   18  C   UNL     1      31.303  44.625  58.258  1.00  0.00     0.006 A 
HETATM   19  C   UNL     1      31.455  44.178  56.946  1.00  0.00     0.043 A 
HETATM   20  C   UNL     1      30.539  44.568  55.970  1.00  0.00     0.132 A 
HETATM   21  F   UNL     1      30.744  44.153  54.710  1.00  0.00    -0.205 F 
ENDBRANCH   9  14
ENDBRANCH   7   8
ENDBRANCH   3   7
BRANCH   1  22
HETATM   22  C   UNL     1      27.135  42.224  50.905  1.00  0.00     0.127 C 
BRANCH  22  23
HETATM   23  N   UNL     1      27.132  43.323  49.936  1.00  0.00    -0.376 N 
HETATM   24  H   UNL     1      28.019  43.442  49.452  1.00  0.00     0.161 HD
BRANCH  23  25
HETATM   25  C   UNL     1      26.393  44.476  50.152  1.00  0.00     0.101 A 
HETATM   26  N   UNL     1      26.934  45.654  49.787  1.00  0.00    -0.347 N 
HETATM   27  C   UNL     1      26.314  46.844  49.906  1.00  0.00     0.007 A 
HETATM   28  H   UNL     1      27.864  45.641  49.382  1.00  0.00     0.167 HD
HETATM   29  C   UNL     1      27.025  48.083  49.464  1.00  0.00     0.068 C 
HETATM   30  C   UNL     1      25.023  46.889  50.425  1.00  0.00     0.025 A 
HETATM   31  C   UNL     1      24.404  45.704  50.796  1.00  0.00     0.006 A 
HETATM   32  C   UNL     1      25.085  44.498  50.654  1.00  0.00     0.048 A 
ENDBRANCH  23  25
ENDBRANCH  22  23
ENDBRANCH   1  22
TORSDOF 6
ENDMDL
MODEL 6
REMARK VINA RESULT:      -8.8      2.797      7.706
REMARK  6 active torsions:
REMARK  status: ('A' for Active; 'I' for Inactive)
REMARK    1  A    between atoms: C_5  and  N_6 
REMARK    2  A    between atoms: N_6  and  C_7 
REMARK    3  A    between atoms: C_7  and  C_8 
REMARK    4  A    between atoms: N_10  and  C_12 
REMARK    5  A    between atoms: C_12  and  C_13 
REMARK    6  A    between atoms: C_14  and  C_15 
ROOT
HETATM    1  C   UNL     1      26.743  44.336  55.036  1.00  0.00     0.031 C 
HETATM    2  C   UNL     1      26.751  45.856  54.839  1.00  0.00     0.241 C 
HETATM    3  N   UNL     1      25.722  46.132  53.757  1.00  0.00    -0.067 N 
HETATM    4  H   UNL     1      24.995  46.737  54.165  1.00  0.00     0.280 HD
HETATM    5  C   UNL     1      25.044  44.823  53.416  1.00  0.00     0.235 C 
HETATM    6  C   UNL     1      25.320  43.958  54.630  1.00  0.00     0.035 C 
ENDROOT
BRANCH   3   7
HETATM    7  C   UNL     1      26.259  46.916  52.579  1.00  0.00     0.277 C 
BRANCH   7   8
HETATM    8  C   UNL     1      26.537  46.095  51.376  1.00  0.00     0.016 A 
HETATM    9  C   UNL     1      26.402  46.485  50.005  1.00  0.00     0.102 A 
HETATM   10  N   UNL     1      26.796  45.496  49.195  1.00  0.00    -0.174 NA
HETATM   11  N   UNL     1      27.058  44.460  49.995  1.00  0.00    -0.288 N 
HETATM   12  H   UNL     1      27.316  43.573  49.566  1.00  0.00     0.188 HD
HETATM   13  C   UNL     1      26.943  44.772  51.320  1.00  0.00     0.120 A 
BRANCH   9  14
HETATM   14  C   UNL     1      25.929  47.740  49.439  1.00  0.00     0.072 A 
HETATM   15  C   UNL     1      24.569  48.052  49.377  1.00  0.00     0.132 A 
HETATM   16  F   UNL     1      23.646  47.167  49.795  1.00  0.00    -0.205 F 
HETATM   17  C   UNL     1      24.125  49.267  48.850  1.00  0.00     0.043 A 
HETATM   18  C   UNL     1      25.050  50.194  48.372  1.00  0.00     0.006 A 
HETATM   19  C   UNL     1      26.412  49.896  48.416  1.00  0.00     0.043 A 
HETATM   20  C   UNL     1      26.840  48.680  48.946  1.00  0.00     0.132 A 
HETATM   21  F   UNL     1      28.154  48.411  48.929  1.00  0.00    -0.205 F 
ENDBRANCH   9  14
ENDBRANCH   7   8
ENDBRANCH   3   7
BRANCH   1  22
HETATM   22  C   UNL     1      27.826  43.636  54.187  1.00  0.00     0.127 C 
BRANCH  22  23
HETATM   23  N   UNL     1      29.090  44.373  54.277  1.00  0.00    -0.376 N 
HETATM   24  H   UNL     1      29.540  44.521  53.377  1.00  0.00     0.161 HD
BRANCH  23  25
HETATM   25  C   UNL     1      29.933  44.231  55.368  1.00  0.00     0.101 A 
HETATM   26  N   UNL     1      29.911  45.188  56.316  1.00  0.00    -0.347 N 
HETATM   27  C   UNL     1      30.649  45.159  57.442  1.00  0.00     0.007 A 
HETATM   28  H   UNL     1      29.285  45.975  56.177  1.00  0.00     0.167 HD
HETATM   29  C   UNL     1      30.534  46.287  58.417  1.00  0.00     0.068 C 
HETATM   30  C   UNL     1      31.489  44.073  57.677  1.00  0.00     0.025 A 
HETATM   31  C   UNL     1      31.536  43.044  56.748  1.00  0.00     0.006 A 
HETATM   32  C   UNL     1      30.754  43.118  55.598  1.00  0.00     0.048 A 
ENDBRANCH  23  25
ENDBRANCH  22  23
ENDBRANCH   1  22
TORSDOF 6
ENDMDL
MODEL 7
REMARK VINA RESULT:      -8.8      2.497      7.602
REMARK  6 active torsions:
REMARK  status: ('A' for Active; 'I' for Inactive)
REMARK    1  A    between atoms: C_5  and  N_6 
REMARK    2  A    between atoms: N_6  and  C_7 
REMARK    3  A    between atoms: C_7  and  C_8 
REMARK    4  A    between atoms: N_10  and  C_12 
REMARK    5  A    between atoms: C_12  and  C_13 
REMARK    6  A    between atoms: C_14  and  C_15 
ROOT
HETATM    1  C   UNL     1      27.912  42.854  53.830  1.00  0.00     0.031 C 
HETATM    2  C   UNL     1      26.528  43.475  54.049  1.00  0.00     0.241 C 
HETATM    3  N   UNL     1      25.851  43.450  52.691  1.00  0.00    -0.067 N 
HETATM    4  H   UNL     1      25.002  42.872  52.776  1.00  0.00     0.280 HD
HETATM    5  C   UNL     1      26.766  42.724  51.728  1.00  0.00     0.235 C 
HETATM    6  C   UNL     1      27.672  41.923  52.643  1.00  0.00     0.035 C 
ENDROOT
BRANCH   3   7
HETATM    7  C   UNL     1      25.352  44.800  52.223  1.00  0.00     0.277 C 
BRANCH   7   8
HETATM    8  C   UNL     1      24.537  44.755  50.986  1.00  0.00     0.016 A 
HETATM    9  C   UNL     1      24.648  45.603  49.838  1.00  0.00     0.102 A 
HETATM   10  N   UNL     1      23.780  45.229  48.892  1.00  0.00    -0.174 NA
HETATM   11  N   UNL     1      23.044  44.260  49.443  1.00  0.00    -0.288 N 
HETATM   12  H   UNL     1      22.271  43.877  48.903  1.00  0.00     0.188 HD
HETATM   13  C   UNL     1      23.474  43.917  50.693  1.00  0.00     0.120 A 
BRANCH   9  14
HETATM   14  C   UNL     1      25.536  46.732  49.600  1.00  0.00     0.072 A 
HETATM   15  C   UNL     1      26.919  46.569  49.492  1.00  0.00     0.132 A 
HETATM   16  F   UNL     1      27.479  45.358  49.663  1.00  0.00    -0.205 F 
HETATM   17  C   UNL     1      27.762  47.655  49.243  1.00  0.00     0.043 A 
HETATM   18  C   UNL     1      27.222  48.932  49.099  1.00  0.00     0.006 A 
HETATM   19  C   UNL     1      25.845  49.116  49.213  1.00  0.00     0.043 A 
HETATM   20  C   UNL     1      25.016  48.023  49.460  1.00  0.00     0.132 A 
HETATM   21  F   UNL     1      23.701  48.246  49.608  1.00  0.00    -0.205 F 
ENDBRANCH   9  14
ENDBRANCH   7   8
ENDBRANCH   3   7
BRANCH   1  22
HETATM   22  C   UNL     1      28.992  43.924  53.558  1.00  0.00     0.127 C 
BRANCH  22  23
HETATM   23  N   UNL     1      28.792  45.076  54.441  1.00  0.00    -0.376 N 
HETATM   24  H   UNL     1      28.717  45.961  53.946  1.00  0.00     0.161 HD
BRANCH  23  25
HETATM   25  C   UNL     1      29.363  45.126  55.703  1.00  0.00     0.101 A 
HETATM   26  N   UNL     1      30.386  44.291  55.970  1.00  0.00    -0.347 N 
HETATM   27  C   UNL     1      31.055  44.258  57.139  1.00  0.00     0.007 A 
HETATM   28  H   UNL     1      30.680  43.655  55.236  1.00  0.00     0.167 HD
HETATM   29  C   UNL     1      32.174  43.280  57.310  1.00  0.00     0.068 C 
HETATM   30  C   UNL     1      30.697  45.144  58.152  1.00  0.00     0.025 A 
HETATM   31  C   UNL     1      29.667  46.045  57.927  1.00  0.00     0.006 A 
HETATM   32  C   UNL     1      29.004  46.041  56.702  1.00  0.00     0.048 A 
ENDBRANCH  23  25
ENDBRANCH  22  23
ENDBRANCH   1  22
TORSDOF 6
ENDMDL
MODEL 8
REMARK VINA RESULT:      -8.7     11.869     14.221
REMARK  6 active torsions:
REMARK  status: ('A' for Active; 'I' for Inactive)
REMARK    1  A    between atoms: C_5  and  N_6 
REMARK    2  A    between atoms: N_6  and  C_7 
REMARK    3  A    between atoms: C_7  and  C_8 
REMARK    4  A    between atoms: N_10  and  C_12 
REMARK    5  A    between atoms: C_12  and  C_13 
REMARK    6  A    between atoms: C_14  and  C_15 
ROOT
HETATM    1  C   UNL     1      30.614  47.200  40.150  1.00  0.00     0.031 C 
HETATM    2  C   UNL     1      29.501  47.458  41.172  1.00  0.00     0.241 C 
HETATM    3  N   UNL     1      28.272  47.814  40.356  1.00  0.00    -0.067 N 
HETATM    4  H   UNL     1      27.547  47.111  40.560  1.00  0.00     0.280 HD
HETATM    5  C   UNL     1      28.623  47.651  38.893  1.00  0.00     0.235 C 
HETATM    6  C   UNL     1      29.832  46.737  38.922  1.00  0.00     0.035 C 
ENDROOT
BRANCH   3   7
HETATM    7  C   UNL     1      27.641  49.138  40.732  1.00  0.00     0.277 C 
BRANCH   7   8
HETATM    8  C   UNL     1      27.282  49.992  39.575  1.00  0.00     0.016 A 
HETATM    9  C   UNL     1      27.991  51.134  39.082  1.00  0.00     0.102 A 
HETATM   10  N   UNL     1      27.396  51.620  37.987  1.00  0.00    -0.174 NA
HETATM   11  N   UNL     1      26.276  50.908  37.842  1.00  0.00    -0.288 N 
HETATM   12  H   UNL     1      25.635  51.164  37.094  1.00  0.00     0.188 HD
HETATM   13  C   UNL     1      26.170  49.897  38.756  1.00  0.00     0.120 A 
BRANCH   9  14
HETATM   14  C   UNL     1      29.197  51.770  39.593  1.00  0.00     0.072 A 
HETATM   15  C   UNL     1      29.178  52.569  40.738  1.00  0.00     0.132 A 
HETATM   16  F   UNL     1      28.020  52.819  41.376  1.00  0.00    -0.205 F 
HETATM   17  C   UNL     1      30.344  53.159  41.232  1.00  0.00     0.043 A 
HETATM   18  C   UNL     1      31.556  52.954  40.576  1.00  0.00     0.006 A 
HETATM   19  C   UNL     1      31.594  52.168  39.425  1.00  0.00     0.043 A 
HETATM   20  C   UNL     1      30.422  51.584  38.944  1.00  0.00     0.132 A 
HETATM   21  F   UNL     1      30.491  50.872  37.810  1.00  0.00    -0.205 F 
ENDBRANCH   9  14
ENDBRANCH   7   8
ENDBRANCH   3   7
BRANCH   1  22
HETATM   22  C   UNL     1      31.467  48.461  39.891  1.00  0.00     0.127 C 
BRANCH  22  23
HETATM   23  N   UNL     1      32.651  48.452  40.756  1.00  0.00    -0.376 N 
HETATM   24  H   UNL     1      32.977  47.518  40.991  1.00  0.00     0.161 HD
BRANCH  23  25
HETATM   25  C   UNL     1      32.850  49.432  41.717  1.00  0.00     0.101 A 
HETATM   26  N   UNL     1      34.018  50.102  41.706  1.00  0.00    -0.347 N 
HETATM   27  C   UNL     1      34.329  51.100  42.557  1.00  0.00     0.007 A 
HETATM   28  H   UNL     1      34.702  49.847  41.001  1.00  0.00     0.167 HD
HETATM   29  C   UNL     1      35.663  51.765  42.442  1.00  0.00     0.068 C 
HETATM   30  C   UNL     1      33.395  51.496  43.511  1.00  0.00     0.025 A 
HETATM   31  C   UNL     1      32.164  50.858  43.554  1.00  0.00     0.006 A 
HETATM   32  C   UNL     1      31.888  49.832  42.653  1.00  0.00     0.048 A 
ENDBRANCH  23  25
ENDBRANCH  22  23
ENDBRANCH   1  22
TORSDOF 6
ENDMDL
MODEL 9
REMARK VINA RESULT:      -8.7     11.461     13.590
REMARK  6 active torsions:
REMARK  status: ('A' for Active; 'I' for Inactive)
REMARK    1  A    between atoms: C_5  and  N_6 
REMARK    2  A    between atoms: N_6  and  C_7 
REMARK    3  A    between atoms: C_7  and  C_8 
REMARK    4  A    between atoms: N_10  and  C_12 
REMARK    5  A    between atoms: C_12  and  C_13 
REMARK    6  A    between atoms: C_14  and  C_15 
ROOT
HETATM    1  C   UNL     1      29.198  53.059  40.716  1.00  0.00     0.031 C 
HETATM    2  C   UNL     1      29.113  52.718  39.224  1.00  0.00     0.241 C 
HETATM    3  N   UNL     1      28.123  51.572  39.122  1.00  0.00    -0.067 N 
HETATM    4  H   UNL     1      27.337  51.889  38.536  1.00  0.00     0.280 HD
HETATM    5  C   UNL     1      27.552  51.328  40.503  1.00  0.00     0.235 C 
HETATM    6  C   UNL     1      27.825  52.630  41.230  1.00  0.00     0.035 C 
ENDROOT
BRANCH   3   7
HETATM    7  C   UNL     1      28.663  50.349  38.414  1.00  0.00     0.277 C 
BRANCH   7   8
HETATM    8  C   UNL     1      28.057  49.070  38.856  1.00  0.00     0.016 A 
HETATM    9  C   UNL     1      28.568  48.155  39.832  1.00  0.00     0.102 A 
HETATM   10  N   UNL     1      27.721  47.135  40.008  1.00  0.00    -0.174 NA
HETATM   11  N   UNL     1      26.759  47.307  39.098  1.00  0.00    -0.288 N 
HETATM   12  H   UNL     1      26.038  46.593  39.019  1.00  0.00     0.188 HD
HETATM   13  C   UNL     1      26.898  48.469  38.395  1.00  0.00     0.120 A 
BRANCH   9  14
HETATM   14  C   UNL     1      29.805  48.210  40.599  1.00  0.00     0.072 A 
HETATM   15  C   UNL     1      31.029  47.828  40.048  1.00  0.00     0.132 A 
HETATM   16  F   UNL     1      31.091  47.341  38.795  1.00  0.00    -0.205 F 
HETATM   17  C   UNL     1      32.214  47.903  40.785  1.00  0.00     0.043 A 
HETATM   18  C   UNL     1      32.184  48.367  42.099  1.00  0.00     0.006 A 
HETATM   19  C   UNL     1      30.969  48.744  42.670  1.00  0.00     0.043 A 
HETATM   20  C   UNL     1      29.795  48.665  41.922  1.00  0.00     0.132 A 
HETATM   21  F   UNL     1      28.640  48.994  42.520  1.00  0.00    -0.205 F 
ENDBRANCH   9  14
ENDBRANCH   7   8
ENDBRANCH   3   7
BRANCH   1  22
HETATM   22  C   UNL     1      30.366  52.328  41.412  1.00  0.00     0.127 C 
BRANCH  22  23
HETATM   23  N   UNL     1      31.451  52.091  40.456  1.00  0.00    -0.376 N 
HETATM   24  H   UNL     1      31.141  51.673  39.582  1.00  0.00     0.161 HD
BRANCH  23  25
HETATM   25  C   UNL     1      32.726  51.748  40.880  1.00  0.00     0.101 A 
HETATM   26  N   UNL     1      33.051  51.983  42.166  1.00  0.00    -0.347 N 
HETATM   27  C   UNL     1      34.238  51.667  42.720  1.00  0.00     0.007 A 
HETATM   28  H   UNL     1      32.348  52.413  42.759  1.00  0.00     0.167 HD
HETATM   29  C   UNL     1      34.475  51.983  44.162  1.00  0.00     0.068 C 
HETATM   30  C   UNL     1      35.207  51.043  41.939  1.00  0.00     0.025 A 
HETATM   31  C   UNL     1      34.921  50.753  40.613  1.00  0.00     0.006 A 
HETATM   32  C   UNL     1      33.679  51.098  40.085  1.00  0.00     0.048 A 
ENDBRANCH  23  25
ENDBRANCH  22  23
ENDBRANCH   1  22
TORSDOF 6
ENDMDL
MODEL 10
REMARK VINA RESULT:      -8.7     11.834     14.238
REMARK  6 active torsions:
REMARK  status: ('A' for Active; 'I' for Inactive)
REMARK    1  A    between atoms: C_5  and  N_6 
REMARK    2  A    between atoms: N_6  and  C_7 
REMARK    3  A    between atoms: C_7  and  C_8 
REMARK    4  A    between atoms: N_10  and  C_12 
REMARK    5  A    between atoms: C_12  and  C_13 
REMARK    6  A    between atoms: C_14  and  C_15 
ROOT
HETATM    1  C   UNL     1      30.505  46.847  39.957  1.00  0.00     0.031 C 
HETATM    2  C   UNL     1      29.253  47.090  40.807  1.00  0.00     0.241 C 
HETATM    3  N   UNL     1      28.269  47.796  39.893  1.00  0.00    -0.067 N 
HETATM    4  H   UNL     1      27.433  47.199  39.813  1.00  0.00     0.280 HD
HETATM    5  C   UNL     1      28.882  47.856  38.510  1.00  0.00     0.235 C 
HETATM    6  C   UNL     1      29.932  46.764  38.544  1.00  0.00     0.035 C 
ENDROOT
BRANCH   3   7
HETATM    7  C   UNL     1      27.753  49.111  40.436  1.00  0.00     0.277 C 
BRANCH   7   8
HETATM    8  C   UNL     1      27.368  50.092  39.394  1.00  0.00     0.016 A 
HETATM    9  C   UNL     1      28.087  51.264  38.993  1.00  0.00     0.102 A 
HETATM   10  N   UNL     1      27.459  51.877  37.984  1.00  0.00    -0.174 NA
HETATM   11  N   UNL     1      26.315  51.211  37.815  1.00  0.00    -0.288 N 
HETATM   12  H   UNL     1      25.650  51.561  37.128  1.00  0.00     0.188 HD
HETATM   13  C   UNL     1      26.220  50.111  38.620  1.00  0.00     0.120 A 
BRANCH   9  14
HETATM   14  C   UNL     1      29.331  51.814  39.512  1.00  0.00     0.072 A 
HETATM   15  C   UNL     1      30.571  51.466  38.971  1.00  0.00     0.132 A 
HETATM   16  F   UNL     1      30.653  50.560  37.980  1.00  0.00    -0.205 F 
HETATM   17  C   UNL     1      31.758  52.014  39.463  1.00  0.00     0.043 A 
HETATM   18  C   UNL     1      31.716  52.927  40.516  1.00  0.00     0.006 A 
HETATM   19  C   UNL     1      30.489  53.279  41.075  1.00  0.00     0.043 A 
HETATM   20  C   UNL     1      29.312  52.725  40.573  1.00  0.00     0.132 A 
HETATM   21  F   UNL     1      28.155  53.054  41.167  1.00  0.00    -0.205 F 
ENDBRANCH   9  14
ENDBRANCH   7   8
ENDBRANCH   3   7
BRANCH   1  22
HETATM   22  C   UNL     1      31.549  47.972  40.127  1.00  0.00     0.127 C 
BRANCH  22  23
HETATM   23  N   UNL     1      31.499  48.502  41.492  1.00  0.00    -0.376 N 
HETATM   24  H   UNL     1      30.556  48.568  41.869  1.00  0.00     0.161 HD
BRANCH  23  25
HETATM   25  C   UNL     1      32.402  49.458  41.930  1.00  0.00     0.101 A 
HETATM   26  N   UNL     1      32.054  50.227  42.980  1.00  0.00    -0.347 N 
HETATM   27  C   UNL     1      32.846  51.167  43.529  1.00  0.00     0.007 A 
HETATM   28  H   UNL     1      31.138  50.076  43.391  1.00  0.00     0.167 HD
HETATM   29  C   UNL     1      32.340  51.956  44.694  1.00  0.00     0.068 C 
HETATM   30  C   UNL     1      34.122  51.370  43.008  1.00  0.00     0.025 A 
HETATM   31  C   UNL     1      34.546  50.592  41.942  1.00  0.00     0.006 A 
HETATM   32  C   UNL     1      33.691  49.631  41.407  1.00  0.00     0.048 A 
ENDBRANCH  23  25
ENDBRANCH  22  23
ENDBRANCH   1  22
TORSDOF 6
ENDMDL
