MODEL 1
REMARK VINA RESULT:      -8.0      0.000      0.000
REMARK  2 active torsions:
REMARK  status: ('A' for Active; 'I' for Inactive)
REMARK    1  A    between atoms: C_9  and  O_10 
REMARK    2  A    between atoms: C_9  and  C_11 
ROOT
HETATM    1  C   UNL     1      28.413  47.053  40.506  1.00  0.00     0.048 C 
HETATM    2  C   UNL     1      28.394  48.485  40.055  1.00  0.00    -0.061 A 
HETATM    3  C   UNL     1      29.055  49.475  40.797  1.00  0.00     0.020 A 
HETATM    4  C   UNL     1      29.025  50.784  40.335  1.00  0.00     0.018 A 
HETATM    5  C   UNL     1      28.333  51.102  39.166  1.00  0.00     0.045 A 
HETATM    6  N   UNL     1      28.410  52.463  38.911  1.00  0.00    -0.323 N 
HETATM    7  C   UNL     1      29.161  53.125  39.885  1.00  0.00     0.266 A 
HETATM    8  O   UNL     1      29.355  54.330  39.892  1.00  0.00    -0.269 OA
HETATM    9  C   UNL     1      29.616  52.045  40.934  1.00  0.00     0.199 A 
HETATM   10  C   UNL     1      27.673  50.154  38.414  1.00  0.00     0.031 A 
HETATM   11  C   UNL     1      27.710  48.833  38.868  1.00  0.00     0.009 A 
HETATM   12  H   UNL     1      27.993  52.944  38.129  1.00  0.00     0.169 HD
ENDROOT
BRANCH   9  13
HETATM   13  O   UNL     1      29.011  52.299  42.198  1.00  0.00    -0.371 OA
HETATM   14  H   UNL     1      28.140  52.685  42.014  1.00  0.00     0.212 HD
ENDBRANCH   9  13
BRANCH   9  15
HETATM   15  C   UNL     1      31.114  51.831  40.993  1.00  0.00     0.025 A 
HETATM   16  C   UNL     1      31.922  51.852  42.195  1.00  0.00     0.003 A 
HETATM   17  C   UNL     1      33.240  51.581  41.831  1.00  0.00     0.043 A 
HETATM   18  C   UNL     1      31.654  52.066  43.566  1.00  0.00     0.014 A 
HETATM   19  C   UNL     1      34.292  51.510  42.754  1.00  0.00     0.030 A 
HETATM   20  N   UNL     1      33.255  51.417  40.472  1.00  0.00    -0.359 N 
HETATM   21  C   UNL     1      33.992  51.724  44.101  1.00  0.00     0.002 A 
HETATM   22  C   UNL     1      32.690  51.998  44.504  1.00  0.00     0.001 A 
HETATM   23  H   UNL     1      34.088  51.217  39.936  1.00  0.00     0.166 HD
HETATM   24  C   UNL     1      31.993  51.541  39.947  1.00  0.00     0.016 A 
HETATM   25  C   UNL     1      31.776  51.362  38.485  1.00  0.00     0.069 C 
ENDBRANCH   9  15
TORSDOF 2
ENDMDL
MODEL 2
REMARK VINA RESULT:      -7.9     12.277     13.563
REMARK  2 active torsions:
REMARK  status: ('A' for Active; 'I' for Inactive)
REMARK    1  A    between atoms: C_9  and  O_10 
REMARK    2  A    between atoms: C_9  and  C_11 
ROOT
HETATM    1  C   UNL     1      18.218  50.783  44.513  1.00  0.00     0.048 C 
HETATM    2  C   UNL     1      18.206  50.811  46.015  1.00  0.00    -0.061 A 
HETATM    3  C   UNL     1      18.560  49.671  46.752  1.00  0.00     0.020 A 
HETATM    4  C   UNL     1      18.550  49.746  48.138  1.00  0.00     0.018 A 
HETATM    5  C   UNL     1      18.176  50.928  48.776  1.00  0.00     0.045 A 
HETATM    6  N   UNL     1      18.209  50.769  50.153  1.00  0.00    -0.323 N 
HETATM    7  C   UNL     1      18.613  49.480  50.510  1.00  0.00     0.266 A 
HETATM    8  O   UNL     1      18.701  49.089  51.663  1.00  0.00    -0.269 OA
HETATM    9  C   UNL     1      18.854  48.683  49.176  1.00  0.00     0.199 A 
HETATM   10  C   UNL     1      17.822  52.065  48.082  1.00  0.00     0.031 A 
HETATM   11  C   UNL     1      17.842  52.000  46.687  1.00  0.00     0.009 A 
HETATM   12  H   UNL     1      17.982  51.474  50.837  1.00  0.00     0.169 HD
ENDROOT
BRANCH   9  13
HETATM   13  O   UNL     1      17.912  47.621  49.058  1.00  0.00    -0.371 OA
HETATM   14  H   UNL     1      17.034  48.034  49.033  1.00  0.00     0.212 HD
ENDBRANCH   9  13
BRANCH   9  15
HETATM   15  C   UNL     1      20.293  48.265  48.953  1.00  0.00     0.025 A 
HETATM   16  C   UNL     1      21.429  49.160  48.883  1.00  0.00     0.003 A 
HETATM   17  C   UNL     1      22.574  48.386  48.701  1.00  0.00     0.043 A 
HETATM   18  C   UNL     1      21.594  50.561  48.970  1.00  0.00     0.014 A 
HETATM   19  C   UNL     1      23.862  48.931  48.605  1.00  0.00     0.030 A 
HETATM   20  N   UNL     1      22.170  47.079  48.643  1.00  0.00    -0.359 N 
HETATM   21  C   UNL     1      23.990  50.319  48.697  1.00  0.00     0.002 A 
HETATM   22  C   UNL     1      22.872  51.125  48.877  1.00  0.00     0.001 A 
HETATM   23  H   UNL     1      22.798  46.299  48.508  1.00  0.00     0.166 HD
HETATM   24  C   UNL     1      20.812  46.976  48.811  1.00  0.00     0.016 A 
HETATM   25  C   UNL     1      20.165  45.635  48.819  1.00  0.00     0.069 C 
ENDBRANCH   9  15
TORSDOF 2
ENDMDL
MODEL 3
REMARK VINA RESULT:      -7.7      1.637      2.865
REMARK  2 active torsions:
REMARK  status: ('A' for Active; 'I' for Inactive)
REMARK    1  A    between atoms: C_9  and  O_10 
REMARK    2  A    between atoms: C_9  and  C_11 
ROOT
HETATM    1  C   UNL     1      28.740  47.897  41.330  1.00  0.00     0.048 C 
HETATM    2  C   UNL     1      29.102  49.283  40.878  1.00  0.00    -0.061 A 
HETATM    3  C   UNL     1      29.839  50.135  41.714  1.00  0.00     0.020 A 
HETATM    4  C   UNL     1      30.165  51.402  41.250  1.00  0.00     0.018 A 
HETATM    5  C   UNL     1      29.750  51.817  39.985  1.00  0.00     0.045 A 
HETATM    6  N   UNL     1      30.159  53.120  39.742  1.00  0.00    -0.323 N 
HETATM    7  C   UNL     1      30.875  53.641  40.823  1.00  0.00     0.266 A 
HETATM    8  O   UNL     1      31.323  54.777  40.858  1.00  0.00    -0.269 OA
HETATM    9  C   UNL     1      30.915  52.529  41.934  1.00  0.00     0.199 A 
HETATM   10  C   UNL     1      29.026  51.006  39.139  1.00  0.00     0.031 A 
HETATM   11  C   UNL     1      28.704  49.725  39.596  1.00  0.00     0.009 A 
HETATM   12  H   UNL     1      29.984  53.649  38.902  1.00  0.00     0.169 HD
ENDROOT
BRANCH   9  13
HETATM   13  O   UNL     1      30.191  52.953  43.084  1.00  0.00    -0.371 OA
HETATM   14  H   UNL     1      29.328  53.264  42.766  1.00  0.00     0.212 HD
ENDBRANCH   9  13
BRANCH   9  15
HETATM   15  C   UNL     1      32.304  52.001  42.233  1.00  0.00     0.025 A 
HETATM   16  C   UNL     1      33.321  51.699  41.248  1.00  0.00     0.003 A 
HETATM   17  C   UNL     1      34.461  51.270  41.926  1.00  0.00     0.043 A 
HETATM   18  C   UNL     1      33.385  51.763  39.838  1.00  0.00     0.014 A 
HETATM   19  C   UNL     1      35.649  50.907  41.277  1.00  0.00     0.030 A 
HETATM   20  N   UNL     1      34.162  51.286  43.262  1.00  0.00    -0.359 N 
HETATM   21  C   UNL     1      35.679  50.984  39.883  1.00  0.00     0.002 A 
HETATM   22  C   UNL     1      34.563  51.406  39.170  1.00  0.00     0.001 A 
HETATM   23  H   UNL     1      34.810  51.013  43.988  1.00  0.00     0.166 HD
HETATM   24  C   UNL     1      32.885  51.739  43.476  1.00  0.00     0.016 A 
HETATM   25  C   UNL     1      32.367  51.870  44.865  1.00  0.00     0.069 C 
ENDBRANCH   9  15
TORSDOF 2
ENDMDL
MODEL 4
REMARK VINA RESULT:      -7.6      1.580      2.142
REMARK  2 active torsions:
REMARK  status: ('A' for Active; 'I' for Inactive)
REMARK    1  A    between atoms: C_9  and  O_10 
REMARK    2  A    between atoms: C_9  and  C_11 
ROOT
HETATM    1  C   UNL     1      28.546  47.994  41.320  1.00  0.00     0.048 C 
HETATM    2  C   UNL     1      28.766  49.453  41.042  1.00  0.00    -0.061 A 
HETATM    3  C   UNL     1      29.976  50.070  41.393  1.00  0.00     0.020 A 
HETATM    4  C   UNL     1      30.144  51.417  41.104  1.00  0.00     0.018 A 
HETATM    5  C   UNL     1      29.118  52.139  40.494  1.00  0.00     0.045 A 
HETATM    6  N   UNL     1      29.489  53.465  40.327  1.00  0.00    -0.323 N 
HETATM    7  C   UNL     1      30.780  53.700  40.806  1.00  0.00     0.266 A 
HETATM    8  O   UNL     1      31.323  54.793  40.791  1.00  0.00    -0.269 OA
HETATM    9  C   UNL     1      31.314  52.340  41.388  1.00  0.00     0.199 A 
HETATM   10  C   UNL     1      27.918  51.564  40.136  1.00  0.00     0.031 A 
HETATM   11  C   UNL     1      27.748  50.205  40.414  1.00  0.00     0.009 A 
HETATM   12  H   UNL     1      28.925  54.191  39.912  1.00  0.00     0.169 HD
ENDROOT
BRANCH   9  13
HETATM   13  O   UNL     1      31.504  52.445  42.795  1.00  0.00    -0.371 OA
HETATM   14  H   UNL     1      32.146  51.758  43.038  1.00  0.00     0.212 HD
ENDBRANCH   9  13
BRANCH   9  15
HETATM   15  C   UNL     1      32.501  51.769  40.640  1.00  0.00     0.025 A 
HETATM   16  C   UNL     1      33.787  51.445  41.222  1.00  0.00     0.003 A 
HETATM   17  C   UNL     1      34.593  50.916  40.215  1.00  0.00     0.043 A 
HETATM   18  C   UNL     1      34.340  51.541  42.519  1.00  0.00     0.014 A 
HETATM   19  C   UNL     1      35.907  50.481  40.432  1.00  0.00     0.030 A 
HETATM   20  N   UNL     1      33.853  50.928  39.062  1.00  0.00    -0.359 N 
HETATM   21  C   UNL     1      36.422  50.587  41.726  1.00  0.00     0.002 A 
HETATM   22  C   UNL     1      35.651  51.110  42.758  1.00  0.00     0.001 A 
HETATM   23  H   UNL     1      34.197  50.605  38.168  1.00  0.00     0.166 HD
HETATM   24  C   UNL     1      32.591  51.413  39.292  1.00  0.00     0.016 A 
HETATM   25  C   UNL     1      31.607  51.478  38.178  1.00  0.00     0.069 C 
ENDBRANCH   9  15
TORSDOF 2
ENDMDL
MODEL 5
REMARK VINA RESULT:      -7.5     25.093     26.688
REMARK  2 active torsions:
REMARK  status: ('A' for Active; 'I' for Inactive)
REMARK    1  A    between atoms: C_9  and  O_10 
REMARK    2  A    between atoms: C_9  and  C_11 
ROOT
HETATM    1  C   UNL     1      43.623  45.994  64.333  1.00  0.00     0.048 C 
HETATM    2  C   UNL     1      42.142  46.227  64.427  1.00  0.00    -0.061 A 
HETATM    3  C   UNL     1      41.238  45.251  63.982  1.00  0.00     0.020 A 
HETATM    4  C   UNL     1      39.878  45.501  64.102  1.00  0.00     0.018 A 
HETATM    5  C   UNL     1      39.428  46.708  64.637  1.00  0.00     0.045 A 
HETATM    6  N   UNL     1      38.043  46.755  64.634  1.00  0.00    -0.323 N 
HETATM    7  C   UNL     1      37.492  45.585  64.107  1.00  0.00     0.266 A 
HETATM    8  O   UNL     1      36.292  45.394  63.979  1.00  0.00    -0.269 OA
HETATM    9  C   UNL     1      38.689  44.656  63.687  1.00  0.00     0.199 A 
HETATM   10  C   UNL     1      40.289  47.687  65.082  1.00  0.00     0.031 A 
HETATM   11  C   UNL     1      41.660  47.437  64.976  1.00  0.00     0.009 A 
HETATM   12  H   UNL     1      37.474  47.519  64.966  1.00  0.00     0.169 HD
ENDROOT
BRANCH   9  13
HETATM   13  O   UNL     1      38.703  44.477  62.274  1.00  0.00    -0.371 OA
HETATM   14  H   UNL     1      37.776  44.474  61.988  1.00  0.00     0.212 HD
ENDBRANCH   9  13
BRANCH   9  15
HETATM   15  C   UNL     1      38.781  43.367  64.478  1.00  0.00     0.025 A 
HETATM   16  C   UNL     1      38.998  42.049  63.920  1.00  0.00     0.003 A 
HETATM   17  C   UNL     1      39.053  41.140  64.975  1.00  0.00     0.043 A 
HETATM   18  C   UNL     1      39.167  41.542  62.612  1.00  0.00     0.014 A 
HETATM   19  C   UNL     1      39.266  39.766  64.795  1.00  0.00     0.030 A 
HETATM   20  N   UNL     1      38.861  41.852  66.128  1.00  0.00    -0.359 N 
HETATM   21  C   UNL     1      39.431  39.299  63.489  1.00  0.00     0.002 A 
HETATM   22  C   UNL     1      39.383  40.174  62.410  1.00  0.00     0.001 A 
HETATM   23  H   UNL     1      38.845  41.439  67.051  1.00  0.00     0.166 HD
HETATM   24  C   UNL     1      38.717  43.190  65.863  1.00  0.00     0.016 A 
HETATM   25  C   UNL     1      38.533  44.154  66.982  1.00  0.00     0.069 C 
ENDBRANCH   9  15
TORSDOF 2
ENDMDL
MODEL 6
REMARK VINA RESULT:      -7.2      1.813      2.248
REMARK  2 active torsions:
REMARK  status: ('A' for Active; 'I' for Inactive)
REMARK    1  A    between atoms: C_9  and  O_10 
REMARK    2  A    between atoms: C_9  and  C_11 
ROOT
HETATM    1  C   UNL     1      29.167  45.839  39.361  1.00  0.00     0.048 C 
HETATM    2  C   UNL     1      28.525  47.174  39.609  1.00  0.00    -0.061 A 
HETATM    3  C   UNL     1      29.242  48.204  40.235  1.00  0.00     0.020 A 
HETATM    4  C   UNL     1      28.615  49.427  40.430  1.00  0.00     0.018 A 
HETATM    5  C   UNL     1      27.292  49.612  40.027  1.00  0.00     0.045 A 
HETATM    6  N   UNL     1      26.862  50.891  40.345  1.00  0.00    -0.323 N 
HETATM    7  C   UNL     1      27.869  51.631  40.969  1.00  0.00     0.266 A 
HETATM    8  O   UNL     1      27.728  52.777  41.363  1.00  0.00    -0.269 OA
HETATM    9  C   UNL     1      29.125  50.692  41.094  1.00  0.00     0.199 A 
HETATM   10  C   UNL     1      26.560  48.622  39.409  1.00  0.00     0.031 A 
HETATM   11  C   UNL     1      27.190  47.392  39.199  1.00  0.00     0.009 A 
HETATM   12  H   UNL     1      25.947  51.272  40.160  1.00  0.00     0.169 HD
ENDROOT
BRANCH   9  13
HETATM   13  O   UNL     1      29.409  50.427  42.464  1.00  0.00    -0.371 OA
HETATM   14  H   UNL     1      29.897  51.198  42.797  1.00  0.00     0.212 HD
ENDBRANCH   9  13
BRANCH   9  15
HETATM   15  C   UNL     1      30.323  51.146  40.287  1.00  0.00     0.025 A 
HETATM   16  C   UNL     1      31.710  50.975  40.666  1.00  0.00     0.003 A 
HETATM   17  C   UNL     1      32.502  51.496  39.645  1.00  0.00     0.043 A 
HETATM   18  C   UNL     1      32.369  50.410  41.781  1.00  0.00     0.014 A 
HETATM   19  C   UNL     1      33.903  51.483  39.678  1.00  0.00     0.030 A 
HETATM   20  N   UNL     1      31.653  51.985  38.689  1.00  0.00    -0.359 N 
HETATM   21  C   UNL     1      34.523  50.915  40.793  1.00  0.00     0.002 A 
HETATM   22  C   UNL     1      33.768  50.385  41.833  1.00  0.00     0.001 A 
HETATM   23  H   UNL     1      31.961  52.430  37.835  1.00  0.00     0.166 HD
HETATM   24  C   UNL     1      30.344  51.770  39.037  1.00  0.00     0.016 A 
HETATM   25  C   UNL     1      29.252  52.192  38.117  1.00  0.00     0.069 C 
ENDBRANCH   9  15
TORSDOF 2
ENDMDL
MODEL 7
REMARK VINA RESULT:      -7.2      2.006      3.221
REMARK  2 active torsions:
REMARK  status: ('A' for Active; 'I' for Inactive)
REMARK    1  A    between atoms: C_9  and  O_10 
REMARK    2  A    between atoms: C_9  and  C_11 
ROOT
HETATM    1  C   UNL     1      26.108  49.209  40.179  1.00  0.00     0.048 C 
HETATM    2  C   UNL     1      27.150  50.260  39.925  1.00  0.00    -0.061 A 
HETATM    3  C   UNL     1      28.045  50.635  40.938  1.00  0.00     0.020 A 
HETATM    4  C   UNL     1      29.002  51.600  40.656  1.00  0.00     0.018 A 
HETATM    5  C   UNL     1      29.053  52.193  39.394  1.00  0.00     0.045 A 
HETATM    6  N   UNL     1      30.061  53.144  39.344  1.00  0.00    -0.323 N 
HETATM    7  C   UNL     1      30.741  53.234  40.561  1.00  0.00     0.266 A 
HETATM    8  O   UNL     1      31.656  54.014  40.773  1.00  0.00    -0.269 OA
HETATM    9  C   UNL     1      30.064  52.214  41.548  1.00  0.00     0.199 A 
HETATM   10  C   UNL     1      28.189  51.847  38.377  1.00  0.00     0.031 A 
HETATM   11  C   UNL     1      27.231  50.868  38.652  1.00  0.00     0.009 A 
HETATM   12  H   UNL     1      30.301  53.712  38.546  1.00  0.00     0.169 HD
ENDROOT
BRANCH   9  13
HETATM   13  O   UNL     1      29.439  52.907  42.623  1.00  0.00    -0.371 OA
HETATM   14  H   UNL     1      29.848  53.787  42.658  1.00  0.00     0.212 HD
ENDBRANCH   9  13
BRANCH   9  15
HETATM   15  C   UNL     1      30.968  51.078  41.982  1.00  0.00     0.025 A 
HETATM   16  C   UNL     1      31.155  49.830  41.271  1.00  0.00     0.003 A 
HETATM   17  C   UNL     1      32.085  49.069  41.976  1.00  0.00     0.043 A 
HETATM   18  C   UNL     1      30.628  49.280  40.081  1.00  0.00     0.014 A 
HETATM   19  C   UNL     1      32.514  47.802  41.560  1.00  0.00     0.030 A 
HETATM   20  N   UNL     1      32.445  49.797  43.079  1.00  0.00    -0.359 N 
HETATM   21  C   UNL     1      31.975  47.287  40.379  1.00  0.00     0.002 A 
HETATM   22  C   UNL     1      31.044  48.015  39.646  1.00  0.00     0.001 A 
HETATM   23  H   UNL     1      33.105  49.478  43.775  1.00  0.00     0.166 HD
HETATM   24  C   UNL     1      31.807  51.011  43.097  1.00  0.00     0.016 A 
HETATM   25  C   UNL     1      32.083  51.978  44.194  1.00  0.00     0.069 C 
ENDBRANCH   9  15
TORSDOF 2
ENDMDL
MODEL 8
REMARK VINA RESULT:      -7.1      2.099      5.693
REMARK  2 active torsions:
REMARK  status: ('A' for Active; 'I' for Inactive)
REMARK    1  A    between atoms: C_9  and  O_10 
REMARK    2  A    between atoms: C_9  and  C_11 
ROOT
HETATM    1  C   UNL     1      32.349  50.939  43.892  1.00  0.00     0.048 C 
HETATM    2  C   UNL     1      31.661  51.388  42.635  1.00  0.00    -0.061 A 
HETATM    3  C   UNL     1      31.090  50.450  41.762  1.00  0.00     0.020 A 
HETATM    4  C   UNL     1      30.450  50.909  40.619  1.00  0.00     0.018 A 
HETATM    5  C   UNL     1      30.396  52.276  40.344  1.00  0.00     0.045 A 
HETATM    6  N   UNL     1      29.739  52.504  39.144  1.00  0.00    -0.323 N 
HETATM    7  C   UNL     1      29.312  51.310  38.559  1.00  0.00     0.266 A 
HETATM    8  O   UNL     1      28.728  51.247  37.488  1.00  0.00    -0.269 OA
HETATM    9  C   UNL     1      29.778  50.139  39.499  1.00  0.00     0.199 A 
HETATM   10  C   UNL     1      30.946  53.223  41.180  1.00  0.00     0.031 A 
HETATM   11  C   UNL     1      31.582  52.767  42.338  1.00  0.00     0.009 A 
HETATM   12  H   UNL     1      29.570  53.404  38.723  1.00  0.00     0.169 HD
ENDROOT
BRANCH   9  13
HETATM   13  O   UNL     1      30.742  49.327  38.837  1.00  0.00    -0.371 OA
HETATM   14  H   UNL     1      30.535  48.408  39.071  1.00  0.00     0.212 HD
ENDBRANCH   9  13
BRANCH   9  15
HETATM   15  C   UNL     1      28.642  49.363  40.134  1.00  0.00     0.025 A 
HETATM   16  C   UNL     1      28.480  47.924  40.098  1.00  0.00     0.003 A 
HETATM   17  C   UNL     1      27.333  47.603  40.822  1.00  0.00     0.043 A 
HETATM   18  C   UNL     1      29.212  46.859  39.527  1.00  0.00     0.014 A 
HETATM   19  C   UNL     1      26.884  46.289  41.005  1.00  0.00     0.030 A 
HETATM   20  N   UNL     1      26.798  48.782  41.269  1.00  0.00    -0.359 N 
HETATM   21  C   UNL     1      27.631  45.259  40.429  1.00  0.00     0.002 A 
HETATM   22  C   UNL     1      28.781  45.538  39.699  1.00  0.00     0.001 A 
HETATM   23  H   UNL     1      25.952  48.845  41.818  1.00  0.00     0.166 HD
HETATM   24  C   UNL     1      27.572  49.849  40.889  1.00  0.00     0.016 A 
HETATM   25  C   UNL     1      27.190  51.227  41.303  1.00  0.00     0.069 C 
ENDBRANCH   9  15
TORSDOF 2
ENDMDL
MODEL 9
REMARK VINA RESULT:      -7.0     11.275     13.613
REMARK  2 active torsions:
REMARK  status: ('A' for Active; 'I' for Inactive)
REMARK    1  A    between atoms: C_9  and  O_10 
REMARK    2  A    between atoms: C_9  and  C_11 
ROOT
HETATM    1  C   UNL     1      25.424  43.792  54.799  1.00  0.00     0.048 C 
HETATM    2  C   UNL     1      25.715  44.889  53.816  1.00  0.00    -0.061 A 
HETATM    3  C   UNL     1      25.841  44.604  52.448  1.00  0.00     0.020 A 
HETATM    4  C   UNL     1      26.095  45.650  51.572  1.00  0.00     0.018 A 
HETATM    5  C   UNL     1      26.239  46.951  52.052  1.00  0.00     0.045 A 
HETATM    6  N   UNL     1      26.515  47.826  51.012  1.00  0.00    -0.323 N 
HETATM    7  C   UNL     1      26.564  47.162  49.784  1.00  0.00     0.266 A 
HETATM    8  O   UNL     1      26.812  47.711  48.722  1.00  0.00    -0.269 OA
HETATM    9  C   UNL     1      26.305  45.637  50.070  1.00  0.00     0.199 A 
HETATM   10  C   UNL     1      26.121  47.265  53.389  1.00  0.00     0.031 A 
HETATM   11  C   UNL     1      25.853  46.218  54.274  1.00  0.00     0.009 A 
HETATM   12  H   UNL     1      26.664  48.820  51.096  1.00  0.00     0.169 HD
ENDROOT
BRANCH   9  13
HETATM   13  O   UNL     1      27.465  44.872  49.759  1.00  0.00    -0.371 OA
HETATM   14  H   UNL     1      28.226  45.383  50.080  1.00  0.00     0.212 HD
ENDBRANCH   9  13
BRANCH   9  15
HETATM   15  C   UNL     1      25.025  45.100  49.462  1.00  0.00     0.025 A 
HETATM   16  C   UNL     1      24.780  43.722  49.095  1.00  0.00     0.003 A 
HETATM   17  C   UNL     1      23.479  43.633  48.603  1.00  0.00     0.043 A 
HETATM   18  C   UNL     1      25.541  42.532  49.148  1.00  0.00     0.014 A 
HETATM   19  C   UNL     1      22.903  42.433  48.167  1.00  0.00     0.030 A 
HETATM   20  N   UNL     1      22.948  44.895  48.644  1.00  0.00    -0.359 N 
HETATM   21  C   UNL     1      23.681  41.275  48.235  1.00  0.00     0.002 A 
HETATM   22  C   UNL     1      24.984  41.321  48.718  1.00  0.00     0.001 A 
HETATM   23  H   UNL     1      22.013  45.124  48.337  1.00  0.00     0.166 HD
HETATM   24  C   UNL     1      23.844  45.789  49.173  1.00  0.00     0.016 A 
HETATM   25  C   UNL     1      23.457  47.216  49.342  1.00  0.00     0.069 C 
ENDBRANCH   9  15
TORSDOF 2
ENDMDL
MODEL 10
REMARK VINA RESULT:      -7.0     11.257     13.407
REMARK  2 active torsions:
REMARK  status: ('A' for Active; 'I' for Inactive)
REMARK    1  A    between atoms: C_9  and  O_10 
REMARK    2  A    between atoms: C_9  and  C_11 
ROOT
HETATM    1  C   UNL     1      25.391  43.790  54.779  1.00  0.00     0.048 C 
HETATM    2  C   UNL     1      25.703  44.891  53.808  1.00  0.00    -0.061 A 
HETATM    3  C   UNL     1      25.815  44.621  52.436  1.00  0.00     0.020 A 
HETATM    4  C   UNL     1      26.090  45.672  51.572  1.00  0.00     0.018 A 
HETATM    5  C   UNL     1      26.268  46.963  52.068  1.00  0.00     0.045 A 
HETATM    6  N   UNL     1      26.561  47.844  51.038  1.00  0.00    -0.323 N 
HETATM    7  C   UNL     1      26.587  47.195  49.801  1.00  0.00     0.266 A 
HETATM    8  O   UNL     1      26.842  47.752  48.745  1.00  0.00    -0.269 OA
HETATM    9  C   UNL     1      26.292  45.674  50.069  1.00  0.00     0.199 A 
HETATM   10  C   UNL     1      26.165  47.263  53.409  1.00  0.00     0.031 A 
HETATM   11  C   UNL     1      25.877  46.211  54.283  1.00  0.00     0.009 A 
HETATM   12  H   UNL     1      26.734  48.833  51.134  1.00  0.00     0.169 HD
ENDROOT
BRANCH   9  13
HETATM   13  O   UNL     1      27.431  44.885  49.742  1.00  0.00    -0.371 OA
HETATM   14  H   UNL     1      27.835  45.295  48.961  1.00  0.00     0.212 HD
ENDBRANCH   9  13
BRANCH   9  15
HETATM   15  C   UNL     1      24.996  45.176  49.462  1.00  0.00     0.025 A 
HETATM   16  C   UNL     1      23.832  45.989  49.176  1.00  0.00     0.003 A 
HETATM   17  C   UNL     1      22.868  45.168  48.595  1.00  0.00     0.043 A 
HETATM   18  C   UNL     1      23.512  47.355  49.346  1.00  0.00     0.014 A 
HETATM   19  C   UNL     1      21.614  45.634  48.177  1.00  0.00     0.030 A 
HETATM   20  N   UNL     1      23.396  43.906  48.539  1.00  0.00    -0.359 N 
HETATM   21  C   UNL     1      21.330  46.989  48.357  1.00  0.00     0.002 A 
HETATM   22  C   UNL     1      22.265  47.841  48.934  1.00  0.00     0.001 A 
HETATM   23  H   UNL     1      22.905  43.104  48.168  1.00  0.00     0.166 HD
HETATM   24  C   UNL     1      24.676  43.886  49.032  1.00  0.00     0.016 A 
HETATM   25  C   UNL     1      25.452  42.616  49.031  1.00  0.00     0.069 C 
ENDBRANCH   9  15
TORSDOF 2
ENDMDL
