MODEL 1
REMARK VINA RESULT:      -8.3      0.000      0.000
REMARK  3 active torsions:
REMARK  status: ('A' for Active; 'I' for Inactive)
REMARK    1  A    between atoms: C_2  and  C_3 
REMARK    2  A    between atoms: C_7  and  N_8 
REMARK       I    between atoms: N_8  and  C_9 
REMARK    3  A    between atoms: C_9  and  C_10 
ROOT
HETATM    1  N   UNL     1      25.758  46.004  50.821  1.00  0.00    -0.309 N 
HETATM    2  C   UNL     1      26.271  45.975  52.098  1.00  0.00     0.234 C 
HETATM    3  O   UNL     1      26.406  46.937  52.846  1.00  0.00    -0.272 OA
HETATM    4  H   UNL     1      25.851  45.195  50.222  1.00  0.00     0.170 HD
ENDROOT
BRANCH   2   5
HETATM    5  C   UNL     1      26.689  44.572  52.508  1.00  0.00     0.138 C 
HETATM    6  C   UNL     1      27.826  44.522  53.472  1.00  0.00    -0.008 A 
HETATM    7  C   UNL     1      28.721  43.544  53.060  1.00  0.00     0.076 A 
HETATM    8  C   UNL     1      28.041  45.217  54.652  1.00  0.00     0.030 A 
HETATM    9  C   UNL     1      29.847  43.218  53.790  1.00  0.00     0.039 A 
HETATM   10  O   UNL     1      28.369  42.930  51.888  1.00  0.00    -0.349 OA
HETATM   11  C   UNL     1      30.083  43.919  54.973  1.00  0.00     0.022 A 
HETATM   12  C   UNL     1      29.185  44.911  55.395  1.00  0.00     0.011 A 
HETATM   13 BR   UNL     1      29.523  45.844  57.007  1.00  0.00    -0.051 Br
HETATM   14  C   UNL     1      27.329  43.786  51.355  1.00  0.00     0.194 C 
ENDBRANCH   2   5
BRANCH   1  15
HETATM   15  C   UNL     1      25.298  47.089  50.114  1.00  0.00     0.158 A 
HETATM   16  N   UNL     1      23.970  47.175  49.992  1.00  0.00    -0.156 NA
HETATM   17  N   UNL     1      23.773  48.251  49.225  1.00  0.00    -0.280 N 
HETATM   18  C   UNL     1      24.923  48.899  48.884  1.00  0.00     0.037 A 
HETATM   19  H   UNL     1      22.820  48.495  48.973  1.00  0.00     0.189 HD
HETATM   20  C   UNL     1      25.952  48.186  49.482  1.00  0.00     0.010 A 
HETATM   21  C   UNL     1      27.391  48.548  49.456  1.00  0.00     0.054 C 
BRANCH  18  22
HETATM   22  C   UNL     1      24.912  50.124  48.035  1.00  0.00     0.055 C 
HETATM   23  C   UNL     1      23.557  50.811  48.051  1.00  0.00     0.011 C 
ENDBRANCH  18  22
ENDBRANCH   1  15
TORSDOF 3
ENDMDL
MODEL 2
REMARK VINA RESULT:      -8.3      4.584      6.244
REMARK  3 active torsions:
REMARK  status: ('A' for Active; 'I' for Inactive)
REMARK    1  A    between atoms: C_2  and  C_3 
REMARK    2  A    between atoms: C_7  and  N_8 
REMARK       I    between atoms: N_8  and  C_9 
REMARK    3  A    between atoms: C_9  and  C_10 
ROOT
HETATM    1  N   UNL     1      28.496  43.317  52.654  1.00  0.00    -0.309 N 
HETATM    2  C   UNL     1      27.590  43.901  53.511  1.00  0.00     0.234 C 
HETATM    3  O   UNL     1      26.493  43.451  53.821  1.00  0.00    -0.272 OA
HETATM    4  H   UNL     1      29.291  43.847  52.324  1.00  0.00     0.170 HD
ENDROOT
BRANCH   2   5
HETATM    5  C   UNL     1      28.096  45.230  54.049  1.00  0.00     0.138 C 
HETATM    6  C   UNL     1      28.930  45.123  55.280  1.00  0.00    -0.008 A 
HETATM    7  C   UNL     1      28.528  46.098  56.182  1.00  0.00     0.076 A 
HETATM    8  C   UNL     1      30.002  44.293  55.575  1.00  0.00     0.030 A 
HETATM    9  C   UNL     1      29.161  46.291  57.393  1.00  0.00     0.039 A 
HETATM   10  O   UNL     1      27.471  46.853  55.746  1.00  0.00    -0.349 OA
HETATM   11  C   UNL     1      30.232  45.454  57.710  1.00  0.00     0.022 A 
HETATM   12  C   UNL     1      30.644  44.464  56.805  1.00  0.00     0.011 A 
HETATM   13 BR   UNL     1      32.103  43.346  57.254  1.00  0.00    -0.051 Br
HETATM   14  C   UNL     1      26.968  46.108  54.610  1.00  0.00     0.194 C 
ENDBRANCH   2   5
BRANCH   1  15
HETATM   15  C   UNL     1      28.376  42.132  51.970  1.00  0.00     0.158 A 
HETATM   16  N   UNL     1      28.965  41.076  52.540  1.00  0.00    -0.156 NA
HETATM   17  N   UNL     1      28.773  40.077  51.674  1.00  0.00    -0.280 N 
HETATM   18  C   UNL     1      28.036  40.431  50.583  1.00  0.00     0.037 A 
HETATM   19  H   UNL     1      29.169  39.168  51.892  1.00  0.00     0.189 HD
HETATM   20  C   UNL     1      27.721  41.771  50.756  1.00  0.00     0.010 A 
HETATM   21  C   UNL     1      26.868  42.588  49.858  1.00  0.00     0.054 C 
BRANCH  18  22
HETATM   22  C   UNL     1      27.710  39.455  49.504  1.00  0.00     0.055 C 
HETATM   23  C   UNL     1      28.776  39.435  48.421  1.00  0.00     0.011 C 
ENDBRANCH  18  22
ENDBRANCH   1  15
TORSDOF 3
ENDMDL
MODEL 3
REMARK VINA RESULT:      -8.3      1.353      1.705
REMARK  3 active torsions:
REMARK  status: ('A' for Active; 'I' for Inactive)
REMARK    1  A    between atoms: C_2  and  C_3 
REMARK    2  A    between atoms: C_7  and  N_8 
REMARK       I    between atoms: N_8  and  C_9 
REMARK    3  A    between atoms: C_9  and  C_10 
ROOT
HETATM    1  N   UNL     1      25.325  46.498  50.789  1.00  0.00    -0.309 N 
HETATM    2  C   UNL     1      25.381  46.480  52.165  1.00  0.00     0.234 C 
HETATM    3  O   UNL     1      25.349  47.457  52.903  1.00  0.00    -0.272 OA
HETATM    4  H   UNL     1      25.537  45.660  50.265  1.00  0.00     0.170 HD
ENDROOT
BRANCH   2   5
HETATM    5  C   UNL     1      25.511  45.066  52.707  1.00  0.00     0.138 C 
HETATM    6  C   UNL     1      26.816  44.772  53.366  1.00  0.00    -0.008 A 
HETATM    7  C   UNL     1      27.269  43.533  52.934  1.00  0.00     0.076 A 
HETATM    8  C   UNL     1      27.528  45.487  54.317  1.00  0.00     0.030 A 
HETATM    9  C   UNL     1      28.426  42.959  53.422  1.00  0.00     0.039 A 
HETATM   10  O   UNL     1      26.454  42.938  52.009  1.00  0.00    -0.349 OA
HETATM   11  C   UNL     1      29.160  43.672  54.370  1.00  0.00     0.022 A 
HETATM   12  C   UNL     1      28.712  44.927  54.809  1.00  0.00     0.011 A 
HETATM   13 BR   UNL     1      29.720  45.874  56.100  1.00  0.00    -0.051 Br
HETATM   14  C   UNL     1      25.571  44.009  51.595  1.00  0.00     0.194 C 
ENDBRANCH   2   5
BRANCH   1  15
HETATM   15  C   UNL     1      25.225  47.586  49.957  1.00  0.00     0.158 A 
HETATM   16  N   UNL     1      26.370  48.234  49.717  1.00  0.00    -0.156 NA
HETATM   17  N   UNL     1      26.014  49.271  48.954  1.00  0.00    -0.280 N 
HETATM   18  C   UNL     1      24.687  49.296  48.646  1.00  0.00     0.037 A 
HETATM   19  H   UNL     1      26.734  49.928  48.669  1.00  0.00     0.189 HD
HETATM   20  C   UNL     1      24.134  48.180  49.258  1.00  0.00     0.010 A 
HETATM   21  C   UNL     1      22.721  47.740  49.152  1.00  0.00     0.054 C 
BRANCH  18  22
HETATM   22  C   UNL     1      24.096  50.373  47.802  1.00  0.00     0.055 C 
HETATM   23  C   UNL     1      23.046  51.171  48.558  1.00  0.00     0.011 C 
ENDBRANCH  18  22
ENDBRANCH   1  15
TORSDOF 3
ENDMDL
MODEL 4
REMARK VINA RESULT:      -8.2      3.793      7.449
REMARK  3 active torsions:
REMARK  status: ('A' for Active; 'I' for Inactive)
REMARK    1  A    between atoms: C_2  and  C_3 
REMARK    2  A    between atoms: C_7  and  N_8 
REMARK       I    between atoms: N_8  and  C_9 
REMARK    3  A    between atoms: C_9  and  C_10 
ROOT
HETATM    1  N   UNL     1      27.453  45.648  54.392  1.00  0.00    -0.309 N 
HETATM    2  C   UNL     1      26.274  44.940  54.314  1.00  0.00     0.234 C 
HETATM    3  O   UNL     1      26.022  43.888  54.890  1.00  0.00    -0.272 OA
HETATM    4  H   UNL     1      27.630  46.405  53.745  1.00  0.00     0.170 HD
ENDROOT
BRANCH   2   5
HETATM    5  C   UNL     1      25.273  45.610  53.387  1.00  0.00     0.138 C 
HETATM    6  C   UNL     1      25.255  45.067  51.998  1.00  0.00    -0.008 A 
HETATM    7  C   UNL     1      25.217  46.127  51.102  1.00  0.00     0.076 A 
HETATM    8  C   UNL     1      25.205  43.759  51.540  1.00  0.00     0.030 A 
HETATM    9  C   UNL     1      25.128  45.937  49.738  1.00  0.00     0.039 A 
HETATM   10  O   UNL     1      25.254  47.358  51.700  1.00  0.00    -0.349 OA
HETATM   11  C   UNL     1      25.091  44.626  49.261  1.00  0.00     0.022 A 
HETATM   12  C   UNL     1      25.132  43.549  50.160  1.00  0.00     0.011 A 
HETATM   13 BR   UNL     1      25.074  41.780  49.491  1.00  0.00    -0.051 Br
HETATM   14  C   UNL     1      25.647  47.063  53.062  1.00  0.00     0.194 C 
ENDBRANCH   2   5
BRANCH   1  15
HETATM   15  C   UNL     1      28.582  45.341  55.111  1.00  0.00     0.158 A 
HETATM   16  N   UNL     1      28.863  46.169  56.123  1.00  0.00    -0.156 NA
HETATM   17  N   UNL     1      30.017  45.713  56.618  1.00  0.00    -0.280 N 
HETATM   18  C   UNL     1      30.473  44.588  55.999  1.00  0.00     0.037 A 
HETATM   19  H   UNL     1      30.442  46.217  57.390  1.00  0.00     0.189 HD
HETATM   20  C   UNL     1      29.536  44.286  55.021  1.00  0.00     0.010 A 
HETATM   21  C   UNL     1      29.561  43.101  54.128  1.00  0.00     0.054 C 
BRANCH  18  22
HETATM   22  C   UNL     1      31.744  43.925  56.409  1.00  0.00     0.055 C 
HETATM   23  C   UNL     1      31.493  42.749  57.339  1.00  0.00     0.011 C 
ENDBRANCH  18  22
ENDBRANCH   1  15
TORSDOF 3
ENDMDL
MODEL 5
REMARK VINA RESULT:      -7.9      1.823      2.092
REMARK  3 active torsions:
REMARK  status: ('A' for Active; 'I' for Inactive)
REMARK    1  A    between atoms: C_2  and  C_3 
REMARK    2  A    between atoms: C_7  and  N_8 
REMARK       I    between atoms: N_8  and  C_9 
REMARK    3  A    between atoms: C_9  and  C_10 
ROOT
HETATM    1  N   UNL     1      25.493  44.320  51.318  1.00  0.00    -0.309 N 
HETATM    2  C   UNL     1      26.700  43.757  50.970  1.00  0.00     0.234 C 
HETATM    3  O   UNL     1      27.335  43.982  49.947  1.00  0.00    -0.272 OA
HETATM    4  H   UNL     1      24.964  43.940  52.092  1.00  0.00     0.170 HD
ENDROOT
BRANCH   2   5
HETATM    5  C   UNL     1      27.186  42.768  52.017  1.00  0.00     0.138 C 
HETATM    6  C   UNL     1      28.051  43.362  53.077  1.00  0.00    -0.008 A 
HETATM    7  C   UNL     1      29.139  42.527  53.289  1.00  0.00     0.076 A 
HETATM    8  C   UNL     1      27.879  44.502  53.848  1.00  0.00     0.030 A 
HETATM    9  C   UNL     1      30.086  42.781  54.261  1.00  0.00     0.039 A 
HETATM   10  O   UNL     1      29.166  41.432  52.467  1.00  0.00    -0.349 OA
HETATM   11  C   UNL     1      29.934  43.931  55.037  1.00  0.00     0.022 A 
HETATM   12  C   UNL     1      28.839  44.782  54.826  1.00  0.00     0.011 A 
HETATM   13 BR   UNL     1      28.650  46.333  55.894  1.00  0.00    -0.051 Br
HETATM   14  C   UNL     1      28.183  41.749  51.450  1.00  0.00     0.194 C 
ENDBRANCH   2   5
BRANCH   1  15
HETATM   15  C   UNL     1      24.747  45.234  50.614  1.00  0.00     0.158 A 
HETATM   16  N   UNL     1      23.588  44.779  50.128  1.00  0.00    -0.156 NA
HETATM   17  N   UNL     1      23.086  45.809  49.440  1.00  0.00    -0.280 N 
HETATM   18  C   UNL     1      23.852  46.935  49.501  1.00  0.00     0.037 A 
HETATM   19  H   UNL     1      22.205  45.678  48.952  1.00  0.00     0.189 HD
HETATM   20  C   UNL     1      24.941  46.610  50.298  1.00  0.00     0.010 A 
HETATM   21  C   UNL     1      26.021  47.538  50.715  1.00  0.00     0.054 C 
BRANCH  18  22
HETATM   22  C   UNL     1      23.460  48.191  48.802  1.00  0.00     0.055 C 
HETATM   23  C   UNL     1      22.007  48.554  49.064  1.00  0.00     0.011 C 
ENDBRANCH  18  22
ENDBRANCH   1  15
TORSDOF 3
ENDMDL
MODEL 6
REMARK VINA RESULT:      -7.9      4.423      6.953
REMARK  3 active torsions:
REMARK  status: ('A' for Active; 'I' for Inactive)
REMARK    1  A    between atoms: C_2  and  C_3 
REMARK    2  A    between atoms: C_7  and  N_8 
REMARK       I    between atoms: N_8  and  C_9 
REMARK    3  A    between atoms: C_9  and  C_10 
ROOT
HETATM    1  N   UNL     1      27.810  41.598  50.974  1.00  0.00    -0.309 N 
HETATM    2  C   UNL     1      28.494  41.886  52.135  1.00  0.00     0.234 C 
HETATM    3  O   UNL     1      28.902  41.071  52.955  1.00  0.00    -0.272 OA
HETATM    4  H   UNL     1      27.362  42.341  50.456  1.00  0.00     0.170 HD
ENDROOT
BRANCH   2   5
HETATM    5  C   UNL     1      28.688  43.382  52.321  1.00  0.00     0.138 C 
HETATM    6  C   UNL     1      29.124  43.784  53.689  1.00  0.00    -0.008 A 
HETATM    7  C   UNL     1      28.381  44.885  54.091  1.00  0.00     0.076 A 
HETATM    8  C   UNL     1      30.133  43.284  54.498  1.00  0.00     0.030 A 
HETATM    9  C   UNL     1      28.604  45.527  55.293  1.00  0.00     0.039 A 
HETATM   10  O   UNL     1      27.435  45.277  53.182  1.00  0.00    -0.349 OA
HETATM   11  C   UNL     1      29.607  45.026  56.125  1.00  0.00     0.022 A 
HETATM   12  C   UNL     1      30.361  43.912  55.727  1.00  0.00     0.011 A 
HETATM   13 BR   UNL     1      31.719  43.255  56.868  1.00  0.00    -0.051 Br
HETATM   14  C   UNL     1      27.367  44.161  52.261  1.00  0.00     0.194 C 
ENDBRANCH   2   5
BRANCH   1  15
HETATM   15  C   UNL     1      27.440  40.367  50.489  1.00  0.00     0.158 A 
HETATM   16  N   UNL     1      26.199  39.977  50.798  1.00  0.00    -0.156 NA
HETATM   17  N   UNL     1      26.097  38.748  50.283  1.00  0.00    -0.280 N 
HETATM   18  C   UNL     1      27.209  38.342  49.607  1.00  0.00     0.037 A 
HETATM   19  H   UNL     1      25.231  38.236  50.425  1.00  0.00     0.189 HD
HETATM   20  C   UNL     1      28.108  39.397  49.687  1.00  0.00     0.010 A 
HETATM   21  C   UNL     1      29.441  39.454  49.039  1.00  0.00     0.054 C 
BRANCH  18  22
HETATM   22  C   UNL     1      27.290  37.003  48.959  1.00  0.00     0.055 C 
HETATM   23  C   UNL     1      26.008  36.654  48.220  1.00  0.00     0.011 C 
ENDBRANCH  18  22
ENDBRANCH   1  15
TORSDOF 3
ENDMDL
MODEL 7
REMARK VINA RESULT:      -7.8      4.583      6.777
REMARK  3 active torsions:
REMARK  status: ('A' for Active; 'I' for Inactive)
REMARK    1  A    between atoms: C_2  and  C_3 
REMARK    2  A    between atoms: C_7  and  N_8 
REMARK       I    between atoms: N_8  and  C_9 
REMARK    3  A    between atoms: C_9  and  C_10 
ROOT
HETATM    1  N   UNL     1      28.435  41.964  53.017  1.00  0.00    -0.309 N 
HETATM    2  C   UNL     1      29.477  42.709  53.523  1.00  0.00     0.234 C 
HETATM    3  O   UNL     1      30.621  42.743  53.084  1.00  0.00    -0.272 OA
HETATM    4  H   UNL     1      27.582  41.864  53.551  1.00  0.00     0.170 HD
ENDROOT
BRANCH   2   5
HETATM    5  C   UNL     1      29.060  43.509  54.745  1.00  0.00     0.138 C 
HETATM    6  C   UNL     1      28.352  44.785  54.438  1.00  0.00    -0.008 A 
HETATM    7  C   UNL     1      28.866  45.790  55.245  1.00  0.00     0.076 A 
HETATM    8  C   UNL     1      27.297  45.048  53.577  1.00  0.00     0.030 A 
HETATM    9  C   UNL     1      28.363  47.076  55.235  1.00  0.00     0.039 A 
HETATM   10  O   UNL     1      29.891  45.379  56.056  1.00  0.00    -0.349 OA
HETATM   11  C   UNL     1      27.310  47.358  54.364  1.00  0.00     0.022 A 
HETATM   12  C   UNL     1      26.786  46.349  53.542  1.00  0.00     0.011 A 
HETATM   13 BR   UNL     1      25.354  46.754  52.373  1.00  0.00    -0.051 Br
HETATM   14  C   UNL     1      30.258  44.089  55.509  1.00  0.00     0.194 C 
ENDBRANCH   2   5
BRANCH   1  15
HETATM   15  C   UNL     1      28.444  41.112  51.939  1.00  0.00     0.158 A 
HETATM   16  N   UNL     1      29.066  39.945  52.133  1.00  0.00    -0.156 NA
HETATM   17  N   UNL     1      29.001  39.330  50.948  1.00  0.00    -0.280 N 
HETATM   18  C   UNL     1      28.316  40.033  50.002  1.00  0.00     0.037 A 
HETATM   19  H   UNL     1      29.444  38.422  50.852  1.00  0.00     0.189 HD
HETATM   20  C   UNL     1      27.898  41.200  50.625  1.00  0.00     0.010 A 
HETATM   21  C   UNL     1      27.052  42.257  50.017  1.00  0.00     0.054 C 
BRANCH  18  22
HETATM   22  C   UNL     1      28.132  39.514  48.617  1.00  0.00     0.055 C 
HETATM   23  C   UNL     1      26.943  38.573  48.520  1.00  0.00     0.011 C 
ENDBRANCH  18  22
ENDBRANCH   1  15
TORSDOF 3
ENDMDL
MODEL 8
REMARK VINA RESULT:      -7.7      3.363      6.510
REMARK  3 active torsions:
REMARK  status: ('A' for Active; 'I' for Inactive)
REMARK    1  A    between atoms: C_2  and  C_3 
REMARK    2  A    between atoms: C_7  and  N_8 
REMARK       I    between atoms: N_8  and  C_9 
REMARK    3  A    between atoms: C_9  and  C_10 
ROOT
HETATM    1  N   UNL     1      27.679  43.352  51.385  1.00  0.00    -0.309 N 
HETATM    2  C   UNL     1      26.490  43.928  51.774  1.00  0.00     0.234 C 
HETATM    3  O   UNL     1      25.451  43.335  52.040  1.00  0.00    -0.272 OA
HETATM    4  H   UNL     1      28.422  43.930  51.017  1.00  0.00     0.170 HD
ENDROOT
BRANCH   2   5
HETATM    5  C   UNL     1      26.587  45.444  51.827  1.00  0.00     0.138 C 
HETATM    6  C   UNL     1      26.856  46.001  53.184  1.00  0.00    -0.008 A 
HETATM    7  C   UNL     1      26.019  47.087  53.398  1.00  0.00     0.076 A 
HETATM    8  C   UNL     1      27.798  45.642  54.136  1.00  0.00     0.030 A 
HETATM    9  C   UNL     1      26.081  47.853  54.545  1.00  0.00     0.039 A 
HETATM   10  O   UNL     1      25.155  47.333  52.364  1.00  0.00    -0.349 OA
HETATM   11  C   UNL     1      27.015  47.496  55.519  1.00  0.00     0.022 A 
HETATM   12  C   UNL     1      27.863  46.397  55.312  1.00  0.00     0.011 A 
HETATM   13 BR   UNL     1      29.126  45.935  56.643  1.00  0.00    -0.051 Br
HETATM   14  C   UNL     1      25.241  46.132  51.558  1.00  0.00     0.194 C 
ENDBRANCH   2   5
BRANCH   1  15
HETATM   15  C   UNL     1      27.959  42.019  51.210  1.00  0.00     0.158 A 
HETATM   16  N   UNL     1      28.569  41.419  52.238  1.00  0.00    -0.156 NA
HETATM   17  N   UNL     1      28.793  40.172  51.814  1.00  0.00    -0.280 N 
HETATM   18  C   UNL     1      28.307  39.922  50.565  1.00  0.00     0.037 A 
HETATM   19  H   UNL     1      29.281  39.533  52.433  1.00  0.00     0.189 HD
HETATM   20  C   UNL     1      27.715  41.105  50.144  1.00  0.00     0.010 A 
HETATM   21  C   UNL     1      26.984  41.306  48.869  1.00  0.00     0.054 C 
BRANCH  18  22
HETATM   22  C   UNL     1      28.454  38.589  49.917  1.00  0.00     0.055 C 
HETATM   23  C   UNL     1      29.736  38.493  49.106  1.00  0.00     0.011 C 
ENDBRANCH  18  22
ENDBRANCH   1  15
TORSDOF 3
ENDMDL
MODEL 9
REMARK VINA RESULT:      -7.7      4.850      6.985
REMARK  3 active torsions:
REMARK  status: ('A' for Active; 'I' for Inactive)
REMARK    1  A    between atoms: C_2  and  C_3 
REMARK    2  A    between atoms: C_7  and  N_8 
REMARK       I    between atoms: N_8  and  C_9 
REMARK    3  A    between atoms: C_9  and  C_10 
ROOT
HETATM    1  N   UNL     1      27.619  43.836  52.848  1.00  0.00    -0.309 N 
HETATM    2  C   UNL     1      27.351  42.489  52.753  1.00  0.00     0.234 C 
HETATM    3  O   UNL     1      27.559  41.647  53.619  1.00  0.00    -0.272 OA
HETATM    4  H   UNL     1      27.579  44.418  52.022  1.00  0.00     0.170 HD
ENDROOT
BRANCH   2   5
HETATM    5  C   UNL     1      26.760  42.124  51.401  1.00  0.00     0.138 C 
HETATM    6  C   UNL     1      27.577  41.162  50.607  1.00  0.00    -0.008 A 
HETATM    7  C   UNL     1      27.641  41.605  49.293  1.00  0.00     0.076 A 
HETATM    8  C   UNL     1      28.165  39.960  50.972  1.00  0.00     0.030 A 
HETATM    9  C   UNL     1      28.277  40.886  48.301  1.00  0.00     0.039 A 
HETATM   10  O   UNL     1      27.000  42.796  49.078  1.00  0.00    -0.349 OA
HETATM   11  C   UNL     1      28.885  39.681  48.656  1.00  0.00     0.022 A 
HETATM   12  C   UNL     1      28.829  39.227  49.983  1.00  0.00     0.011 A 
HETATM   13 BR   UNL     1      29.655  37.588  50.439  1.00  0.00    -0.051 Br
HETATM   14  C   UNL     1      26.766  43.301  50.416  1.00  0.00     0.194 C 
ENDBRANCH   2   5
BRANCH   1  15
HETATM   15  C   UNL     1      28.168  44.520  53.905  1.00  0.00     0.158 A 
HETATM   16  N   UNL     1      27.467  45.574  54.336  1.00  0.00    -0.156 NA
HETATM   17  N   UNL     1      28.220  46.105  55.304  1.00  0.00    -0.280 N 
HETATM   18  C   UNL     1      29.364  45.407  55.554  1.00  0.00     0.037 A 
HETATM   19  H   UNL     1      27.890  46.949  55.762  1.00  0.00     0.189 HD
HETATM   20  C   UNL     1      29.351  44.331  54.678  1.00  0.00     0.010 A 
HETATM   21  C   UNL     1      30.359  43.243  54.621  1.00  0.00     0.054 C 
BRANCH  18  22
HETATM   22  C   UNL     1      30.334  45.837  56.600  1.00  0.00     0.055 C 
HETATM   23  C   UNL     1      29.706  45.848  57.984  1.00  0.00     0.011 C 
ENDBRANCH  18  22
ENDBRANCH   1  15
TORSDOF 3
ENDMDL
MODEL 10
REMARK VINA RESULT:      -7.7      2.919      3.596
REMARK  3 active torsions:
REMARK  status: ('A' for Active; 'I' for Inactive)
REMARK    1  A    between atoms: C_2  and  C_3 
REMARK    2  A    between atoms: C_7  and  N_8 
REMARK       I    between atoms: N_8  and  C_9 
REMARK    3  A    between atoms: C_9  and  C_10 
ROOT
HETATM    1  N   UNL     1      25.454  43.542  52.355  1.00  0.00    -0.309 N 
HETATM    2  C   UNL     1      26.779  43.181  52.256  1.00  0.00     0.234 C 
HETATM    3  O   UNL     1      27.412  43.030  51.218  1.00  0.00    -0.272 OA
HETATM    4  H   UNL     1      24.976  43.468  53.243  1.00  0.00     0.170 HD
ENDROOT
BRANCH   2   5
HETATM    5  C   UNL     1      27.408  42.960  53.622  1.00  0.00     0.138 C 
HETATM    6  C   UNL     1      27.854  44.206  54.308  1.00  0.00    -0.008 A 
HETATM    7  C   UNL     1      29.116  43.995  54.847  1.00  0.00     0.076 A 
HETATM    8  C   UNL     1      27.196  45.410  54.512  1.00  0.00     0.030 A 
HETATM    9  C   UNL     1      29.766  44.952  55.601  1.00  0.00     0.039 A 
HETATM   10  O   UNL     1      29.632  42.756  54.580  1.00  0.00    -0.349 OA
HETATM   11  C   UNL     1      29.121  46.173  55.804  1.00  0.00     0.022 A 
HETATM   12  C   UNL     1      27.847  46.396  55.260  1.00  0.00     0.011 A 
HETATM   13 BR   UNL     1      26.990  48.057  55.553  1.00  0.00    -0.051 Br
HETATM   14  C   UNL     1      28.764  42.244  53.539  1.00  0.00     0.194 C 
ENDBRANCH   2   5
BRANCH   1  15
HETATM   15  C   UNL     1      24.567  43.804  51.339  1.00  0.00     0.158 A 
HETATM   16  N   UNL     1      23.777  42.785  50.988  1.00  0.00    -0.156 NA
HETATM   17  N   UNL     1      23.064  43.252  49.958  1.00  0.00    -0.280 N 
HETATM   18  C   UNL     1      23.325  44.556  49.658  1.00  0.00     0.037 A 
HETATM   19  H   UNL     1      22.406  42.626  49.505  1.00  0.00     0.189 HD
HETATM   20  C   UNL     1      24.286  44.971  50.570  1.00  0.00     0.010 A 
HETATM   21  C   UNL     1      24.840  46.343  50.686  1.00  0.00     0.054 C 
BRANCH  18  22
HETATM   22  C   UNL     1      22.630  45.260  48.544  1.00  0.00     0.055 C 
HETATM   23  C   UNL     1      21.146  44.934  48.508  1.00  0.00     0.011 C 
ENDBRANCH  18  22
ENDBRANCH   1  15
TORSDOF 3
ENDMDL
