MODEL 1
REMARK VINA RESULT:     -10.0      0.000      0.000
REMARK  5 active torsions:
REMARK  status: ('A' for Active; 'I' for Inactive)
REMARK    1  A    between atoms: C_2  and  C_3 
REMARK    2  A    between atoms: N_12  and  N_13 
REMARK       I    between atoms: N_13  and  C_14 
REMARK    3  A    between atoms: C_14  and  C_15 
REMARK    4  A    between atoms: C_15  and  N_16 
REMARK       I    between atoms: N_16  and  C_17 
REMARK    5  A    between atoms: C_17  and  C_18 
ROOT
HETATM    1  N   UNL     1      26.220  47.230  50.534  1.00  0.00    -0.255 N 
HETATM    2  C   UNL     1      24.991  47.382  49.917  1.00  0.00     0.254 C 
HETATM    3  O   UNL     1      24.056  46.591  50.020  1.00  0.00    -0.270 OA
HETATM    4  H   UNL     1      26.697  48.089  50.827  1.00  0.00     0.191 HD
ENDROOT
BRANCH   1   5
HETATM    5  N   UNL     1      26.387  46.131  51.362  1.00  0.00    -0.167 N 
HETATM    6  C   UNL     1      26.874  44.925  50.942  1.00  0.00     0.345 C 
HETATM    7  N   UNL     1      26.912  44.082  52.036  1.00  0.00    -0.319 N 
HETATM    8  O   UNL     1      27.216  44.600  49.817  1.00  0.00    -0.245 OA
HETATM    9  C   UNL     1      26.599  44.777  53.275  1.00  0.00     0.141 C 
HETATM   10  H   UNL     1      27.392  43.196  51.973  1.00  0.00     0.166 HD
HETATM   11  C   UNL     1      25.376  44.152  53.958  1.00  0.00     0.055 C 
HETATM   12  C   UNL     1      26.166  46.156  52.718  1.00  0.00     0.279 C 
HETATM   13  O   UNL     1      25.705  47.084  53.374  1.00  0.00    -0.268 OA
BRANCH   9  14
HETATM   14  C   UNL     1      27.838  44.797  54.167  1.00  0.00    -0.021 A 
HETATM   15  C   UNL     1      28.738  43.711  54.147  1.00  0.00     0.010 A 
HETATM   16  C   UNL     1      29.895  43.713  54.928  1.00  0.00     0.001 A 
HETATM   17  C   UNL     1      30.185  44.804  55.740  1.00  0.00     0.000 A 
HETATM   18  C   UNL     1      29.319  45.893  55.767  1.00  0.00     0.001 A 
HETATM   19  C   UNL     1      28.160  45.893  54.985  1.00  0.00     0.010 A 
ENDBRANCH   9  14
ENDBRANCH   1   5
BRANCH   2  20
HETATM   20  C   UNL     1      24.886  48.677  49.115  1.00  0.00     0.227 C 
BRANCH  20  21
HETATM   21  N   UNL     1      23.581  49.295  49.262  1.00  0.00    -0.348 N 
HETATM   22  C   UNL     1      23.026  50.012  48.224  1.00  0.00     0.252 C 
HETATM   23  O   UNL     1      23.659  50.240  47.196  1.00  0.00    -0.268 OA
HETATM   24  H   UNL     1      23.040  49.040  50.075  1.00  0.00     0.163 HD
BRANCH  22  25
HETATM   25  C   UNL     1      21.616  50.481  48.379  1.00  0.00     0.033 A 
HETATM   26  C   UNL     1      20.685  50.451  47.333  1.00  0.00     0.036 A 
HETATM   27  C   UNL     1      19.393  50.941  47.543  1.00  0.00     0.012 A 
HETATM   28 BR   UNL     1      18.146  50.923  46.120  1.00  0.00    -0.051 Br
HETATM   29  C   UNL     1      19.011  51.444  48.784  1.00  0.00     0.019 A 
HETATM   30  C   UNL     1      19.927  51.454  49.835  1.00  0.00     0.002 A 
HETATM   31  C   UNL     1      21.224  50.973  49.633  1.00  0.00     0.017 A 
ENDBRANCH  22  25
ENDBRANCH  20  21
ENDBRANCH   2  20
TORSDOF 5
ENDMDL
MODEL 2
REMARK VINA RESULT:      -9.7      1.446      2.049
REMARK  5 active torsions:
REMARK  status: ('A' for Active; 'I' for Inactive)
REMARK    1  A    between atoms: C_2  and  C_3 
REMARK    2  A    between atoms: N_12  and  N_13 
REMARK       I    between atoms: N_13  and  C_14 
REMARK    3  A    between atoms: C_14  and  C_15 
REMARK    4  A    between atoms: C_15  and  N_16 
REMARK       I    between atoms: N_16  and  C_17 
REMARK    5  A    between atoms: C_17  and  C_18 
ROOT
HETATM    1  N   UNL     1      25.030  47.092  50.963  1.00  0.00    -0.255 N 
HETATM    2  C   UNL     1      25.984  47.406  50.011  1.00  0.00     0.254 C 
HETATM    3  O   UNL     1      27.005  46.755  49.805  1.00  0.00    -0.270 OA
HETATM    4  H   UNL     1      24.057  47.320  50.733  1.00  0.00     0.191 HD
ENDROOT
BRANCH   1   5
HETATM    5  N   UNL     1      25.224  45.935  51.702  1.00  0.00    -0.167 N 
HETATM    6  C   UNL     1      24.930  44.680  51.249  1.00  0.00     0.345 C 
HETATM    7  N   UNL     1      25.265  43.784  52.245  1.00  0.00    -0.319 N 
HETATM    8  O   UNL     1      24.450  44.359  50.174  1.00  0.00    -0.245 OA
HETATM    9  C   UNL     1      25.961  44.425  53.349  1.00  0.00     0.141 C 
HETATM   10  H   UNL     1      25.277  42.793  52.049  1.00  0.00     0.166 HD
HETATM   11  C   UNL     1      25.196  44.232  54.664  1.00  0.00     0.055 C 
HETATM   12  C   UNL     1      25.816  45.913  52.942  1.00  0.00     0.279 C 
HETATM   13  O   UNL     1      26.162  46.879  53.614  1.00  0.00    -0.268 OA
BRANCH   9  14
HETATM   14  C   UNL     1      27.395  43.904  53.409  1.00  0.00    -0.021 A 
HETATM   15  C   UNL     1      28.221  44.238  54.502  1.00  0.00     0.010 A 
HETATM   16  C   UNL     1      29.527  43.753  54.600  1.00  0.00     0.001 A 
HETATM   17  C   UNL     1      30.035  42.915  53.613  1.00  0.00     0.000 A 
HETATM   18  C   UNL     1      29.234  42.561  52.531  1.00  0.00     0.001 A 
HETATM   19  C   UNL     1      27.926  43.046  52.431  1.00  0.00     0.010 A 
ENDBRANCH   9  14
ENDBRANCH   1   5
BRANCH   2  20
HETATM   20  C   UNL     1      25.617  48.640  49.189  1.00  0.00     0.227 C 
BRANCH  20  21
HETATM   21  N   UNL     1      24.182  48.846  49.138  1.00  0.00    -0.348 N 
HETATM   22  C   UNL     1      23.618  49.603  48.134  1.00  0.00     0.252 C 
HETATM   23  O   UNL     1      24.316  50.210  47.326  1.00  0.00    -0.268 OA
HETATM   24  H   UNL     1      23.615  48.284  49.756  1.00  0.00     0.163 HD
BRANCH  22  25
HETATM   25  C   UNL     1      22.127  49.639  48.044  1.00  0.00     0.033 A 
HETATM   26  C   UNL     1      21.383  50.813  48.213  1.00  0.00     0.036 A 
HETATM   27  C   UNL     1      19.988  50.762  48.151  1.00  0.00     0.012 A 
HETATM   28 BR   UNL     1      18.984  52.345  48.405  1.00  0.00    -0.051 Br
HETATM   29  C   UNL     1      19.326  49.561  47.905  1.00  0.00     0.019 A 
HETATM   30  C   UNL     1      20.063  48.394  47.713  1.00  0.00     0.002 A 
HETATM   31  C   UNL     1      21.459  48.434  47.781  1.00  0.00     0.017 A 
ENDBRANCH  22  25
ENDBRANCH  20  21
ENDBRANCH   2  20
TORSDOF 5
ENDMDL
MODEL 3
REMARK VINA RESULT:      -9.5      2.003      2.656
REMARK  5 active torsions:
REMARK  status: ('A' for Active; 'I' for Inactive)
REMARK    1  A    between atoms: C_2  and  C_3 
REMARK    2  A    between atoms: N_12  and  N_13 
REMARK       I    between atoms: N_13  and  C_14 
REMARK    3  A    between atoms: C_14  and  C_15 
REMARK    4  A    between atoms: C_15  and  N_16 
REMARK       I    between atoms: N_16  and  C_17 
REMARK    5  A    between atoms: C_17  and  C_18 
ROOT
HETATM    1  N   UNL     1      24.937  44.966  50.843  1.00  0.00    -0.255 N 
HETATM    2  C   UNL     1      24.164  44.116  50.073  1.00  0.00     0.254 C 
HETATM    3  O   UNL     1      24.423  42.932  49.864  1.00  0.00    -0.270 OA
HETATM    4  H   UNL     1      24.438  45.689  51.372  1.00  0.00     0.191 HD
ENDROOT
BRANCH   1   5
HETATM    5  N   UNL     1      26.058  44.429  51.456  1.00  0.00    -0.167 N 
HETATM    6  C   UNL     1      27.300  44.398  50.887  1.00  0.00     0.345 C 
HETATM    7  N   UNL     1      28.162  43.806  51.790  1.00  0.00    -0.319 N 
HETATM    8  O   UNL     1      27.634  44.797  49.783  1.00  0.00    -0.245 OA
HETATM    9  C   UNL     1      27.532  43.575  53.080  1.00  0.00     0.141 C 
HETATM   10  H   UNL     1      29.159  43.834  51.628  1.00  0.00     0.166 HD
HETATM   11  C   UNL     1      27.555  42.084  53.440  1.00  0.00     0.055 C 
HETATM   12  C   UNL     1      26.066  43.948  52.744  1.00  0.00     0.279 C 
HETATM   13  O   UNL     1      25.103  43.823  53.492  1.00  0.00    -0.268 OA
BRANCH   9  14
HETATM   14  C   UNL     1      28.201  44.456  54.132  1.00  0.00    -0.021 A 
HETATM   15  C   UNL     1      29.362  44.005  54.794  1.00  0.00     0.010 A 
HETATM   16  C   UNL     1      30.014  44.800  55.739  1.00  0.00     0.001 A 
HETATM   17  C   UNL     1      29.527  46.068  56.037  1.00  0.00     0.000 A 
HETATM   18  C   UNL     1      28.391  46.541  55.387  1.00  0.00     0.001 A 
HETATM   19  C   UNL     1      27.736  45.746  54.441  1.00  0.00     0.010 A 
ENDBRANCH   9  14
ENDBRANCH   1   5
BRANCH   2  20
HETATM   20  C   UNL     1      22.903  44.786  49.532  1.00  0.00     0.227 C 
BRANCH  20  21
HETATM   21  N   UNL     1      23.058  46.225  49.435  1.00  0.00    -0.348 N 
HETATM   22  C   UNL     1      22.450  46.927  48.416  1.00  0.00     0.252 C 
HETATM   23  O   UNL     1      21.858  46.349  47.509  1.00  0.00    -0.268 OA
HETATM   24  H   UNL     1      23.478  46.697  50.223  1.00  0.00     0.163 HD
BRANCH  22  25
HETATM   25  C   UNL     1      22.511  48.419  48.468  1.00  0.00     0.033 A 
HETATM   26  C   UNL     1      21.368  49.226  48.518  1.00  0.00     0.036 A 
HETATM   27  C   UNL     1      21.503  50.617  48.527  1.00  0.00     0.012 A 
HETATM   28 BR   UNL     1      19.955  51.704  48.568  1.00  0.00    -0.051 Br
HETATM   29  C   UNL     1      22.761  51.214  48.504  1.00  0.00     0.019 A 
HETATM   30  C   UNL     1      23.903  50.415  48.478  1.00  0.00     0.002 A 
HETATM   31  C   UNL     1      23.778  49.023  48.461  1.00  0.00     0.017 A 
ENDBRANCH  22  25
ENDBRANCH  20  21
ENDBRANCH   2  20
TORSDOF 5
ENDMDL
MODEL 4
REMARK VINA RESULT:      -9.5      3.737      9.553
REMARK  5 active torsions:
REMARK  status: ('A' for Active; 'I' for Inactive)
REMARK    1  A    between atoms: C_2  and  C_3 
REMARK    2  A    between atoms: N_12  and  N_13 
REMARK       I    between atoms: N_13  and  C_14 
REMARK    3  A    between atoms: C_14  and  C_15 
REMARK    4  A    between atoms: C_15  and  N_16 
REMARK       I    between atoms: N_16  and  C_17 
REMARK    5  A    between atoms: C_17  and  C_18 
ROOT
HETATM    1  N   UNL     1      23.390  45.937  49.790  1.00  0.00    -0.255 N 
HETATM    2  C   UNL     1      24.743  45.655  49.719  1.00  0.00     0.254 C 
HETATM    3  O   UNL     1      25.542  46.244  48.995  1.00  0.00    -0.270 OA
HETATM    4  H   UNL     1      22.941  45.809  50.703  1.00  0.00     0.191 HD
ENDROOT
BRANCH   1   5
HETATM    5  N   UNL     1      22.917  46.989  49.022  1.00  0.00    -0.167 N 
HETATM    6  C   UNL     1      22.132  46.834  47.914  1.00  0.00     0.345 C 
HETATM    7  N   UNL     1      21.846  48.092  47.421  1.00  0.00    -0.319 N 
HETATM    8  O   UNL     1      21.737  45.796  47.408  1.00  0.00    -0.245 OA
HETATM    9  C   UNL     1      22.309  49.148  48.308  1.00  0.00     0.141 C 
HETATM   10  H   UNL     1      21.146  48.205  46.702  1.00  0.00     0.166 HD
HETATM   11  C   UNL     1      23.305  50.067  47.591  1.00  0.00     0.055 C 
HETATM   12  C   UNL     1      23.110  48.313  49.340  1.00  0.00     0.279 C 
HETATM   13  O   UNL     1      23.790  48.762  50.256  1.00  0.00    -0.268 OA
BRANCH   9  14
HETATM   14  C   UNL     1      21.104  49.895  48.873  1.00  0.00    -0.021 A 
HETATM   15  C   UNL     1      20.833  51.214  48.455  1.00  0.00     0.010 A 
HETATM   16  C   UNL     1      19.721  51.913  48.931  1.00  0.00     0.001 A 
HETATM   17  C   UNL     1      18.849  51.306  49.827  1.00  0.00     0.000 A 
HETATM   18  C   UNL     1      19.087  50.000  50.244  1.00  0.00     0.001 A 
HETATM   19  C   UNL     1      20.200  49.299  49.770  1.00  0.00     0.010 A 
ENDBRANCH   9  14
ENDBRANCH   1   5
BRANCH   2  20
HETATM   20  C   UNL     1      25.170  44.549  50.682  1.00  0.00     0.227 C 
BRANCH  20  21
HETATM   21  N   UNL     1      26.165  45.015  51.629  1.00  0.00    -0.348 N 
HETATM   22  C   UNL     1      26.000  44.800  52.980  1.00  0.00     0.252 C 
HETATM   23  O   UNL     1      24.964  44.312  53.426  1.00  0.00    -0.268 OA
HETATM   24  H   UNL     1      27.042  45.343  51.251  1.00  0.00     0.163 HD
BRANCH  22  25
HETATM   25  C   UNL     1      27.135  45.155  53.885  1.00  0.00     0.033 A 
HETATM   26  C   UNL     1      28.187  44.276  54.167  1.00  0.00     0.036 A 
HETATM   27  C   UNL     1      29.196  44.665  55.053  1.00  0.00     0.012 A 
HETATM   28 BR   UNL     1      30.602  43.464  55.450  1.00  0.00    -0.051 Br
HETATM   29  C   UNL     1      29.178  45.924  55.648  1.00  0.00     0.019 A 
HETATM   30  C   UNL     1      28.145  46.812  55.353  1.00  0.00     0.002 A 
HETATM   31  C   UNL     1      27.128  46.429  54.474  1.00  0.00     0.017 A 
ENDBRANCH  22  25
ENDBRANCH  20  21
ENDBRANCH   2  20
TORSDOF 5
ENDMDL
MODEL 5
REMARK VINA RESULT:      -9.4      4.416      9.639
REMARK  5 active torsions:
REMARK  status: ('A' for Active; 'I' for Inactive)
REMARK    1  A    between atoms: C_2  and  C_3 
REMARK    2  A    between atoms: N_12  and  N_13 
REMARK       I    between atoms: N_13  and  C_14 
REMARK    3  A    between atoms: C_14  and  C_15 
REMARK    4  A    between atoms: C_15  and  N_16 
REMARK       I    between atoms: N_16  and  C_17 
REMARK    5  A    between atoms: C_17  and  C_18 
ROOT
HETATM    1  N   UNL     1      27.286  44.350  52.055  1.00  0.00    -0.255 N 
HETATM    2  C   UNL     1      26.946  43.009  52.029  1.00  0.00     0.254 C 
HETATM    3  O   UNL     1      25.872  42.569  51.624  1.00  0.00    -0.270 OA
HETATM    4  H   UNL     1      28.273  44.577  51.895  1.00  0.00     0.191 HD
ENDROOT
BRANCH   1   5
HETATM    5  N   UNL     1      26.365  45.252  51.546  1.00  0.00    -0.167 N 
HETATM    6  C   UNL     1      25.632  46.111  52.315  1.00  0.00     0.345 C 
HETATM    7  N   UNL     1      24.838  46.861  51.469  1.00  0.00    -0.319 N 
HETATM    8  O   UNL     1      25.636  46.227  53.530  1.00  0.00    -0.245 OA
HETATM    9  C   UNL     1      25.154  46.626  50.068  1.00  0.00     0.141 C 
HETATM   10  H   UNL     1      24.341  47.665  51.824  1.00  0.00     0.166 HD
HETATM   11  C   UNL     1      23.926  46.106  49.311  1.00  0.00     0.055 C 
HETATM   12  C   UNL     1      26.150  45.446  50.202  1.00  0.00     0.279 C 
HETATM   13  O   UNL     1      26.639  44.809  49.276  1.00  0.00    -0.268 OA
BRANCH   9  14
HETATM   14  C   UNL     1      25.735  47.901  49.463  1.00  0.00    -0.021 A 
HETATM   15  C   UNL     1      24.879  48.857  48.879  1.00  0.00     0.010 A 
HETATM   16  C   UNL     1      25.378  50.047  48.344  1.00  0.00     0.001 A 
HETATM   17  C   UNL     1      26.742  50.314  48.390  1.00  0.00     0.000 A 
HETATM   18  C   UNL     1      27.605  49.391  48.974  1.00  0.00     0.001 A 
HETATM   19  C   UNL     1      27.108  48.199  49.509  1.00  0.00     0.010 A 
ENDBRANCH   9  14
ENDBRANCH   1   5
BRANCH   2  20
HETATM   20  C   UNL     1      28.073  42.101  52.516  1.00  0.00     0.227 C 
BRANCH  20  21
HETATM   21  N   UNL     1      28.569  42.510  53.817  1.00  0.00    -0.348 N 
HETATM   22  C   UNL     1      29.842  43.020  53.951  1.00  0.00     0.252 C 
HETATM   23  O   UNL     1      30.624  43.040  53.004  1.00  0.00    -0.268 OA
HETATM   24  H   UNL     1      27.898  42.562  54.569  1.00  0.00     0.163 HD
BRANCH  22  25
HETATM   25  C   UNL     1      30.231  43.575  55.283  1.00  0.00     0.033 A 
HETATM   26  C   UNL     1      29.517  44.598  55.919  1.00  0.00     0.036 A 
HETATM   27  C   UNL     1      29.963  45.092  57.147  1.00  0.00     0.012 A 
HETATM   28 BR   UNL     1      29.010  46.492  57.991  1.00  0.00    -0.051 Br
HETATM   29  C   UNL     1      31.101  44.571  57.758  1.00  0.00     0.019 A 
HETATM   30  C   UNL     1      31.802  43.536  57.140  1.00  0.00     0.002 A 
HETATM   31  C   UNL     1      31.368  43.040  55.908  1.00  0.00     0.017 A 
ENDBRANCH  22  25
ENDBRANCH  20  21
ENDBRANCH   2  20
TORSDOF 5
ENDMDL
MODEL 6
REMARK VINA RESULT:      -9.1      1.784      2.314
REMARK  5 active torsions:
REMARK  status: ('A' for Active; 'I' for Inactive)
REMARK    1  A    between atoms: C_2  and  C_3 
REMARK    2  A    between atoms: N_12  and  N_13 
REMARK       I    between atoms: N_13  and  C_14 
REMARK    3  A    between atoms: C_14  and  C_15 
REMARK    4  A    between atoms: C_15  and  N_16 
REMARK       I    between atoms: N_16  and  C_17 
REMARK    5  A    between atoms: C_17  and  C_18 
ROOT
HETATM    1  N   UNL     1      24.450  45.082  49.688  1.00  0.00    -0.255 N 
HETATM    2  C   UNL     1      23.885  46.340  49.587  1.00  0.00     0.254 C 
HETATM    3  O   UNL     1      24.216  47.311  50.264  1.00  0.00    -0.270 OA
HETATM    4  H   UNL     1      24.514  44.535  48.823  1.00  0.00     0.191 HD
ENDROOT
BRANCH   1   5
HETATM    5  N   UNL     1      25.494  44.922  50.586  1.00  0.00    -0.167 N 
HETATM    6  C   UNL     1      26.804  45.172  50.288  1.00  0.00     0.345 C 
HETATM    7  N   UNL     1      27.550  44.916  51.422  1.00  0.00    -0.319 N 
HETATM    8  O   UNL     1      27.279  45.545  49.227  1.00  0.00    -0.245 OA
HETATM    9  C   UNL     1      26.714  44.642  52.579  1.00  0.00     0.141 C 
HETATM   10  H   UNL     1      28.521  45.195  51.461  1.00  0.00     0.166 HD
HETATM   11  C   UNL     1      27.011  43.250  53.151  1.00  0.00     0.055 C 
HETATM   12  C   UNL     1      25.320  44.578  51.905  1.00  0.00     0.279 C 
HETATM   13  O   UNL     1      24.269  44.268  52.455  1.00  0.00    -0.268 OA
BRANCH   9  14
HETATM   14  C   UNL     1      26.889  45.760  53.603  1.00  0.00    -0.021 A 
HETATM   15  C   UNL     1      26.037  46.884  53.572  1.00  0.00     0.010 A 
HETATM   16  C   UNL     1      26.153  47.909  54.513  1.00  0.00     0.001 A 
HETATM   17  C   UNL     1      27.116  47.831  55.513  1.00  0.00     0.000 A 
HETATM   18  C   UNL     1      27.959  46.725  55.573  1.00  0.00     0.001 A 
HETATM   19  C   UNL     1      27.845  45.698  54.631  1.00  0.00     0.010 A 
ENDBRANCH   9  14
ENDBRANCH   1   5
BRANCH   2  20
HETATM   20  C   UNL     1      22.818  46.426  48.498  1.00  0.00     0.227 C 
BRANCH  20  21
HETATM   21  N   UNL     1      21.845  47.465  48.779  1.00  0.00    -0.348 N 
HETATM   22  C   UNL     1      21.896  48.671  48.113  1.00  0.00     0.252 C 
HETATM   23  O   UNL     1      22.823  48.939  47.352  1.00  0.00    -0.268 OA
HETATM   24  H   UNL     1      21.048  47.209  49.344  1.00  0.00     0.163 HD
BRANCH  22  25
HETATM   25  C   UNL     1      20.772  49.631  48.326  1.00  0.00     0.033 A 
HETATM   26  C   UNL     1      19.425  49.260  48.227  1.00  0.00     0.036 A 
HETATM   27  C   UNL     1      18.428  50.223  48.403  1.00  0.00     0.012 A 
HETATM   28 BR   UNL     1      16.610  49.723  48.243  1.00  0.00    -0.051 Br
HETATM   29  C   UNL     1      18.753  51.546  48.693  1.00  0.00     0.019 A 
HETATM   30  C   UNL     1      20.092  51.915  48.816  1.00  0.00     0.002 A 
HETATM   31  C   UNL     1      21.097  50.961  48.634  1.00  0.00     0.017 A 
ENDBRANCH  22  25
ENDBRANCH  20  21
ENDBRANCH   2  20
TORSDOF 5
ENDMDL
MODEL 7
REMARK VINA RESULT:      -9.0      3.468     10.264
REMARK  5 active torsions:
REMARK  status: ('A' for Active; 'I' for Inactive)
REMARK    1  A    between atoms: C_2  and  C_3 
REMARK    2  A    between atoms: N_12  and  N_13 
REMARK       I    between atoms: N_13  and  C_14 
REMARK    3  A    between atoms: C_14  and  C_15 
REMARK    4  A    between atoms: C_15  and  N_16 
REMARK       I    between atoms: N_16  and  C_17 
REMARK    5  A    between atoms: C_17  and  C_18 
ROOT
HETATM    1  N   UNL     1      22.894  47.637  48.470  1.00  0.00    -0.255 N 
HETATM    2  C   UNL     1      23.819  47.355  49.459  1.00  0.00     0.254 C 
HETATM    3  O   UNL     1      24.169  48.144  50.334  1.00  0.00    -0.270 OA
HETATM    4  H   UNL     1      22.304  46.859  48.155  1.00  0.00     0.191 HD
ENDROOT
BRANCH   1   5
HETATM    5  N   UNL     1      22.288  48.883  48.500  1.00  0.00    -0.167 N 
HETATM    6  C   UNL     1      22.837  50.013  47.961  1.00  0.00     0.345 C 
HETATM    7  N   UNL     1      21.950  51.051  48.167  1.00  0.00    -0.319 N 
HETATM    8  O   UNL     1      23.914  50.135  47.400  1.00  0.00    -0.245 OA
HETATM    9  C   UNL     1      20.684  50.591  48.715  1.00  0.00     0.141 C 
HETATM   10  H   UNL     1      22.093  51.937  47.702  1.00  0.00     0.166 HD
HETATM   11  C   UNL     1      20.397  51.260  50.065  1.00  0.00     0.055 C 
HETATM   12  C   UNL     1      21.026  49.107  48.996  1.00  0.00     0.279 C 
HETATM   13  O   UNL     1      20.301  48.297  49.565  1.00  0.00    -0.268 OA
BRANCH   9  14
HETATM   14  C   UNL     1      19.578  50.820  47.688  1.00  0.00    -0.021 A 
HETATM   15  C   UNL     1      18.730  51.940  47.802  1.00  0.00     0.010 A 
HETATM   16  C   UNL     1      17.729  52.192  46.861  1.00  0.00     0.001 A 
HETATM   17  C   UNL     1      17.559  51.336  45.778  1.00  0.00     0.000 A 
HETATM   18  C   UNL     1      18.393  50.231  45.636  1.00  0.00     0.001 A 
HETATM   19  C   UNL     1      19.396  49.977  46.578  1.00  0.00     0.010 A 
ENDBRANCH   9  14
ENDBRANCH   1   5
BRANCH   2  20
HETATM   20  C   UNL     1      24.344  45.922  49.390  1.00  0.00     0.227 C 
BRANCH  20  21
HETATM   21  N   UNL     1      25.325  45.658  50.425  1.00  0.00    -0.348 N 
HETATM   22  C   UNL     1      25.015  44.843  51.493  1.00  0.00     0.252 C 
HETATM   23  O   UNL     1      23.876  44.411  51.654  1.00  0.00    -0.268 OA
HETATM   24  H   UNL     1      26.274  45.952  50.245  1.00  0.00     0.163 HD
BRANCH  22  25
HETATM   25  C   UNL     1      26.117  44.479  52.433  1.00  0.00     0.033 A 
HETATM   26  C   UNL     1      26.762  43.236  52.405  1.00  0.00     0.036 A 
HETATM   27  C   UNL     1      27.760  42.953  53.341  1.00  0.00     0.012 A 
HETATM   28 BR   UNL     1      28.611  41.264  53.316  1.00  0.00    -0.051 Br
HETATM   29  C   UNL     1      28.136  43.898  54.294  1.00  0.00     0.019 A 
HETATM   30  C   UNL     1      27.513  45.144  54.311  1.00  0.00     0.002 A 
HETATM   31  C   UNL     1      26.508  45.434  53.383  1.00  0.00     0.017 A 
ENDBRANCH  22  25
ENDBRANCH  20  21
ENDBRANCH   2  20
TORSDOF 5
ENDMDL
MODEL 8
REMARK VINA RESULT:      -9.0      2.754      3.976
REMARK  5 active torsions:
REMARK  status: ('A' for Active; 'I' for Inactive)
REMARK    1  A    between atoms: C_2  and  C_3 
REMARK    2  A    between atoms: N_12  and  N_13 
REMARK       I    between atoms: N_13  and  C_14 
REMARK    3  A    between atoms: C_14  and  C_15 
REMARK    4  A    between atoms: C_15  and  N_16 
REMARK       I    between atoms: N_16  and  C_17 
REMARK    5  A    between atoms: C_17  and  C_18 
ROOT
HETATM    1  N   UNL     1      24.840  45.942  49.597  1.00  0.00    -0.255 N 
HETATM    2  C   UNL     1      24.724  47.145  50.270  1.00  0.00     0.254 C 
HETATM    3  O   UNL     1      25.035  47.320  51.446  1.00  0.00    -0.270 OA
HETATM    4  H   UNL     1      25.066  45.993  48.598  1.00  0.00     0.191 HD
ENDROOT
BRANCH   1   5
HETATM    5  N   UNL     1      25.388  44.874  50.290  1.00  0.00    -0.167 N 
HETATM    6  C   UNL     1      24.654  43.959  50.991  1.00  0.00     0.345 C 
HETATM    7  N   UNL     1      25.531  43.041  51.533  1.00  0.00    -0.319 N 
HETATM    8  O   UNL     1      23.444  43.923  51.147  1.00  0.00    -0.245 OA
HETATM    9  C   UNL     1      26.892  43.233  51.055  1.00  0.00     0.141 C 
HETATM   10  H   UNL     1      25.178  42.192  51.951  1.00  0.00     0.166 HD
HETATM   11  C   UNL     1      27.848  43.501  52.223  1.00  0.00     0.055 C 
HETATM   12  C   UNL     1      26.727  44.562  50.276  1.00  0.00     0.279 C 
HETATM   13  O   UNL     1      27.631  45.208  49.758  1.00  0.00    -0.268 OA
BRANCH   9  14
HETATM   14  C   UNL     1      27.302  42.031  50.208  1.00  0.00    -0.021 A 
HETATM   15  C   UNL     1      28.050  40.984  50.786  1.00  0.00     0.010 A 
HETATM   16  C   UNL     1      28.414  39.857  50.046  1.00  0.00     0.001 A 
HETATM   17  C   UNL     1      28.031  39.746  48.714  1.00  0.00     0.000 A 
HETATM   18  C   UNL     1      27.281  40.759  48.125  1.00  0.00     0.001 A 
HETATM   19  C   UNL     1      26.916  41.888  48.864  1.00  0.00     0.010 A 
ENDBRANCH   9  14
ENDBRANCH   1   5
BRANCH   2  20
HETATM   20  C   UNL     1      24.205  48.275  49.383  1.00  0.00     0.227 C 
BRANCH  20  21
HETATM   21  N   UNL     1      22.786  48.504  49.578  1.00  0.00    -0.348 N 
HETATM   22  C   UNL     1      22.278  49.785  49.575  1.00  0.00     0.252 C 
HETATM   23  O   UNL     1      23.018  50.764  49.519  1.00  0.00    -0.268 OA
HETATM   24  H   UNL     1      22.181  47.697  49.546  1.00  0.00     0.163 HD
BRANCH  22  25
HETATM   25  C   UNL     1      20.793  49.944  49.615  1.00  0.00     0.033 A 
HETATM   26  C   UNL     1      19.908  48.890  49.354  1.00  0.00     0.036 A 
HETATM   27  C   UNL     1      18.530  49.123  49.374  1.00  0.00     0.012 A 
HETATM   28 BR   UNL     1      17.338  47.703  48.996  1.00  0.00    -0.051 Br
HETATM   29  C   UNL     1      18.022  50.387  49.665  1.00  0.00     0.019 A 
HETATM   30  C   UNL     1      18.898  51.433  49.948  1.00  0.00     0.002 A 
HETATM   31  C   UNL     1      20.278  51.212  49.924  1.00  0.00     0.017 A 
ENDBRANCH  22  25
ENDBRANCH  20  21
ENDBRANCH   2  20
TORSDOF 5
ENDMDL
MODEL 9
REMARK VINA RESULT:      -8.7      6.371      9.899
REMARK  5 active torsions:
REMARK  status: ('A' for Active; 'I' for Inactive)
REMARK    1  A    between atoms: C_2  and  C_3 
REMARK    2  A    between atoms: N_12  and  N_13 
REMARK       I    between atoms: N_13  and  C_14 
REMARK    3  A    between atoms: C_14  and  C_15 
REMARK    4  A    between atoms: C_15  and  N_16 
REMARK       I    between atoms: N_16  and  C_17 
REMARK    5  A    between atoms: C_17  and  C_18 
ROOT
HETATM    1  N   UNL     1      26.435  42.315  50.959  1.00  0.00    -0.255 N 
HETATM    2  C   UNL     1      26.761  43.544  50.415  1.00  0.00     0.254 C 
HETATM    3  O   UNL     1      26.965  43.747  49.220  1.00  0.00    -0.270 OA
HETATM    4  H   UNL     1      25.807  42.322  51.770  1.00  0.00     0.191 HD
ENDROOT
BRANCH   1   5
HETATM    5  N   UNL     1      26.285  41.250  50.085  1.00  0.00    -0.167 N 
HETATM    6  C   UNL     1      25.140  40.988  49.387  1.00  0.00     0.345 C 
HETATM    7  N   UNL     1      25.365  39.866  48.614  1.00  0.00    -0.319 N 
HETATM    8  O   UNL     1      24.084  41.599  49.414  1.00  0.00    -0.245 OA
HETATM    9  C   UNL     1      26.754  39.439  48.656  1.00  0.00     0.141 C 
HETATM   10  H   UNL     1      24.698  39.602  47.902  1.00  0.00     0.166 HD
HETATM   11  C   UNL     1      26.870  38.005  49.186  1.00  0.00     0.055 C 
HETATM   12  C   UNL     1      27.302  40.386  49.754  1.00  0.00     0.279 C 
HETATM   13  O   UNL     1      28.430  40.353  50.234  1.00  0.00    -0.268 OA
BRANCH   9  14
HETATM   14  C   UNL     1      27.377  39.619  47.274  1.00  0.00    -0.021 A 
HETATM   15  C   UNL     1      27.503  38.513  46.408  1.00  0.00     0.010 A 
HETATM   16  C   UNL     1      28.040  38.652  45.126  1.00  0.00     0.001 A 
HETATM   17  C   UNL     1      28.456  39.901  44.677  1.00  0.00     0.000 A 
HETATM   18  C   UNL     1      28.330  41.010  45.508  1.00  0.00     0.001 A 
HETATM   19  C   UNL     1      27.792  40.873  46.792  1.00  0.00     0.010 A 
ENDBRANCH   9  14
ENDBRANCH   1   5
BRANCH   2  20
HETATM   20  C   UNL     1      26.798  44.663  51.454  1.00  0.00     0.227 C 
BRANCH  20  21
HETATM   21  N   UNL     1      27.896  44.493  52.388  1.00  0.00    -0.348 N 
HETATM   22  C   UNL     1      27.804  44.985  53.672  1.00  0.00     0.252 C 
HETATM   23  O   UNL     1      26.848  45.670  54.025  1.00  0.00    -0.268 OA
HETATM   24  H   UNL     1      28.639  43.866  52.115  1.00  0.00     0.163 HD
BRANCH  22  25
HETATM   25  C   UNL     1      28.895  44.633  54.631  1.00  0.00     0.033 A 
HETATM   26  C   UNL     1      29.141  45.359  55.803  1.00  0.00     0.036 A 
HETATM   27  C   UNL     1      30.204  44.992  56.633  1.00  0.00     0.012 A 
HETATM   28 BR   UNL     1      30.548  45.990  58.203  1.00  0.00    -0.051 Br
HETATM   29  C   UNL     1      31.014  43.903  56.320  1.00  0.00     0.019 A 
HETATM   30  C   UNL     1      30.759  43.164  55.166  1.00  0.00     0.002 A 
HETATM   31  C   UNL     1      29.703  43.527  54.326  1.00  0.00     0.017 A 
ENDBRANCH  22  25
ENDBRANCH  20  21
ENDBRANCH   2  20
TORSDOF 5
ENDMDL
MODEL 10
REMARK VINA RESULT:      -8.3      2.280      3.669
REMARK  5 active torsions:
REMARK  status: ('A' for Active; 'I' for Inactive)
REMARK    1  A    between atoms: C_2  and  C_3 
REMARK    2  A    between atoms: N_12  and  N_13 
REMARK       I    between atoms: N_13  and  C_14 
REMARK    3  A    between atoms: C_14  and  C_15 
REMARK    4  A    between atoms: C_15  and  N_16 
REMARK       I    between atoms: N_16  and  C_17 
REMARK    5  A    between atoms: C_17  and  C_18 
ROOT
HETATM    1  N   UNL     1      22.388  46.743  49.328  1.00  0.00    -0.255 N 
HETATM    2  C   UNL     1      22.032  46.540  48.006  1.00  0.00     0.254 C 
HETATM    3  O   UNL     1      22.831  46.401  47.082  1.00  0.00    -0.270 OA
HETATM    4  H   UNL     1      21.768  46.340  50.038  1.00  0.00     0.191 HD
ENDROOT
BRANCH   1   5
HETATM    5  N   UNL     1      23.740  46.744  49.632  1.00  0.00    -0.167 N 
HETATM    6  C   UNL     1      24.529  47.860  49.607  1.00  0.00     0.345 C 
HETATM    7  N   UNL     1      25.805  47.482  49.977  1.00  0.00    -0.319 N 
HETATM    8  O   UNL     1      24.213  49.001  49.309  1.00  0.00    -0.245 OA
HETATM    9  C   UNL     1      25.859  46.101  50.430  1.00  0.00     0.141 C 
HETATM   10  H   UNL     1      26.500  48.186  50.179  1.00  0.00     0.166 HD
HETATM   11  C   UNL     1      26.827  45.282  49.569  1.00  0.00     0.055 C 
HETATM   12  C   UNL     1      24.422  45.638  50.080  1.00  0.00     0.279 C 
HETATM   13  O   UNL     1      23.991  44.495  50.181  1.00  0.00    -0.268 OA
BRANCH   9  14
HETATM   14  C   UNL     1      26.207  46.073  51.916  1.00  0.00    -0.021 A 
HETATM   15  C   UNL     1      26.011  47.223  52.708  1.00  0.00     0.010 A 
HETATM   16  C   UNL     1      26.291  47.219  54.076  1.00  0.00     0.001 A 
HETATM   17  C   UNL     1      26.765  46.062  54.686  1.00  0.00     0.000 A 
HETATM   18  C   UNL     1      26.954  44.911  53.928  1.00  0.00     0.001 A 
HETATM   19  C   UNL     1      26.674  44.913  52.558  1.00  0.00     0.010 A 
ENDBRANCH   9  14
ENDBRANCH   1   5
BRANCH   2  20
HETATM   20  C   UNL     1      20.521  46.455  47.804  1.00  0.00     0.227 C 
BRANCH  20  21
HETATM   21  N   UNL     1      19.935  47.762  47.577  1.00  0.00    -0.348 N 
HETATM   22  C   UNL     1      19.547  48.550  48.639  1.00  0.00     0.252 C 
HETATM   23  O   UNL     1      19.584  48.127  49.792  1.00  0.00    -0.268 OA
HETATM   24  H   UNL     1      19.980  48.130  46.637  1.00  0.00     0.163 HD
BRANCH  22  25
HETATM   25  C   UNL     1      19.106  49.947  48.345  1.00  0.00     0.033 A 
HETATM   26  C   UNL     1      18.469  50.308  47.152  1.00  0.00     0.036 A 
HETATM   27  C   UNL     1      18.118  51.643  46.931  1.00  0.00     0.012 A 
HETATM   28 BR   UNL     1      17.280  52.131  45.307  1.00  0.00    -0.051 Br
HETATM   29  C   UNL     1      18.379  52.619  47.891  1.00  0.00     0.019 A 
HETATM   30  C   UNL     1      18.992  52.260  49.090  1.00  0.00     0.002 A 
HETATM   31  C   UNL     1      19.353  50.929  49.316  1.00  0.00     0.017 A 
ENDBRANCH  22  25
ENDBRANCH  20  21
ENDBRANCH   2  20
TORSDOF 5
ENDMDL
