MODEL 1
REMARK VINA RESULT:     -10.0      0.000      0.000
REMARK  6 active torsions:
REMARK  status: ('A' for Active; 'I' for Inactive)
REMARK    1  A    between atoms: C_2  and  O_3 
REMARK    2  A    between atoms: C_2  and  C_4 
REMARK    3  A    between atoms: C_6  and  N_7 
REMARK       I    between atoms: N_7  and  C_8 
REMARK    4  A    between atoms: C_8  and  C_9 
REMARK    5  A    between atoms: C_12  and  C_13 
REMARK    6  A    between atoms: C_18  and  C_19 
ROOT
HETATM    1  C   UNL     1      26.780  44.465  51.800  1.00  0.00     0.096 A 
HETATM    2  C   UNL     1      25.752  45.150  51.180  1.00  0.00     0.138 A 
HETATM    3  N   UNL     1      25.598  44.561  49.946  1.00  0.00    -0.240 N 
HETATM    4  C   UNL     1      24.637  44.991  48.946  1.00  0.00     0.221 C 
HETATM    5  C   UNL     1      23.634  45.996  49.552  1.00  0.00     0.066 C 
HETATM    6  C   UNL     1      24.338  47.005  50.475  1.00  0.00     0.118 C 
HETATM    7  N   UNL     1      24.992  46.224  51.541  1.00  0.00    -0.365 N 
HETATM    8  N   UNL     1      26.548  43.657  49.665  1.00  0.00    -0.181 NA
HETATM    9  C   UNL     1      27.255  43.588  50.796  1.00  0.00     0.160 A 
HETATM   10  H   UNL     1      25.311  46.812  52.313  1.00  0.00     0.161 HD
ENDROOT
BRANCH   1  11
HETATM   11  C   UNL     1      27.315  44.629  53.139  1.00  0.00     0.261 C 
HETATM   12  N   UNL     1      28.611  44.164  53.261  1.00  0.00    -0.323 N 
HETATM   13  H   UNL     1      29.056  43.889  52.391  1.00  0.00     0.169 HD
HETATM   14  O   UNL     1      26.656  45.178  54.015  1.00  0.00    -0.267 OA
BRANCH  12  15
HETATM   15  C   UNL     1      29.419  44.159  54.412  1.00  0.00     0.035 A 
HETATM   16  C   UNL     1      29.371  45.148  55.399  1.00  0.00     0.039 A 
HETATM   17  C   UNL     1      30.199  45.083  56.536  1.00  0.00    -0.028 A 
HETATM   18  C   UNL     1      31.081  44.003  56.666  1.00  0.00     0.010 A 
HETATM   19  C   UNL     1      31.136  43.011  55.688  1.00  0.00     0.003 A 
HETATM   20  C   UNL     1      30.302  43.086  54.571  1.00  0.00     0.029 A 
BRANCH  17  21
HETATM   21  C   UNL     1      30.082  46.149  57.603  1.00  0.00     0.147 C 
HETATM   22  C   UNL     1      28.648  46.269  58.108  1.00  0.00     0.044 C 
BRANCH  21  23
HETATM   23  O   UNL     1      30.936  45.846  58.705  1.00  0.00    -0.391 OA
HETATM   24  H   UNL     1      31.362  44.995  58.506  1.00  0.00     0.210 HD
ENDBRANCH  21  23
ENDBRANCH  17  21
ENDBRANCH  12  15
ENDBRANCH   1  11
BRANCH   4  25
HETATM   25  C   UNL     1      23.880  43.815  48.370  1.00  0.00     0.409 C 
HETATM   26  F   UNL     1      24.582  43.102  47.468  1.00  0.00    -0.169 F 
HETATM   27  F   UNL     1      23.438  42.969  49.330  1.00  0.00    -0.169 F 
HETATM   28  F   UNL     1      22.772  44.264  47.717  1.00  0.00    -0.169 F 
ENDBRANCH   4  25
BRANCH   6  29
HETATM   29  C   UNL     1      25.285  47.969  49.760  1.00  0.00    -0.035 A 
HETATM   30  C   UNL     1      24.769  48.965  48.909  1.00  0.00     0.009 A 
HETATM   31  C   UNL     1      25.612  49.859  48.240  1.00  0.00     0.001 A 
HETATM   32  C   UNL     1      26.987  49.794  48.428  1.00  0.00     0.000 A 
HETATM   33  C   UNL     1      27.520  48.840  49.290  1.00  0.00     0.001 A 
HETATM   34  C   UNL     1      26.678  47.942  49.952  1.00  0.00     0.009 A 
ENDBRANCH   6  29
TORSDOF 6
ENDMDL
MODEL 2
REMARK VINA RESULT:      -9.5      4.279      7.380
REMARK  6 active torsions:
REMARK  status: ('A' for Active; 'I' for Inactive)
REMARK    1  A    between atoms: C_2  and  O_3 
REMARK    2  A    between atoms: C_2  and  C_4 
REMARK    3  A    between atoms: C_6  and  N_7 
REMARK       I    between atoms: N_7  and  C_8 
REMARK    4  A    between atoms: C_8  and  C_9 
REMARK    5  A    between atoms: C_12  and  C_13 
REMARK    6  A    between atoms: C_18  and  C_19 
ROOT
HETATM    1  C   UNL     1      26.807  43.092  50.835  1.00  0.00     0.096 A 
HETATM    2  C   UNL     1      26.573  43.674  52.066  1.00  0.00     0.138 A 
HETATM    3  N   UNL     1      26.662  45.032  51.864  1.00  0.00    -0.240 N 
HETATM    4  C   UNL     1      26.511  46.030  52.908  1.00  0.00     0.221 C 
HETATM    5  C   UNL     1      25.962  45.386  54.199  1.00  0.00     0.066 C 
HETATM    6  C   UNL     1      26.627  44.028  54.477  1.00  0.00     0.118 C 
HETATM    7  N   UNL     1      26.344  43.168  53.312  1.00  0.00    -0.365 N 
HETATM    8  N   UNL     1      27.089  45.361  50.635  1.00  0.00    -0.181 NA
HETATM    9  C   UNL     1      27.161  44.184  50.007  1.00  0.00     0.160 A 
HETATM   10  H   UNL     1      26.568  42.187  53.491  1.00  0.00     0.161 HD
ENDROOT
BRANCH   1  11
HETATM   11  C   UNL     1      26.772  41.690  50.461  1.00  0.00     0.261 C 
HETATM   12  N   UNL     1      27.943  41.264  49.863  1.00  0.00    -0.323 N 
HETATM   13  H   UNL     1      28.704  41.935  49.873  1.00  0.00     0.169 HD
HETATM   14  O   UNL     1      25.797  40.995  50.725  1.00  0.00    -0.267 OA
BRANCH  12  15
HETATM   15  C   UNL     1      28.242  39.980  49.373  1.00  0.00     0.035 A 
HETATM   16  C   UNL     1      28.631  38.911  50.184  1.00  0.00     0.039 A 
HETATM   17  C   UNL     1      28.907  37.643  49.636  1.00  0.00    -0.028 A 
HETATM   18  C   UNL     1      28.785  37.467  48.253  1.00  0.00     0.010 A 
HETATM   19  C   UNL     1      28.396  38.527  47.435  1.00  0.00     0.003 A 
HETATM   20  C   UNL     1      28.118  39.774  47.995  1.00  0.00     0.029 A 
BRANCH  17  21
HETATM   21  C   UNL     1      29.280  36.501  50.555  1.00  0.00     0.147 C 
HETATM   22  C   UNL     1      29.987  37.009  51.808  1.00  0.00     0.044 C 
BRANCH  21  23
HETATM   23  O   UNL     1      28.116  35.774  50.944  1.00  0.00    -0.391 OA
HETATM   24  H   UNL     1      27.725  36.249  51.696  1.00  0.00     0.210 HD
ENDBRANCH  21  23
ENDBRANCH  17  21
ENDBRANCH  12  15
ENDBRANCH   1  11
BRANCH   4  25
HETATM   25  C   UNL     1      25.586  47.145  52.473  1.00  0.00     0.409 C 
HETATM   26  F   UNL     1      24.506  46.722  51.786  1.00  0.00    -0.169 F 
HETATM   27  F   UNL     1      25.160  47.895  53.516  1.00  0.00    -0.169 F 
HETATM   28  F   UNL     1      26.255  47.991  51.641  1.00  0.00    -0.169 F 
ENDBRANCH   4  25
BRANCH   6  29
HETATM   29  C   UNL     1      28.113  44.107  54.827  1.00  0.00    -0.035 A 
HETATM   30  C   UNL     1      28.603  45.184  55.591  1.00  0.00     0.009 A 
HETATM   31  C   UNL     1      29.957  45.283  55.924  1.00  0.00     0.001 A 
HETATM   32  C   UNL     1      30.848  44.293  55.525  1.00  0.00     0.000 A 
HETATM   33  C   UNL     1      30.384  43.201  54.799  1.00  0.00     0.001 A 
HETATM   34  C   UNL     1      29.031  43.107  54.459  1.00  0.00     0.009 A 
ENDBRANCH   6  29
TORSDOF 6
ENDMDL
MODEL 3
REMARK VINA RESULT:      -9.3      4.095      9.019
REMARK  6 active torsions:
REMARK  status: ('A' for Active; 'I' for Inactive)
REMARK    1  A    between atoms: C_2  and  O_3 
REMARK    2  A    between atoms: C_2  and  C_4 
REMARK    3  A    between atoms: C_6  and  N_7 
REMARK       I    between atoms: N_7  and  C_8 
REMARK    4  A    between atoms: C_8  and  C_9 
REMARK    5  A    between atoms: C_12  and  C_13 
REMARK    6  A    between atoms: C_18  and  C_19 
ROOT
HETATM    1  C   UNL     1      24.934  45.573  51.627  1.00  0.00     0.096 A 
HETATM    2  C   UNL     1      25.484  45.294  52.864  1.00  0.00     0.138 A 
HETATM    3  N   UNL     1      26.221  46.404  53.208  1.00  0.00    -0.240 N 
HETATM    4  C   UNL     1      26.997  46.530  54.429  1.00  0.00     0.221 C 
HETATM    5  C   UNL     1      26.659  45.384  55.407  1.00  0.00     0.066 C 
HETATM    6  C   UNL     1      26.528  44.038  54.673  1.00  0.00     0.118 C 
HETATM    7  N   UNL     1      25.452  44.199  53.677  1.00  0.00    -0.365 N 
HETATM    8  N   UNL     1      26.314  47.308  52.220  1.00  0.00    -0.181 NA
HETATM    9  C   UNL     1      25.520  46.810  51.268  1.00  0.00     0.160 A 
HETATM   10  H   UNL     1      25.153  43.305  53.282  1.00  0.00     0.161 HD
ENDROOT
BRANCH   1  11
HETATM   11  C   UNL     1      24.021  44.777  50.828  1.00  0.00     0.261 C 
HETATM   12  N   UNL     1      23.668  45.392  49.642  1.00  0.00    -0.323 N 
HETATM   13  H   UNL     1      24.176  46.244  49.428  1.00  0.00     0.169 HD
HETATM   14  O   UNL     1      23.678  43.659  51.196  1.00  0.00    -0.267 OA
BRANCH  12  15
HETATM   15  C   UNL     1      22.800  44.908  48.646  1.00  0.00     0.035 A 
HETATM   16  C   UNL     1      21.437  45.208  48.592  1.00  0.00     0.039 A 
HETATM   17  C   UNL     1      20.620  44.701  47.564  1.00  0.00    -0.028 A 
HETATM   18  C   UNL     1      21.198  43.883  46.585  1.00  0.00     0.010 A 
HETATM   19  C   UNL     1      22.558  43.578  46.630  1.00  0.00     0.003 A 
HETATM   20  C   UNL     1      23.356  44.096  47.652  1.00  0.00     0.029 A 
BRANCH  17  21
HETATM   21  C   UNL     1      19.158  45.088  47.515  1.00  0.00     0.147 C 
HETATM   22  C   UNL     1      18.445  44.405  46.353  1.00  0.00     0.044 C 
BRANCH  21  23
HETATM   23  O   UNL     1      18.507  44.727  48.732  1.00  0.00    -0.391 OA
HETATM   24  H   UNL     1      19.027  44.008  49.127  1.00  0.00     0.210 HD
ENDBRANCH  21  23
ENDBRANCH  17  21
ENDBRANCH  12  15
ENDBRANCH   1  11
BRANCH   4  25
HETATM   25  C   UNL     1      26.743  47.857  55.108  1.00  0.00     0.409 C 
HETATM   26  F   UNL     1      25.603  48.461  54.718  1.00  0.00    -0.169 F 
HETATM   27  F   UNL     1      26.726  47.749  56.457  1.00  0.00    -0.169 F 
HETATM   28  F   UNL     1      27.750  48.722  54.805  1.00  0.00    -0.169 F 
ENDBRANCH   4  25
BRANCH   6  29
HETATM   29  C   UNL     1      27.833  43.508  54.078  1.00  0.00    -0.035 A 
HETATM   30  C   UNL     1      29.047  43.680  54.772  1.00  0.00     0.009 A 
HETATM   31  C   UNL     1      30.255  43.207  54.251  1.00  0.00     0.001 A 
HETATM   32  C   UNL     1      30.274  42.528  53.038  1.00  0.00     0.000 A 
HETATM   33  C   UNL     1      29.084  42.316  52.350  1.00  0.00     0.001 A 
HETATM   34  C   UNL     1      27.877  42.796  52.867  1.00  0.00     0.009 A 
ENDBRANCH   6  29
TORSDOF 6
ENDMDL
MODEL 4
REMARK VINA RESULT:      -9.2      4.435      8.106
REMARK  6 active torsions:
REMARK  status: ('A' for Active; 'I' for Inactive)
REMARK    1  A    between atoms: C_2  and  O_3 
REMARK    2  A    between atoms: C_2  and  C_4 
REMARK    3  A    between atoms: C_6  and  N_7 
REMARK       I    between atoms: N_7  and  C_8 
REMARK    4  A    between atoms: C_8  and  C_9 
REMARK    5  A    between atoms: C_12  and  C_13 
REMARK    6  A    between atoms: C_18  and  C_19 
ROOT
HETATM    1  C   UNL     1      26.829  42.759  50.772  1.00  0.00     0.096 A 
HETATM    2  C   UNL     1      26.579  43.408  51.966  1.00  0.00     0.138 A 
HETATM    3  N   UNL     1      26.687  44.752  51.694  1.00  0.00    -0.240 N 
HETATM    4  C   UNL     1      26.528  45.806  52.680  1.00  0.00     0.221 C 
HETATM    5  C   UNL     1      25.948  45.237  53.993  1.00  0.00     0.066 C 
HETATM    6  C   UNL     1      26.593  43.889  54.356  1.00  0.00     0.118 C 
HETATM    7  N   UNL     1      26.322  42.971  53.233  1.00  0.00    -0.365 N 
HETATM    8  N   UNL     1      27.140  45.010  50.457  1.00  0.00    -0.181 NA
HETATM    9  C   UNL     1      27.211  43.801  49.895  1.00  0.00     0.160 A 
HETATM   10  H   UNL     1      26.531  41.999  53.468  1.00  0.00     0.161 HD
ENDROOT
BRANCH   1  11
HETATM   11  C   UNL     1      26.786  41.339  50.474  1.00  0.00     0.261 C 
HETATM   12  N   UNL     1      27.376  41.026  49.263  1.00  0.00    -0.323 N 
HETATM   13  H   UNL     1      27.862  41.792  48.807  1.00  0.00     0.169 HD
HETATM   14  O   UNL     1      26.310  40.544  51.276  1.00  0.00    -0.267 OA
BRANCH  12  15
HETATM   15  C   UNL     1      27.497  39.758  48.667  1.00  0.00     0.035 A 
HETATM   16  C   UNL     1      26.433  39.075  48.072  1.00  0.00     0.039 A 
HETATM   17  C   UNL     1      26.618  37.810  47.481  1.00  0.00    -0.028 A 
HETATM   18  C   UNL     1      27.897  37.240  47.498  1.00  0.00     0.010 A 
HETATM   19  C   UNL     1      28.965  37.914  48.089  1.00  0.00     0.003 A 
HETATM   20  C   UNL     1      28.767  39.170  48.662  1.00  0.00     0.029 A 
BRANCH  17  21
HETATM   21  C   UNL     1      25.450  37.125  46.807  1.00  0.00     0.147 C 
HETATM   22  C   UNL     1      25.360  35.659  47.216  1.00  0.00     0.044 C 
BRANCH  21  23
HETATM   23  O   UNL     1      24.227  37.776  47.147  1.00  0.00    -0.391 OA
HETATM   24  H   UNL     1      23.527  37.353  46.623  1.00  0.00     0.210 HD
ENDBRANCH  21  23
ENDBRANCH  17  21
ENDBRANCH  12  15
ENDBRANCH   1  11
BRANCH   4  25
HETATM   25  C   UNL     1      25.623  46.905  52.170  1.00  0.00     0.409 C 
HETATM   26  F   UNL     1      26.240  47.788  51.359  1.00  0.00    -0.169 F 
HETATM   27  F   UNL     1      24.539  46.419  51.522  1.00  0.00    -0.169 F 
HETATM   28  F   UNL     1      25.148  47.627  53.222  1.00  0.00    -0.169 F 
ENDBRANCH   4  25
BRANCH   6  29
HETATM   29  C   UNL     1      28.073  43.972  54.729  1.00  0.00    -0.035 A 
HETATM   30  C   UNL     1      28.554  45.066  55.474  1.00  0.00     0.009 A 
HETATM   31  C   UNL     1      29.903  45.168  55.828  1.00  0.00     0.001 A 
HETATM   32  C   UNL     1      30.797  44.166  55.469  1.00  0.00     0.000 A 
HETATM   33  C   UNL     1      30.341  43.058  54.762  1.00  0.00     0.001 A 
HETATM   34  C   UNL     1      28.994  42.960  54.401  1.00  0.00     0.009 A 
ENDBRANCH   6  29
TORSDOF 6
ENDMDL
MODEL 5
REMARK VINA RESULT:      -9.1      3.982      8.012
REMARK  6 active torsions:
REMARK  status: ('A' for Active; 'I' for Inactive)
REMARK    1  A    between atoms: C_2  and  O_3 
REMARK    2  A    between atoms: C_2  and  C_4 
REMARK    3  A    between atoms: C_6  and  N_7 
REMARK       I    between atoms: N_7  and  C_8 
REMARK    4  A    between atoms: C_8  and  C_9 
REMARK    5  A    between atoms: C_12  and  C_13 
REMARK    6  A    between atoms: C_18  and  C_19 
ROOT
HETATM    1  C   UNL     1      23.400  44.923  49.334  1.00  0.00     0.096 A 
HETATM    2  C   UNL     1      24.698  44.564  49.645  1.00  0.00     0.138 A 
HETATM    3  N   UNL     1      24.623  43.292  50.165  1.00  0.00    -0.240 N 
HETATM    4  C   UNL     1      25.762  42.535  50.653  1.00  0.00     0.221 C 
HETATM    5  C   UNL     1      27.084  43.224  50.253  1.00  0.00     0.066 C 
HETATM    6  C   UNL     1      26.998  44.750  50.429  1.00  0.00     0.118 C 
HETATM    7  N   UNL     1      25.893  45.217  49.570  1.00  0.00    -0.365 N 
HETATM    8  N   UNL     1      23.363  42.869  50.357  1.00  0.00    -0.181 NA
HETATM    9  C   UNL     1      22.624  43.853  49.838  1.00  0.00     0.160 A 
HETATM   10  H   UNL     1      25.890  46.233  49.462  1.00  0.00     0.161 HD
ENDROOT
BRANCH   1  11
HETATM   11  C   UNL     1      22.910  46.134  48.702  1.00  0.00     0.261 C 
HETATM   12  N   UNL     1      23.225  47.277  49.413  1.00  0.00    -0.323 N 
HETATM   13  H   UNL     1      23.850  47.138  50.201  1.00  0.00     0.169 HD
HETATM   14  O   UNL     1      22.330  46.087  47.623  1.00  0.00    -0.267 OA
BRANCH  12  15
HETATM   15  C   UNL     1      22.896  48.607  49.094  1.00  0.00     0.035 A 
HETATM   16  C   UNL     1      21.733  49.245  49.532  1.00  0.00     0.039 A 
HETATM   17  C   UNL     1      21.464  50.584  49.188  1.00  0.00    -0.028 A 
HETATM   18  C   UNL     1      22.387  51.274  48.392  1.00  0.00     0.010 A 
HETATM   19  C   UNL     1      23.551  50.646  47.951  1.00  0.00     0.003 A 
HETATM   20  C   UNL     1      23.807  49.321  48.308  1.00  0.00     0.029 A 
BRANCH  17  21
HETATM   21  C   UNL     1      20.216  51.253  49.721  1.00  0.00     0.147 C 
HETATM   22  C   UNL     1      19.489  52.020  48.621  1.00  0.00     0.044 C 
BRANCH  21  23
HETATM   23  O   UNL     1      19.327  50.282  50.271  1.00  0.00    -0.391 OA
HETATM   24  H   UNL     1      18.474  50.726  50.407  1.00  0.00     0.210 HD
ENDBRANCH  21  23
ENDBRANCH  17  21
ENDBRANCH  12  15
ENDBRANCH   1  11
BRANCH   4  25
HETATM   25  C   UNL     1      25.753  41.121  50.115  1.00  0.00     0.409 C 
HETATM   26  F   UNL     1      25.744  40.173  51.073  1.00  0.00    -0.169 F 
HETATM   27  F   UNL     1      24.711  40.894  49.283  1.00  0.00    -0.169 F 
HETATM   28  F   UNL     1      26.882  40.907  49.384  1.00  0.00    -0.169 F 
ENDBRANCH   4  25
BRANCH   6  29
HETATM   29  C   UNL     1      26.880  45.217  51.880  1.00  0.00    -0.035 A 
HETATM   30  C   UNL     1      26.104  46.349  52.197  1.00  0.00     0.009 A 
HETATM   31  C   UNL     1      25.980  46.799  53.515  1.00  0.00     0.001 A 
HETATM   32  C   UNL     1      26.607  46.113  54.549  1.00  0.00     0.000 A 
HETATM   33  C   UNL     1      27.351  44.973  54.266  1.00  0.00     0.001 A 
HETATM   34  C   UNL     1      27.481  44.527  52.947  1.00  0.00     0.009 A 
ENDBRANCH   6  29
TORSDOF 6
ENDMDL
MODEL 6
REMARK VINA RESULT:      -8.7     12.892     14.007
REMARK  6 active torsions:
REMARK  status: ('A' for Active; 'I' for Inactive)
REMARK    1  A    between atoms: C_2  and  O_3 
REMARK    2  A    between atoms: C_2  and  C_4 
REMARK    3  A    between atoms: C_6  and  N_7 
REMARK       I    between atoms: N_7  and  C_8 
REMARK    4  A    between atoms: C_8  and  C_9 
REMARK    5  A    between atoms: C_12  and  C_13 
REMARK    6  A    between atoms: C_18  and  C_19 
ROOT
HETATM    1  C   UNL     1      32.848  51.407  41.936  1.00  0.00     0.096 A 
HETATM    2  C   UNL     1      32.160  51.321  40.741  1.00  0.00     0.138 A 
HETATM    3  N   UNL     1      30.931  51.895  40.972  1.00  0.00    -0.240 N 
HETATM    4  C   UNL     1      29.870  51.993  39.985  1.00  0.00     0.221 C 
HETATM    5  C   UNL     1      30.400  51.630  38.582  1.00  0.00     0.066 C 
HETATM    6  C   UNL     1      31.341  50.414  38.632  1.00  0.00     0.118 C 
HETATM    7  N   UNL     1      32.457  50.775  39.526  1.00  0.00    -0.365 N 
HETATM    8  N   UNL     1      30.720  52.200  42.262  1.00  0.00    -0.181 NA
HETATM    9  C   UNL     1      31.890  51.918  42.843  1.00  0.00     0.160 A 
HETATM   10  H   UNL     1      33.233  50.114  39.464  1.00  0.00     0.161 HD
ENDROOT
BRANCH   1  11
HETATM   11  C   UNL     1      34.211  51.012  42.240  1.00  0.00     0.261 C 
HETATM   12  N   UNL     1      34.911  51.982  42.933  1.00  0.00    -0.323 N 
HETATM   13  H   UNL     1      34.359  52.776  43.242  1.00  0.00     0.169 HD
HETATM   14  O   UNL     1      34.624  49.899  41.934  1.00  0.00    -0.267 OA
BRANCH  12  15
HETATM   15  C   UNL     1      36.246  51.932  43.372  1.00  0.00     0.035 A 
HETATM   16  C   UNL     1      36.742  52.691  44.435  1.00  0.00     0.039 A 
HETATM   17  C   UNL     1      38.088  52.590  44.836  1.00  0.00    -0.028 A 
HETATM   18  C   UNL     1      38.932  51.710  44.147  1.00  0.00     0.010 A 
HETATM   19  C   UNL     1      38.447  50.948  43.086  1.00  0.00     0.003 A 
HETATM   20  C   UNL     1      37.107  51.053  42.706  1.00  0.00     0.029 A 
BRANCH  17  21
HETATM   21  C   UNL     1      38.574  53.394  46.022  1.00  0.00     0.147 C 
HETATM   22  C   UNL     1      37.881  54.751  46.089  1.00  0.00     0.044 C 
BRANCH  21  23
HETATM   23  O   UNL     1      38.326  52.689  47.237  1.00  0.00    -0.391 OA
HETATM   24  H   UNL     1      38.533  53.298  47.965  1.00  0.00     0.210 HD
ENDBRANCH  21  23
ENDBRANCH  17  21
ENDBRANCH  12  15
ENDBRANCH   1  11
BRANCH   4  25
HETATM   25  C   UNL     1      29.277  53.384  39.951  1.00  0.00     0.409 C 
HETATM   26  F   UNL     1      28.228  53.551  40.780  1.00  0.00    -0.169 F 
HETATM   27  F   UNL     1      30.194  54.340  40.228  1.00  0.00    -0.169 F 
HETATM   28  F   UNL     1      28.814  53.649  38.698  1.00  0.00    -0.169 F 
ENDBRANCH   4  25
BRANCH   6  29
HETATM   29  C   UNL     1      30.660  49.099  39.010  1.00  0.00    -0.035 A 
HETATM   30  C   UNL     1      29.331  48.851  38.615  1.00  0.00     0.009 A 
HETATM   31  C   UNL     1      28.683  47.658  38.948  1.00  0.00     0.001 A 
HETATM   32  C   UNL     1      29.357  46.674  39.662  1.00  0.00     0.000 A 
HETATM   33  C   UNL     1      30.681  46.879  40.035  1.00  0.00     0.001 A 
HETATM   34  C   UNL     1      31.326  48.076  39.708  1.00  0.00     0.009 A 
ENDBRANCH   6  29
TORSDOF 6
ENDMDL
MODEL 7
REMARK VINA RESULT:      -8.5      4.842      6.870
REMARK  6 active torsions:
REMARK  status: ('A' for Active; 'I' for Inactive)
REMARK    1  A    between atoms: C_2  and  O_3 
REMARK    2  A    between atoms: C_2  and  C_4 
REMARK    3  A    between atoms: C_6  and  N_7 
REMARK       I    between atoms: N_7  and  C_8 
REMARK    4  A    between atoms: C_8  and  C_9 
REMARK    5  A    between atoms: C_12  and  C_13 
REMARK    6  A    between atoms: C_18  and  C_19 
ROOT
HETATM    1  C   UNL     1      21.776  47.078  48.397  1.00  0.00     0.096 A 
HETATM    2  C   UNL     1      20.490  47.412  48.776  1.00  0.00     0.138 A 
HETATM    3  N   UNL     1      19.705  47.210  47.665  1.00  0.00    -0.240 N 
HETATM    4  C   UNL     1      18.277  47.466  47.609  1.00  0.00     0.221 C 
HETATM    5  C   UNL     1      17.715  47.719  49.024  1.00  0.00     0.066 C 
HETATM    6  C   UNL     1      18.659  48.606  49.854  1.00  0.00     0.118 C 
HETATM    7  N   UNL     1      19.951  47.899  49.931  1.00  0.00    -0.365 N 
HETATM    8  N   UNL     1      20.411  46.924  46.559  1.00  0.00    -0.181 NA
HETATM    9  C   UNL     1      21.665  46.829  47.009  1.00  0.00     0.160 A 
HETATM   10  H   UNL     1      20.576  48.308  50.628  1.00  0.00     0.161 HD
ENDROOT
BRANCH   1  11
HETATM   11  C   UNL     1      22.988  47.047  49.194  1.00  0.00     0.261 C 
HETATM   12  N   UNL     1      23.477  45.767  49.380  1.00  0.00    -0.323 N 
HETATM   13  H   UNL     1      23.009  45.043  48.845  1.00  0.00     0.169 HD
HETATM   14  O   UNL     1      23.507  48.086  49.588  1.00  0.00    -0.267 OA
BRANCH  12  15
HETATM   15  C   UNL     1      24.618  45.379  50.105  1.00  0.00     0.035 A 
HETATM   16  C   UNL     1      24.656  45.279  51.498  1.00  0.00     0.039 A 
HETATM   17  C   UNL     1      25.827  44.874  52.168  1.00  0.00    -0.028 A 
HETATM   18  C   UNL     1      26.965  44.569  51.411  1.00  0.00     0.010 A 
HETATM   19  C   UNL     1      26.937  44.665  50.020  1.00  0.00     0.003 A 
HETATM   20  C   UNL     1      25.766  45.059  49.371  1.00  0.00     0.029 A 
BRANCH  17  21
HETATM   21  C   UNL     1      25.812  44.734  53.674  1.00  0.00     0.147 C 
HETATM   22  C   UNL     1      25.830  46.099  54.355  1.00  0.00     0.044 C 
BRANCH  21  23
HETATM   23  O   UNL     1      24.650  44.023  54.096  1.00  0.00    -0.391 OA
HETATM   24  H   UNL     1      24.941  43.131  54.350  1.00  0.00     0.210 HD
ENDBRANCH  21  23
ENDBRANCH  17  21
ENDBRANCH  12  15
ENDBRANCH   1  11
BRANCH   4  25
HETATM   25  C   UNL     1      17.535  46.310  46.976  1.00  0.00     0.409 C 
HETATM   26  F   UNL     1      17.731  46.196  45.648  1.00  0.00    -0.169 F 
HETATM   27  F   UNL     1      17.840  45.125  47.554  1.00  0.00    -0.169 F 
HETATM   28  F   UNL     1      16.194  46.485  47.145  1.00  0.00    -0.169 F 
ENDBRANCH   4  25
BRANCH   6  29
HETATM   29  C   UNL     1      18.783  50.045  49.353  1.00  0.00    -0.035 A 
HETATM   30  C   UNL     1      17.635  50.851  49.226  1.00  0.00     0.009 A 
HETATM   31  C   UNL     1      17.719  52.170  48.769  1.00  0.00     0.001 A 
HETATM   32  C   UNL     1      18.955  52.722  48.454  1.00  0.00     0.000 A 
HETATM   33  C   UNL     1      20.108  51.958  48.603  1.00  0.00     0.001 A 
HETATM   34  C   UNL     1      20.023  50.637  49.053  1.00  0.00     0.009 A 
ENDBRANCH   6  29
TORSDOF 6
ENDMDL
MODEL 8
REMARK VINA RESULT:      -8.4      4.364      8.368
REMARK  6 active torsions:
REMARK  status: ('A' for Active; 'I' for Inactive)
REMARK    1  A    between atoms: C_2  and  O_3 
REMARK    2  A    between atoms: C_2  and  C_4 
REMARK    3  A    between atoms: C_6  and  N_7 
REMARK       I    between atoms: N_7  and  C_8 
REMARK    4  A    between atoms: C_8  and  C_9 
REMARK    5  A    between atoms: C_12  and  C_13 
REMARK    6  A    between atoms: C_18  and  C_19 
ROOT
HETATM    1  C   UNL     1      25.654  44.308  50.778  1.00  0.00     0.096 A 
HETATM    2  C   UNL     1      25.968  42.976  50.974  1.00  0.00     0.138 A 
HETATM    3  N   UNL     1      27.288  42.954  51.363  1.00  0.00    -0.240 N 
HETATM    4  C   UNL     1      28.040  41.745  51.648  1.00  0.00     0.221 C 
HETATM    5  C   UNL     1      27.098  40.526  51.731  1.00  0.00     0.066 C 
HETATM    6  C   UNL     1      26.028  40.565  50.627  1.00  0.00     0.118 C 
HETATM    7  N   UNL     1      25.269  41.816  50.812  1.00  0.00    -0.365 N 
HETATM    8  N   UNL     1      27.888  44.152  51.280  1.00  0.00    -0.181 NA
HETATM    9  C   UNL     1      26.891  44.974  50.941  1.00  0.00     0.160 A 
HETATM   10  H   UNL     1      24.411  41.835  50.257  1.00  0.00     0.161 HD
ENDROOT
BRANCH   1  11
HETATM   11  C   UNL     1      24.381  44.907  50.422  1.00  0.00     0.261 C 
HETATM   12  N   UNL     1      24.520  46.067  49.683  1.00  0.00    -0.323 N 
HETATM   13  H   UNL     1      25.467  46.278  49.384  1.00  0.00     0.169 HD
HETATM   14  O   UNL     1      23.325  44.365  50.729  1.00  0.00    -0.267 OA
BRANCH  12  15
HETATM   15  C   UNL     1      23.501  46.899  49.187  1.00  0.00     0.035 A 
HETATM   16  C   UNL     1      23.367  48.248  49.526  1.00  0.00     0.039 A 
HETATM   17  C   UNL     1      22.330  49.034  48.988  1.00  0.00    -0.028 A 
HETATM   18  C   UNL     1      21.426  48.440  48.099  1.00  0.00     0.010 A 
HETATM   19  C   UNL     1      21.552  47.095  47.753  1.00  0.00     0.003 A 
HETATM   20  C   UNL     1      22.591  46.332  48.289  1.00  0.00     0.029 A 
BRANCH  17  21
HETATM   21  C   UNL     1      22.247  50.502  49.345  1.00  0.00     0.147 C 
HETATM   22  C   UNL     1      21.047  51.165  48.677  1.00  0.00     0.044 C 
BRANCH  21  23
HETATM   23  O   UNL     1      22.136  50.665  50.758  1.00  0.00    -0.391 OA
HETATM   24  H   UNL     1      22.425  49.829  51.162  1.00  0.00     0.210 HD
ENDBRANCH  21  23
ENDBRANCH  17  21
ENDBRANCH  12  15
ENDBRANCH   1  11
BRANCH   4  25
HETATM   25  C   UNL     1      28.812  41.870  52.942  1.00  0.00     0.409 C 
HETATM   26  F   UNL     1      30.080  42.298  52.784  1.00  0.00    -0.169 F 
HETATM   27  F   UNL     1      28.197  42.684  53.831  1.00  0.00    -0.169 F 
HETATM   28  F   UNL     1      28.898  40.648  53.538  1.00  0.00    -0.169 F 
ENDBRANCH   4  25
BRANCH   6  29
HETATM   29  C   UNL     1      26.571  40.387  49.209  1.00  0.00    -0.035 A 
HETATM   30  C   UNL     1      25.938  41.025  48.124  1.00  0.00     0.009 A 
HETATM   31  C   UNL     1      26.412  40.878  46.817  1.00  0.00     0.001 A 
HETATM   32  C   UNL     1      27.546  40.113  46.567  1.00  0.00     0.000 A 
HETATM   33  C   UNL     1      28.209  39.501  47.625  1.00  0.00     0.001 A 
HETATM   34  C   UNL     1      27.730  39.641  48.931  1.00  0.00     0.009 A 
ENDBRANCH   6  29
TORSDOF 6
ENDMDL
MODEL 9
REMARK VINA RESULT:      -8.2     13.024     14.580
REMARK  6 active torsions:
REMARK  status: ('A' for Active; 'I' for Inactive)
REMARK    1  A    between atoms: C_2  and  O_3 
REMARK    2  A    between atoms: C_2  and  C_4 
REMARK    3  A    between atoms: C_6  and  N_7 
REMARK       I    between atoms: N_7  and  C_8 
REMARK    4  A    between atoms: C_8  and  C_9 
REMARK    5  A    between atoms: C_12  and  C_13 
REMARK    6  A    between atoms: C_18  and  C_19 
ROOT
HETATM    1  C   UNL     1      32.906  51.409  41.846  1.00  0.00     0.096 A 
HETATM    2  C   UNL     1      32.197  51.318  40.663  1.00  0.00     0.138 A 
HETATM    3  N   UNL     1      30.974  51.897  40.912  1.00  0.00    -0.240 N 
HETATM    4  C   UNL     1      29.897  51.993  39.942  1.00  0.00     0.221 C 
HETATM    5  C   UNL     1      30.403  51.621  38.532  1.00  0.00     0.066 C 
HETATM    6  C   UNL     1      31.341  50.402  38.574  1.00  0.00     0.118 C 
HETATM    7  N   UNL     1      32.473  50.765  39.447  1.00  0.00    -0.365 N 
HETATM    8  N   UNL     1      30.785  52.210  42.203  1.00  0.00    -0.181 NA
HETATM    9  C   UNL     1      31.964  51.928  42.766  1.00  0.00     0.160 A 
HETATM   10  H   UNL     1      33.246  50.101  39.375  1.00  0.00     0.161 HD
ENDROOT
BRANCH   1  11
HETATM   11  C   UNL     1      34.273  51.012  42.129  1.00  0.00     0.261 C 
HETATM   12  N   UNL     1      35.010  52.013  42.734  1.00  0.00    -0.323 N 
HETATM   13  H   UNL     1      34.480  52.835  43.009  1.00  0.00     0.169 HD
HETATM   14  O   UNL     1      34.658  49.874  41.884  1.00  0.00    -0.267 OA
BRANCH  12  15
HETATM   15  C   UNL     1      36.358  51.969  43.130  1.00  0.00     0.035 A 
HETATM   16  C   UNL     1      37.393  51.511  42.312  1.00  0.00     0.039 A 
HETATM   17  C   UNL     1      38.728  51.501  42.762  1.00  0.00    -0.028 A 
HETATM   18  C   UNL     1      39.006  51.961  44.055  1.00  0.00     0.010 A 
HETATM   19  C   UNL     1      37.980  52.421  44.879  1.00  0.00     0.003 A 
HETATM   20  C   UNL     1      36.664  52.433  44.414  1.00  0.00     0.029 A 
BRANCH  17  21
HETATM   21  C   UNL     1      39.825  51.040  41.827  1.00  0.00     0.147 C 
HETATM   22  C   UNL     1      40.606  49.875  42.427  1.00  0.00     0.044 C 
BRANCH  21  23
HETATM   23  O   UNL     1      39.274  50.631  40.576  1.00  0.00    -0.391 OA
HETATM   24  H   UNL     1      39.836  49.912  40.242  1.00  0.00     0.210 HD
ENDBRANCH  21  23
ENDBRANCH  17  21
ENDBRANCH  12  15
ENDBRANCH   1  11
BRANCH   4  25
HETATM   25  C   UNL     1      29.308  53.385  39.910  1.00  0.00     0.409 C 
HETATM   26  F   UNL     1      30.170  54.352  40.280  1.00  0.00    -0.169 F 
HETATM   27  F   UNL     1      28.809  53.704  38.693  1.00  0.00    -0.169 F 
HETATM   28  F   UNL     1      28.264  53.456  40.782  1.00  0.00    -0.169 F 
ENDBRANCH   4  25
BRANCH   6  29
HETATM   29  C   UNL     1      30.663  49.091  38.970  1.00  0.00    -0.035 A 
HETATM   30  C   UNL     1      31.361  48.137  39.736  1.00  0.00     0.009 A 
HETATM   31  C   UNL     1      30.766  46.929  40.112  1.00  0.00     0.001 A 
HETATM   32  C   UNL     1      29.451  46.658  39.753  1.00  0.00     0.000 A 
HETATM   33  C   UNL     1      28.728  47.597  39.026  1.00  0.00     0.001 A 
HETATM   34  C   UNL     1      29.326  48.802  38.644  1.00  0.00     0.009 A 
ENDBRANCH   6  29
TORSDOF 6
ENDMDL
MODEL 10
REMARK VINA RESULT:      -8.2      3.431      5.754
REMARK  6 active torsions:
REMARK  status: ('A' for Active; 'I' for Inactive)
REMARK    1  A    between atoms: C_2  and  O_3 
REMARK    2  A    between atoms: C_2  and  C_4 
REMARK    3  A    between atoms: C_6  and  N_7 
REMARK       I    between atoms: N_7  and  C_8 
REMARK    4  A    between atoms: C_8  and  C_9 
REMARK    5  A    between atoms: C_12  and  C_13 
REMARK    6  A    between atoms: C_18  and  C_19 
ROOT
HETATM    1  C   UNL     1      26.036  42.901  50.336  1.00  0.00     0.096 A 
HETATM    2  C   UNL     1      26.129  42.208  49.144  1.00  0.00     0.138 A 
HETATM    3  N   UNL     1      24.845  41.831  48.826  1.00  0.00    -0.240 N 
HETATM    4  C   UNL     1      24.483  41.050  47.656  1.00  0.00     0.221 C 
HETATM    5  C   UNL     1      25.677  40.946  46.683  1.00  0.00     0.066 C 
HETATM    6  C   UNL     1      26.996  40.702  47.435  1.00  0.00     0.118 C 
HETATM    7  N   UNL     1      27.180  41.841  48.355  1.00  0.00    -0.365 N 
HETATM    8  N   UNL     1      23.957  42.093  49.798  1.00  0.00    -0.181 NA
HETATM    9  C   UNL     1      24.678  42.756  50.706  1.00  0.00     0.160 A 
HETATM   10  H   UNL     1      28.122  41.873  48.748  1.00  0.00     0.161 HD
ENDROOT
BRANCH   1  11
HETATM   11  C   UNL     1      27.078  43.574  51.090  1.00  0.00     0.261 C 
HETATM   12  N   UNL     1      27.275  43.024  52.343  1.00  0.00    -0.323 N 
HETATM   13  H   UNL     1      26.766  42.164  52.523  1.00  0.00     0.169 HD
HETATM   14  O   UNL     1      27.718  44.493  50.592  1.00  0.00    -0.267 OA
BRANCH  12  15
HETATM   15  C   UNL     1      28.190  43.434  53.329  1.00  0.00     0.035 A 
HETATM   16  C   UNL     1      28.112  44.657  53.999  1.00  0.00     0.039 A 
HETATM   17  C   UNL     1      29.053  45.008  54.986  1.00  0.00    -0.028 A 
HETATM   18  C   UNL     1      30.080  44.106  55.289  1.00  0.00     0.010 A 
HETATM   19  C   UNL     1      30.166  42.883  54.626  1.00  0.00     0.003 A 
HETATM   20  C   UNL     1      29.220  42.546  53.657  1.00  0.00     0.029 A 
BRANCH  17  21
HETATM   21  C   UNL     1      28.905  46.323  55.721  1.00  0.00     0.147 C 
HETATM   22  C   UNL     1      27.853  47.208  55.062  1.00  0.00     0.044 C 
BRANCH  21  23
HETATM   23  O   UNL     1      28.533  46.094  57.079  1.00  0.00    -0.391 OA
HETATM   24  H   UNL     1      27.563  46.037  57.100  1.00  0.00     0.210 HD
ENDBRANCH  21  23
ENDBRANCH  17  21
ENDBRANCH  12  15
ENDBRANCH   1  11
BRANCH   4  25
HETATM   25  C   UNL     1      23.301  41.657  46.934  1.00  0.00     0.409 C 
HETATM   26  F   UNL     1      22.106  41.286  47.433  1.00  0.00    -0.169 F 
HETATM   27  F   UNL     1      23.351  43.010  46.913  1.00  0.00    -0.169 F 
HETATM   28  F   UNL     1      23.309  41.254  45.633  1.00  0.00    -0.169 F 
ENDBRANCH   4  25
BRANCH   6  29
HETATM   29  C   UNL     1      27.093  39.341  48.126  1.00  0.00    -0.035 A 
HETATM   30  C   UNL     1      26.266  38.279  47.712  1.00  0.00     0.009 A 
HETATM   31  C   UNL     1      26.332  37.024  48.326  1.00  0.00     0.001 A 
HETATM   32  C   UNL     1      27.244  36.796  49.351  1.00  0.00     0.000 A 
HETATM   33  C   UNL     1      28.095  37.819  49.755  1.00  0.00     0.001 A 
HETATM   34  C   UNL     1      28.023  39.075  49.146  1.00  0.00     0.009 A 
ENDBRANCH   6  29
TORSDOF 6
ENDMDL
