MODEL 1
REMARK VINA RESULT:      -7.4      0.000      0.000
REMARK  5 active torsions:
REMARK  status: ('A' for Active; 'I' for Inactive)
REMARK    1  A    between atoms: C_2  and  O_3 
REMARK    2  A    between atoms: C_4  and  C_5 
REMARK    3  A    between atoms: C_5  and  O_6 
REMARK    4  A    between atoms: C_9  and  C_10 
REMARK    5  A    between atoms: C_22  and  O_23 
ROOT
HETATM    1  C   UNL     1      34.248  50.212  41.963  1.00  0.00     0.047 C 
HETATM    2  C   UNL     1      33.090  49.982  40.976  1.00  0.00     0.073 C 
HETATM    3  C   UNL     1      31.693  50.135  41.665  1.00  0.00     0.133 C 
HETATM    4  C   UNL     1      30.446  50.176  40.734  1.00  0.00     0.074 C 
HETATM    5  C   UNL     1      30.773  50.679  39.371  1.00  0.00     0.030 A 
HETATM    6  C   UNL     1      32.049  50.971  38.938  1.00  0.00     0.042 A 
HETATM    7  N   UNL     1      31.936  51.446  37.662  1.00  0.00    -0.279 N 
HETATM    8  H   UNL     1      32.668  51.774  37.039  1.00  0.00     0.189 HD
HETATM    9  N   UNL     1      30.658  51.486  37.232  1.00  0.00    -0.149 NA
HETATM   10  C   UNL     1      29.981  51.048  38.283  1.00  0.00     0.190 A 
HETATM   11  C   UNL     1      33.304  50.879  39.724  1.00  0.00     0.097 C 
ENDROOT
BRANCH   4  12
HETATM   12  C   UNL     1      29.752  48.822  40.595  1.00  0.00    -0.048 A 
HETATM   13  C   UNL     1      28.539  48.632  41.286  1.00  0.00     0.009 A 
HETATM   14  C   UNL     1      27.846  47.420  41.217  1.00  0.00     0.024 A 
HETATM   15  C   UNL     1      28.361  46.373  40.462  1.00  0.00     0.034 A 
HETATM   16 CL   UNL     1      27.510  44.880  40.372  1.00  0.00    -0.084 Cl
HETATM   17  C   UNL     1      29.561  46.528  39.775  1.00  0.00     0.024 A 
HETATM   18  C   UNL     1      30.250  47.745  39.839  1.00  0.00     0.009 A 
ENDBRANCH   4  12
BRANCH   3  19
HETATM   19  C   UNL     1      31.659  51.402  42.495  1.00  0.00     0.266 C 
HETATM   20  O   UNL     1      31.629  52.537  42.039  1.00  0.00    -0.265 OA
BRANCH  19  21
HETATM   21  O   UNL     1      31.672  51.096  43.822  1.00  0.00    -0.326 OA
HETATM   22  C   UNL     1      32.490  51.957  44.617  1.00  0.00     0.213 C 
ENDBRANCH  19  21
ENDBRANCH   3  19
BRANCH   2  23
HETATM   23  O   UNL     1      33.245  48.602  40.584  1.00  0.00    -0.389 OA
HETATM   24  H   UNL     1      34.194  48.429  40.460  1.00  0.00     0.210 HD
ENDBRANCH   2  23
BRANCH  10  25
HETATM   25  O   UNL     1      28.660  51.032  38.146  1.00  0.00    -0.343 OA
HETATM   26  H   UNL     1      28.339  51.685  38.792  1.00  0.00     0.219 HD
ENDBRANCH  10  25
TORSDOF 5
ENDMDL
MODEL 2
REMARK VINA RESULT:      -7.2      3.457      5.579
REMARK  5 active torsions:
REMARK  status: ('A' for Active; 'I' for Inactive)
REMARK    1  A    between atoms: C_2  and  O_3 
REMARK    2  A    between atoms: C_4  and  C_5 
REMARK    3  A    between atoms: C_5  and  O_6 
REMARK    4  A    between atoms: C_9  and  C_10 
REMARK    5  A    between atoms: C_22  and  O_23 
ROOT
HETATM    1  C   UNL     1      29.477  52.763  39.044  1.00  0.00     0.047 C 
HETATM    2  C   UNL     1      30.491  51.797  39.683  1.00  0.00     0.073 C 
HETATM    3  C   UNL     1      30.348  51.744  41.240  1.00  0.00     0.133 C 
HETATM    4  C   UNL     1      31.138  50.627  41.985  1.00  0.00     0.074 C 
HETATM    5  C   UNL     1      31.392  49.441  41.121  1.00  0.00     0.030 A 
HETATM    6  C   UNL     1      31.069  49.374  39.782  1.00  0.00     0.042 A 
HETATM    7  N   UNL     1      31.410  48.122  39.354  1.00  0.00    -0.279 N 
HETATM    8  H   UNL     1      31.301  47.714  38.430  1.00  0.00     0.189 HD
HETATM    9  N   UNL     1      31.936  47.360  40.336  1.00  0.00    -0.149 NA
HETATM   10  C   UNL     1      31.888  48.164  41.389  1.00  0.00     0.190 A 
HETATM   11  C   UNL     1      30.398  50.418  38.969  1.00  0.00     0.097 C 
ENDROOT
BRANCH   4  12
HETATM   12  C   UNL     1      32.474  51.106  42.551  1.00  0.00    -0.048 A 
HETATM   13  C   UNL     1      32.483  51.621  43.863  1.00  0.00     0.009 A 
HETATM   14  C   UNL     1      33.663  52.086  44.451  1.00  0.00     0.024 A 
HETATM   15  C   UNL     1      34.851  52.055  43.731  1.00  0.00     0.034 A 
HETATM   16 CL   UNL     1      36.306  52.626  44.452  1.00  0.00    -0.084 Cl
HETATM   17  C   UNL     1      34.871  51.560  42.432  1.00  0.00     0.024 A 
HETATM   18  C   UNL     1      33.690  51.087  41.846  1.00  0.00     0.009 A 
ENDBRANCH   4  12
BRANCH   3  19
HETATM   19  C   UNL     1      28.892  51.578  41.623  1.00  0.00     0.266 C 
HETATM   20  O   UNL     1      28.053  52.467  41.587  1.00  0.00    -0.265 OA
BRANCH  19  21
HETATM   21  O   UNL     1      28.653  50.296  42.018  1.00  0.00    -0.326 OA
HETATM   22  C   UNL     1      27.604  49.645  41.299  1.00  0.00     0.213 C 
ENDBRANCH  19  21
ENDBRANCH   3  19
BRANCH   2  23
HETATM   23  O   UNL     1      31.769  52.389  39.372  1.00  0.00    -0.389 OA
HETATM   24  H   UNL     1      31.653  53.353  39.333  1.00  0.00     0.210 HD
ENDBRANCH   2  23
BRANCH  10  25
HETATM   25  O   UNL     1      32.309  47.635  42.532  1.00  0.00    -0.343 OA
HETATM   26  H   UNL     1      33.264  47.505  42.404  1.00  0.00     0.219 HD
ENDBRANCH  10  25
TORSDOF 5
ENDMDL
MODEL 3
REMARK VINA RESULT:      -7.2      3.090      5.554
REMARK  5 active torsions:
REMARK  status: ('A' for Active; 'I' for Inactive)
REMARK    1  A    between atoms: C_2  and  O_3 
REMARK    2  A    between atoms: C_4  and  C_5 
REMARK    3  A    between atoms: C_5  and  O_6 
REMARK    4  A    between atoms: C_9  and  C_10 
REMARK    5  A    between atoms: C_22  and  O_23 
ROOT
HETATM    1  C   UNL     1      26.421  47.819  40.950  1.00  0.00     0.047 C 
HETATM    2  C   UNL     1      27.379  48.994  40.691  1.00  0.00     0.073 C 
HETATM    3  C   UNL     1      28.855  48.515  40.494  1.00  0.00     0.133 C 
HETATM    4  C   UNL     1      29.879  49.570  39.979  1.00  0.00     0.074 C 
HETATM    5  C   UNL     1      29.229  50.646  39.182  1.00  0.00     0.030 A 
HETATM    6  C   UNL     1      27.867  50.768  39.008  1.00  0.00     0.042 A 
HETATM    7  N   UNL     1      27.666  51.840  38.185  1.00  0.00    -0.279 N 
HETATM    8  H   UNL     1      26.791  52.213  37.830  1.00  0.00     0.189 HD
HETATM    9  N   UNL     1      28.819  52.429  37.805  1.00  0.00    -0.149 NA
HETATM   10  C   UNL     1      29.739  51.678  38.392  1.00  0.00     0.190 A 
HETATM   11  C   UNL     1      26.813  49.865  39.533  1.00  0.00     0.097 C 
ENDROOT
BRANCH   4  12
HETATM   12  C   UNL     1      30.691  50.221  41.098  1.00  0.00    -0.048 A 
HETATM   13  C   UNL     1      31.760  49.485  41.646  1.00  0.00     0.009 A 
HETATM   14  C   UNL     1      32.546  50.006  42.677  1.00  0.00     0.024 A 
HETATM   15  C   UNL     1      32.268  51.269  43.186  1.00  0.00     0.034 A 
HETATM   16 CL   UNL     1      33.235  51.916  44.455  1.00  0.00    -0.084 Cl
HETATM   17  C   UNL     1      31.213  52.016  42.671  1.00  0.00     0.024 A 
HETATM   18  C   UNL     1      30.431  51.495  41.633  1.00  0.00     0.009 A 
ENDBRANCH   4  12
BRANCH   3  19
HETATM   19  C   UNL     1      28.900  47.354  39.522  1.00  0.00     0.266 C 
HETATM   20  O   UNL     1      28.761  47.449  38.311  1.00  0.00    -0.265 OA
BRANCH  19  21
HETATM   21  O   UNL     1      29.113  46.187  40.193  1.00  0.00    -0.326 OA
HETATM   22  C   UNL     1      28.690  45.018  39.488  1.00  0.00     0.213 C 
ENDBRANCH  19  21
ENDBRANCH   3  19
BRANCH   2  23
HETATM   23  O   UNL     1      27.318  49.760  41.912  1.00  0.00    -0.389 OA
HETATM   24  H   UNL     1      27.847  49.299  42.584  1.00  0.00     0.210 HD
ENDBRANCH   2  23
BRANCH  10  25
HETATM   25  O   UNL     1      30.999  52.015  38.138  1.00  0.00    -0.343 OA
HETATM   26  H   UNL     1      31.463  51.882  38.982  1.00  0.00     0.219 HD
ENDBRANCH  10  25
TORSDOF 5
ENDMDL
MODEL 4
REMARK VINA RESULT:      -6.6     13.774     15.884
REMARK  5 active torsions:
REMARK  status: ('A' for Active; 'I' for Inactive)
REMARK    1  A    between atoms: C_2  and  O_3 
REMARK    2  A    between atoms: C_4  and  C_5 
REMARK    3  A    between atoms: C_5  and  O_6 
REMARK    4  A    between atoms: C_9  and  C_10 
REMARK    5  A    between atoms: C_22  and  O_23 
ROOT
HETATM    1  C   UNL     1      15.875  52.458  46.488  1.00  0.00     0.047 C 
HETATM    2  C   UNL     1      16.786  51.358  47.061  1.00  0.00     0.073 C 
HETATM    3  C   UNL     1      17.383  51.755  48.451  1.00  0.00     0.133 C 
HETATM    4  C   UNL     1      18.116  50.638  49.252  1.00  0.00     0.074 C 
HETATM    5  C   UNL     1      17.623  49.277  48.905  1.00  0.00     0.030 A 
HETATM    6  C   UNL     1      16.704  49.015  47.911  1.00  0.00     0.042 A 
HETATM    7  N   UNL     1      16.473  47.668  47.929  1.00  0.00    -0.279 N 
HETATM    8  H   UNL     1      15.843  47.124  47.348  1.00  0.00     0.189 HD
HETATM    9  N   UNL     1      17.185  47.030  48.881  1.00  0.00    -0.149 NA
HETATM   10  C   UNL     1      17.843  48.019  49.468  1.00  0.00     0.190 A 
HETATM   11  C   UNL     1      16.021  50.003  47.040  1.00  0.00     0.097 C 
ENDROOT
BRANCH   4  12
HETATM   12  C   UNL     1      19.633  50.663  49.072  1.00  0.00    -0.048 A 
HETATM   13  C   UNL     1      20.151  50.292  47.815  1.00  0.00     0.009 A 
HETATM   14  C   UNL     1      21.527  50.282  47.571  1.00  0.00     0.024 A 
HETATM   15  C   UNL     1      22.410  50.631  48.586  1.00  0.00     0.034 A 
HETATM   16 CL   UNL     1      24.105  50.621  48.290  1.00  0.00    -0.084 Cl
HETATM   17  C   UNL     1      21.929  50.994  49.840  1.00  0.00     0.024 A 
HETATM   18  C   UNL     1      20.550  51.011  50.080  1.00  0.00     0.009 A 
ENDBRANCH   4  12
BRANCH   3  19
HETATM   19  C   UNL     1      16.290  52.292  49.352  1.00  0.00     0.266 C 
HETATM   20  O   UNL     1      15.257  51.698  49.629  1.00  0.00    -0.265 OA
BRANCH  19  21
HETATM   21  O   UNL     1      16.621  53.533  49.806  1.00  0.00    -0.326 OA
HETATM   22  C   UNL     1      15.504  54.339  50.186  1.00  0.00     0.213 C 
ENDBRANCH  19  21
ENDBRANCH   3  19
BRANCH   2  23
HETATM   23  O   UNL     1      17.871  51.286  46.113  1.00  0.00    -0.389 OA
HETATM   24  H   UNL     1      18.239  50.387  46.143  1.00  0.00     0.210 HD
ENDBRANCH   2  23
BRANCH  10  25
HETATM   25  O   UNL     1      18.602  47.668  50.500  1.00  0.00    -0.343 OA
HETATM   26  H   UNL     1      17.977  47.560  51.238  1.00  0.00     0.219 HD
ENDBRANCH  10  25
TORSDOF 5
ENDMDL
MODEL 5
REMARK VINA RESULT:      -6.5      3.284      5.955
REMARK  5 active torsions:
REMARK  status: ('A' for Active; 'I' for Inactive)
REMARK    1  A    between atoms: C_2  and  O_3 
REMARK    2  A    between atoms: C_4  and  C_5 
REMARK    3  A    between atoms: C_5  and  O_6 
REMARK    4  A    between atoms: C_9  and  C_10 
REMARK    5  A    between atoms: C_22  and  O_23 
ROOT
HETATM    1  C   UNL     1      27.039  45.280  40.607  1.00  0.00     0.047 C 
HETATM    2  C   UNL     1      27.545  46.715  40.380  1.00  0.00     0.073 C 
HETATM    3  C   UNL     1      29.011  46.741  39.834  1.00  0.00     0.133 C 
HETATM    4  C   UNL     1      29.554  48.110  39.326  1.00  0.00     0.074 C 
HETATM    5  C   UNL     1      28.464  49.012  38.860  1.00  0.00     0.030 A 
HETATM    6  C   UNL     1      27.120  48.724  38.965  1.00  0.00     0.042 A 
HETATM    7  N   UNL     1      26.445  49.763  38.389  1.00  0.00    -0.279 N 
HETATM    8  H   UNL     1      25.443  49.883  38.272  1.00  0.00     0.189 HD
HETATM    9  N   UNL     1      27.269  50.717  37.909  1.00  0.00    -0.149 NA
HETATM   10  C   UNL     1      28.471  50.230  38.178  1.00  0.00     0.190 A 
HETATM   11  C   UNL     1      26.510  47.487  39.513  1.00  0.00     0.097 C 
ENDROOT
BRANCH   4  12
HETATM   12  C   UNL     1      30.384  48.855  40.370  1.00  0.00    -0.048 A 
HETATM   13  C   UNL     1      31.745  48.512  40.493  1.00  0.00     0.009 A 
HETATM   14  C   UNL     1      32.570  49.142  41.429  1.00  0.00     0.024 A 
HETATM   15  C   UNL     1      32.044  50.118  42.266  1.00  0.00     0.034 A 
HETATM   16 CL   UNL     1      33.058  50.897  43.418  1.00  0.00    -0.084 Cl
HETATM   17  C   UNL     1      30.702  50.472  42.174  1.00  0.00     0.024 A 
HETATM   18  C   UNL     1      29.878  49.846  41.231  1.00  0.00     0.009 A 
ENDBRANCH   4  12
BRANCH   3  19
HETATM   19  C   UNL     1      29.155  45.763  38.686  1.00  0.00     0.266 C 
HETATM   20  O   UNL     1      28.809  45.980  37.533  1.00  0.00    -0.265 OA
BRANCH  19  21
HETATM   21  O   UNL     1      29.723  44.604  39.123  1.00  0.00    -0.326 OA
HETATM   22  C   UNL     1      29.439  43.465  38.309  1.00  0.00     0.213 C 
ENDBRANCH  19  21
ENDBRANCH   3  19
BRANCH   2  23
HETATM   23  O   UNL     1      27.552  47.288  41.704  1.00  0.00    -0.389 OA
HETATM   24  H   UNL     1      27.422  48.247  41.618  1.00  0.00     0.210 HD
ENDBRANCH   2  23
BRANCH  10  25
HETATM   25  O   UNL     1      29.494  50.965  37.757  1.00  0.00    -0.343 OA
HETATM   26  H   UNL     1      29.285  51.166  36.829  1.00  0.00     0.219 HD
ENDBRANCH  10  25
TORSDOF 5
ENDMDL
MODEL 6
REMARK VINA RESULT:      -6.3     24.977     26.862
REMARK  5 active torsions:
REMARK  status: ('A' for Active; 'I' for Inactive)
REMARK    1  A    between atoms: C_2  and  O_3 
REMARK    2  A    between atoms: C_4  and  C_5 
REMARK    3  A    between atoms: C_5  and  O_6 
REMARK    4  A    between atoms: C_9  and  C_10 
REMARK    5  A    between atoms: C_22  and  O_23 
ROOT
HETATM    1  C   UNL     1      37.149  43.419  63.477  1.00  0.00     0.047 C 
HETATM    2  C   UNL     1      38.175  44.512  63.823  1.00  0.00     0.073 C 
HETATM    3  C   UNL     1      38.100  44.931  65.329  1.00  0.00     0.133 C 
HETATM    4  C   UNL     1      39.242  45.842  65.868  1.00  0.00     0.074 C 
HETATM    5  C   UNL     1      40.508  45.674  65.102  1.00  0.00     0.030 A 
HETATM    6  C   UNL     1      40.634  44.891  63.975  1.00  0.00     0.042 A 
HETATM    7  N   UNL     1      41.945  44.955  63.592  1.00  0.00    -0.279 N 
HETATM    8  H   UNL     1      42.403  44.490  62.813  1.00  0.00     0.189 HD
HETATM    9  N   UNL     1      42.688  45.734  64.405  1.00  0.00    -0.149 NA
HETATM   10  C   UNL     1      41.811  46.129  65.316  1.00  0.00     0.190 A 
HETATM   11  C   UNL     1      39.582  44.060  63.339  1.00  0.00     0.097 C 
ENDROOT
BRANCH   4  12
HETATM   12  C   UNL     1      38.878  47.326  65.879  1.00  0.00    -0.048 A 
HETATM   13  C   UNL     1      38.006  47.780  66.889  1.00  0.00     0.009 A 
HETATM   14  C   UNL     1      37.619  49.120  66.964  1.00  0.00     0.024 A 
HETATM   15  C   UNL     1      38.088  50.028  66.022  1.00  0.00     0.034 A 
HETATM   16 CL   UNL     1      37.614  51.680  66.112  1.00  0.00    -0.084 Cl
HETATM   17  C   UNL     1      38.943  49.608  65.009  1.00  0.00     0.024 A 
HETATM   18  C   UNL     1      39.337  48.266  64.939  1.00  0.00     0.009 A 
ENDBRANCH   4  12
BRANCH   3  19
HETATM   19  C   UNL     1      38.071  43.700  66.210  1.00  0.00     0.266 C 
HETATM   20  O   UNL     1      39.049  43.026  66.503  1.00  0.00    -0.265 OA
BRANCH  19  21
HETATM   21  O   UNL     1      36.799  43.448  66.626  1.00  0.00    -0.326 OA
HETATM   22  C   UNL     1      36.041  44.617  66.943  1.00  0.00     0.213 C 
ENDBRANCH  19  21
ENDBRANCH   3  19
BRANCH   2  23
HETATM   23  O   UNL     1      37.755  45.639  63.025  1.00  0.00    -0.389 OA
HETATM   24  H   UNL     1      38.085  46.449  63.449  1.00  0.00     0.210 HD
ENDBRANCH   2  23
BRANCH  10  25
HETATM   25  O   UNL     1      42.300  46.886  66.290  1.00  0.00    -0.343 OA
HETATM   26  H   UNL     1      43.216  47.071  66.021  1.00  0.00     0.219 HD
ENDBRANCH  10  25
TORSDOF 5
ENDMDL
MODEL 7
REMARK VINA RESULT:      -6.3     12.293     14.273
REMARK  5 active torsions:
REMARK  status: ('A' for Active; 'I' for Inactive)
REMARK    1  A    between atoms: C_2  and  O_3 
REMARK    2  A    between atoms: C_4  and  C_5 
REMARK    3  A    between atoms: C_5  and  O_6 
REMARK    4  A    between atoms: C_9  and  C_10 
REMARK    5  A    between atoms: C_22  and  O_23 
ROOT
HETATM    1  C   UNL     1      21.448  51.029  50.219  1.00  0.00     0.047 C 
HETATM    2  C   UNL     1      20.238  50.552  49.396  1.00  0.00     0.073 C 
HETATM    3  C   UNL     1      20.614  50.293  47.899  1.00  0.00     0.133 C 
HETATM    4  C   UNL     1      19.551  49.572  47.017  1.00  0.00     0.074 C 
HETATM    5  C   UNL     1      18.642  48.709  47.820  1.00  0.00     0.030 A 
HETATM    6  C   UNL     1      18.658  48.634  49.197  1.00  0.00     0.042 A 
HETATM    7  N   UNL     1      17.720  47.707  49.555  1.00  0.00    -0.279 N 
HETATM    8  H   UNL     1      17.469  47.384  50.485  1.00  0.00     0.189 HD
HETATM    9  N   UNL     1      17.090  47.166  48.492  1.00  0.00    -0.149 NA
HETATM   10  C   UNL     1      17.680  47.761  47.466  1.00  0.00     0.190 A 
HETATM   11  C   UNL     1      19.572  49.348  50.122  1.00  0.00     0.097 C 
ENDROOT
BRANCH   4  12
HETATM   12  C   UNL     1      18.698  50.535  46.192  1.00  0.00    -0.048 A 
HETATM   13  C   UNL     1      18.700  50.377  44.792  1.00  0.00     0.009 A 
HETATM   14  C   UNL     1      17.952  51.221  43.966  1.00  0.00     0.024 A 
HETATM   15  C   UNL     1      17.198  52.245  44.527  1.00  0.00     0.034 A 
HETATM   16 CL   UNL     1      16.274  53.284  43.514  1.00  0.00    -0.084 Cl
HETATM   17  C   UNL     1      17.182  52.429  45.906  1.00  0.00     0.024 A 
HETATM   18  C   UNL     1      17.926  51.579  46.732  1.00  0.00     0.009 A 
ENDBRANCH   4  12
BRANCH   3  19
HETATM   19  C   UNL     1      21.881  49.467  47.816  1.00  0.00     0.266 C 
HETATM   20  O   UNL     1      21.994  48.317  48.217  1.00  0.00    -0.265 OA
BRANCH  19  21
HETATM   21  O   UNL     1      22.878  50.191  47.235  1.00  0.00    -0.326 OA
HETATM   22  C   UNL     1      24.125  50.141  47.930  1.00  0.00     0.213 C 
ENDBRANCH  19  21
ENDBRANCH   3  19
BRANCH   2  23
HETATM   23  O   UNL     1      19.332  51.674  49.441  1.00  0.00    -0.389 OA
HETATM   24  H   UNL     1      18.794  51.659  48.631  1.00  0.00     0.210 HD
ENDBRANCH   2  23
BRANCH  10  25
HETATM   25  O   UNL     1      17.274  47.366  46.265  1.00  0.00    -0.343 OA
HETATM   26  H   UNL     1      16.346  47.651  46.213  1.00  0.00     0.219 HD
ENDBRANCH  10  25
TORSDOF 5
ENDMDL
MODEL 8
REMARK VINA RESULT:      -6.2     10.280     11.696
REMARK  5 active torsions:
REMARK  status: ('A' for Active; 'I' for Inactive)
REMARK    1  A    between atoms: C_2  and  O_3 
REMARK    2  A    between atoms: C_4  and  C_5 
REMARK    3  A    between atoms: C_5  and  O_6 
REMARK    4  A    between atoms: C_9  and  C_10 
REMARK    5  A    between atoms: C_22  and  O_23 
ROOT
HETATM    1  C   UNL     1      26.973  44.446  50.861  1.00  0.00     0.047 C 
HETATM    2  C   UNL     1      26.321  45.568  50.035  1.00  0.00     0.073 C 
HETATM    3  C   UNL     1      25.045  46.145  50.733  1.00  0.00     0.133 C 
HETATM    4  C   UNL     1      24.436  47.446  50.131  1.00  0.00     0.074 C 
HETATM    5  C   UNL     1      25.452  48.268  49.418  1.00  0.00     0.030 A 
HETATM    6  C   UNL     1      26.759  47.880  49.212  1.00  0.00     0.042 A 
HETATM    7  N   UNL     1      27.383  48.912  48.570  1.00  0.00    -0.279 N 
HETATM    8  H   UNL     1      28.352  48.983  48.275  1.00  0.00     0.189 HD
HETATM    9  N   UNL     1      26.563  49.960  48.346  1.00  0.00    -0.149 NA
HETATM   10  C   UNL     1      25.421  49.560  48.888  1.00  0.00     0.190 A 
HETATM   11  C   UNL     1      27.403  46.624  49.670  1.00  0.00     0.097 C 
ENDROOT
BRANCH   4  12
HETATM   12  C   UNL     1      23.272  47.183  49.177  1.00  0.00    -0.048 A 
HETATM   13  C   UNL     1      22.266  48.165  49.083  1.00  0.00     0.009 A 
HETATM   14  C   UNL     1      21.165  47.996  48.239  1.00  0.00     0.024 A 
HETATM   15  C   UNL     1      21.046  46.836  47.482  1.00  0.00     0.034 A 
HETATM   16 CL   UNL     1      19.693  46.626  46.440  1.00  0.00    -0.084 Cl
HETATM   17  C   UNL     1      22.020  45.846  47.561  1.00  0.00     0.024 A 
HETATM   18  C   UNL     1      23.126  46.019  48.401  1.00  0.00     0.009 A 
ENDBRANCH   4  12
BRANCH   3  19
HETATM   19  C   UNL     1      25.338  46.435  52.191  1.00  0.00     0.266 C 
HETATM   20  O   UNL     1      25.852  47.462  52.611  1.00  0.00    -0.265 OA
BRANCH  19  21
HETATM   21  O   UNL     1      24.948  45.385  52.967  1.00  0.00    -0.326 OA
HETATM   22  C   UNL     1      25.630  45.293  54.220  1.00  0.00     0.213 C 
ENDBRANCH  19  21
ENDBRANCH   3  19
BRANCH   2  23
HETATM   23  O   UNL     1      25.904  44.901  48.825  1.00  0.00    -0.389 OA
HETATM   24  H   UNL     1      25.160  45.401  48.447  1.00  0.00     0.210 HD
ENDBRANCH   2  23
BRANCH  10  25
HETATM   25  O   UNL     1      24.430  50.443  48.851  1.00  0.00    -0.343 OA
HETATM   26  H   UNL     1      24.062  50.435  49.751  1.00  0.00     0.219 HD
ENDBRANCH  10  25
TORSDOF 5
ENDMDL
MODEL 9
REMARK VINA RESULT:      -6.2     12.125     14.082
REMARK  5 active torsions:
REMARK  status: ('A' for Active; 'I' for Inactive)
REMARK    1  A    between atoms: C_2  and  O_3 
REMARK    2  A    between atoms: C_4  and  C_5 
REMARK    3  A    between atoms: C_5  and  O_6 
REMARK    4  A    between atoms: C_9  and  C_10 
REMARK    5  A    between atoms: C_22  and  O_23 
ROOT
HETATM    1  C   UNL     1      24.304  41.885  50.729  1.00  0.00     0.047 C 
HETATM    2  C   UNL     1      24.716  43.302  51.166  1.00  0.00     0.073 C 
HETATM    3  C   UNL     1      26.269  43.488  51.165  1.00  0.00     0.133 C 
HETATM    4  C   UNL     1      26.808  44.939  51.343  1.00  0.00     0.074 C 
HETATM    5  C   UNL     1      25.836  45.964  50.875  1.00  0.00     0.030 A 
HETATM    6  C   UNL     1      24.560  45.681  50.437  1.00  0.00     0.042 A 
HETATM    7  N   UNL     1      24.001  46.867  50.051  1.00  0.00    -0.279 N 
HETATM    8  H   UNL     1      23.078  47.037  49.662  1.00  0.00     0.189 HD
HETATM    9  N   UNL     1      24.838  47.914  50.207  1.00  0.00    -0.149 NA
HETATM   10  C   UNL     1      25.938  47.342  50.675  1.00  0.00     0.190 A 
HETATM   11  C   UNL     1      23.931  44.343  50.316  1.00  0.00     0.097 C 
ENDROOT
BRANCH   4  12
HETATM   12  C   UNL     1      27.198  45.265  52.784  1.00  0.00    -0.048 A 
HETATM   13  C   UNL     1      28.234  44.510  53.370  1.00  0.00     0.009 A 
HETATM   14  C   UNL     1      28.644  44.742  54.686  1.00  0.00     0.024 A 
HETATM   15  C   UNL     1      28.018  45.726  55.441  1.00  0.00     0.034 A 
HETATM   16 CL   UNL     1      28.523  46.016  57.061  1.00  0.00    -0.084 Cl
HETATM   17  C   UNL     1      26.988  46.482  54.892  1.00  0.00     0.024 A 
HETATM   18  C   UNL     1      26.582  46.254  53.571  1.00  0.00     0.009 A 
ENDBRANCH   4  12
BRANCH   3  19
HETATM   19  C   UNL     1      26.855  42.961  49.871  1.00  0.00     0.266 C 
HETATM   20  O   UNL     1      26.893  43.580  48.817  1.00  0.00    -0.265 OA
BRANCH  19  21
HETATM   21  O   UNL     1      27.331  41.697  50.050  1.00  0.00    -0.326 OA
HETATM   22  C   UNL     1      28.019  41.496  51.286  1.00  0.00     0.213 C 
ENDBRANCH  19  21
ENDBRANCH   3  19
BRANCH   2  23
HETATM   23  O   UNL     1      24.257  43.385  52.531  1.00  0.00    -0.389 OA
HETATM   24  H   UNL     1      23.367  42.996  52.574  1.00  0.00     0.210 HD
ENDBRANCH   2  23
BRANCH  10  25
HETATM   25  O   UNL     1      26.966  48.160  50.875  1.00  0.00    -0.343 OA
HETATM   26  H   UNL     1      27.751  47.597  50.767  1.00  0.00     0.219 HD
ENDBRANCH  10  25
TORSDOF 5
ENDMDL
MODEL 10
REMARK VINA RESULT:      -6.1     24.775     26.436
REMARK  5 active torsions:
REMARK  status: ('A' for Active; 'I' for Inactive)
REMARK    1  A    between atoms: C_2  and  O_3 
REMARK    2  A    between atoms: C_4  and  C_5 
REMARK    3  A    between atoms: C_5  and  O_6 
REMARK    4  A    between atoms: C_9  and  C_10 
REMARK    5  A    between atoms: C_22  and  O_23 
ROOT
HETATM    1  C   UNL     1      41.982  47.561  66.172  1.00  0.00     0.047 C 
HETATM    2  C   UNL     1      40.799  46.966  65.389  1.00  0.00     0.073 C 
HETATM    3  C   UNL     1      40.121  45.785  66.161  1.00  0.00     0.133 C 
HETATM    4  C   UNL     1      38.765  45.260  65.601  1.00  0.00     0.074 C 
HETATM    5  C   UNL     1      38.026  46.304  64.839  1.00  0.00     0.030 A 
HETATM    6  C   UNL     1      38.524  47.559  64.558  1.00  0.00     0.042 A 
HETATM    7  N   UNL     1      37.543  48.235  63.890  1.00  0.00    -0.279 N 
HETATM    8  H   UNL     1      37.553  49.189  63.542  1.00  0.00     0.189 HD
HETATM    9  N   UNL     1      36.426  47.498  63.718  1.00  0.00    -0.149 NA
HETATM   10  C   UNL     1      36.731  46.357  64.320  1.00  0.00     0.190 A 
HETATM   11  C   UNL     1      39.836  48.114  64.972  1.00  0.00     0.097 C 
ENDROOT
BRANCH   4  12
HETATM   12  C   UNL     1      38.916  44.028  64.711  1.00  0.00    -0.048 A 
HETATM   13  C   UNL     1      38.693  42.765  65.296  1.00  0.00     0.009 A 
HETATM   14  C   UNL     1      38.818  41.589  64.551  1.00  0.00     0.024 A 
HETATM   15  C   UNL     1      39.179  41.656  63.210  1.00  0.00     0.034 A 
HETATM   16 CL   UNL     1      39.332  40.210  62.290  1.00  0.00    -0.084 Cl
HETATM   17  C   UNL     1      39.413  42.888  62.608  1.00  0.00     0.024 A 
HETATM   18  C   UNL     1      39.280  44.066  63.353  1.00  0.00     0.009 A 
ENDBRANCH   4  12
BRANCH   3  19
HETATM   19  C   UNL     1      39.874  46.180  67.602  1.00  0.00     0.266 C 
HETATM   20  O   UNL     1      39.095  47.050  67.966  1.00  0.00    -0.265 OA
BRANCH  19  21
HETATM   21  O   UNL     1      40.647  45.429  68.435  1.00  0.00    -0.326 OA
HETATM   22  C   UNL     1      41.142  46.135  69.575  1.00  0.00     0.213 C 
ENDBRANCH  19  21
ENDBRANCH   3  19
BRANCH   2  23
HETATM   23  O   UNL     1      41.413  46.427  64.200  1.00  0.00    -0.389 OA
HETATM   24  H   UNL     1      41.294  45.462  64.210  1.00  0.00     0.210 HD
ENDBRANCH   2  23
BRANCH  10  25
HETATM   25  O   UNL     1      35.765  45.446  64.343  1.00  0.00    -0.343 OA
HETATM   26  H   UNL     1      34.941  45.962  64.302  1.00  0.00     0.219 HD
ENDBRANCH  10  25
TORSDOF 5
ENDMDL
