MODEL 1
REMARK VINA RESULT:      -8.4      0.000      0.000
REMARK  3 active torsions:
REMARK  status: ('A' for Active; 'I' for Inactive)
REMARK    1  A    between atoms: C_6  and  C_7 
REMARK       I    between atoms: C_7  and  N_8 
REMARK    2  A    between atoms: N_8  and  C_9 
REMARK    3  A    between atoms: C_12  and  C_13 
REMARK       I    between atoms: C_13  and  N_14 
ROOT
HETATM    1  C   UNL     1      27.018  45.947  54.125  1.00  0.00     0.280 C 
HETATM    2  N   UNL     1      26.894  45.459  52.836  1.00  0.00    -0.321 N 
HETATM    3  O   UNL     1      26.266  46.759  54.654  1.00  0.00    -0.265 OA
HETATM    4  H   UNL     1      27.584  44.761  52.580  1.00  0.00     0.169 HD
ENDROOT
BRANCH   2   5
HETATM    5  C   UNL     1      25.970  45.840  51.845  1.00  0.00     0.035 A 
HETATM    6  C   UNL     1      24.941  45.018  51.380  1.00  0.00     0.030 A 
HETATM    7  C   UNL     1      24.032  45.484  50.419  1.00  0.00     0.019 A 
HETATM    8  C   UNL     1      24.144  46.782  49.915  1.00  0.00     0.032 A 
HETATM    9  C   UNL     1      25.191  47.598  50.356  1.00  0.00     0.019 A 
HETATM   10  C   UNL     1      26.093  47.131  51.318  1.00  0.00     0.030 A 
BRANCH   8  11
HETATM   11  C   UNL     1      23.197  47.331  48.909  1.00  0.00     0.249 C 
HETATM   12  N   UNL     1      21.949  46.776  48.846  1.00  0.00    -0.366 N 
HETATM   13  H   UNL     1      21.580  46.172  49.565  1.00  0.00     0.159 HD
HETATM   14  H   UNL     1      21.287  47.233  48.231  1.00  0.00     0.159 HD
HETATM   15  O   UNL     1      23.501  48.270  48.184  1.00  0.00    -0.268 OA
ENDBRANCH   8  11
ENDBRANCH   2   5
BRANCH   1  16
HETATM   16  C   UNL     1      28.169  45.403  54.821  1.00  0.00     0.144 A 
HETATM   17  O   UNL     1      28.571  45.972  56.005  1.00  0.00    -0.304 OA
HETATM   18  C   UNL     1      29.629  45.243  56.459  1.00  0.00     0.086 A 
HETATM   19  C   UNL     1      29.925  44.214  55.574  1.00  0.00     0.001 A 
HETATM   20  C   UNL     1      30.321  45.477  57.645  1.00  0.00     0.038 A 
HETATM   21  C   UNL     1      30.987  43.345  55.882  1.00  0.00     0.014 A 
HETATM   22  C   UNL     1      28.986  44.331  54.518  1.00  0.00     0.057 A 
HETATM   23  C   UNL     1      31.700  43.552  57.072  1.00  0.00     0.001 A 
HETATM   24  C   UNL     1      31.372  44.600  57.936  1.00  0.00     0.003 A 
ENDBRANCH   1  16
TORSDOF 3
ENDMDL
MODEL 2
REMARK VINA RESULT:      -8.3      2.208      2.686
REMARK  3 active torsions:
REMARK  status: ('A' for Active; 'I' for Inactive)
REMARK    1  A    between atoms: C_6  and  C_7 
REMARK       I    between atoms: C_7  and  N_8 
REMARK    2  A    between atoms: N_8  and  C_9 
REMARK    3  A    between atoms: C_12  and  C_13 
REMARK       I    between atoms: C_13  and  N_14 
ROOT
HETATM    1  C   UNL     1      28.655  43.606  52.881  1.00  0.00     0.280 C 
HETATM    2  N   UNL     1      27.585  44.461  52.687  1.00  0.00    -0.321 N 
HETATM    3  O   UNL     1      28.995  42.707  52.119  1.00  0.00    -0.265 OA
HETATM    4  H   UNL     1      27.477  45.173  53.402  1.00  0.00     0.169 HD
ENDROOT
BRANCH   2   5
HETATM    5  C   UNL     1      26.623  44.435  51.660  1.00  0.00     0.035 A 
HETATM    6  C   UNL     1      26.786  45.060  50.421  1.00  0.00     0.030 A 
HETATM    7  C   UNL     1      25.800  44.954  49.431  1.00  0.00     0.019 A 
HETATM    8  C   UNL     1      24.638  44.215  49.670  1.00  0.00     0.032 A 
HETATM    9  C   UNL     1      24.458  43.612  50.919  1.00  0.00     0.019 A 
HETATM   10  C   UNL     1      25.446  43.717  51.903  1.00  0.00     0.030 A 
BRANCH   8  11
HETATM   11  C   UNL     1      23.570  44.055  48.648  1.00  0.00     0.249 C 
HETATM   12  N   UNL     1      23.958  43.797  47.362  1.00  0.00    -0.366 N 
HETATM   13  H   UNL     1      24.895  43.513  47.118  1.00  0.00     0.159 HD
HETATM   14  H   UNL     1      23.217  43.587  46.705  1.00  0.00     0.159 HD
HETATM   15  O   UNL     1      22.384  44.114  48.943  1.00  0.00    -0.268 OA
ENDBRANCH   8  11
ENDBRANCH   2   5
BRANCH   1  16
HETATM   16  C   UNL     1      29.361  43.866  54.123  1.00  0.00     0.144 A 
HETATM   17  O   UNL     1      29.008  44.952  54.884  1.00  0.00    -0.304 OA
HETATM   18  C   UNL     1      29.787  44.928  56.001  1.00  0.00     0.086 A 
HETATM   19  C   UNL     1      30.653  43.842  55.965  1.00  0.00     0.001 A 
HETATM   20  C   UNL     1      29.731  45.848  57.045  1.00  0.00     0.038 A 
HETATM   21  C   UNL     1      31.534  43.647  57.044  1.00  0.00     0.014 A 
HETATM   22  C   UNL     1      30.378  43.170  54.747  1.00  0.00     0.057 A 
HETATM   23  C   UNL     1      31.498  44.554  58.113  1.00  0.00     0.001 A 
HETATM   24  C   UNL     1      30.612  45.634  58.112  1.00  0.00     0.003 A 
ENDBRANCH   1  16
TORSDOF 3
ENDMDL
MODEL 3
REMARK VINA RESULT:      -8.2      2.507      8.628
REMARK  3 active torsions:
REMARK  status: ('A' for Active; 'I' for Inactive)
REMARK    1  A    between atoms: C_6  and  C_7 
REMARK       I    between atoms: C_7  and  N_8 
REMARK    2  A    between atoms: N_8  and  C_9 
REMARK    3  A    between atoms: C_12  and  C_13 
REMARK       I    between atoms: C_13  and  N_14 
ROOT
HETATM    1  C   UNL     1      26.152  44.492  53.628  1.00  0.00     0.280 C 
HETATM    2  N   UNL     1      27.478  44.888  53.605  1.00  0.00    -0.321 N 
HETATM    3  O   UNL     1      25.607  43.885  54.543  1.00  0.00    -0.265 OA
HETATM    4  H   UNL     1      27.746  45.419  52.782  1.00  0.00     0.169 HD
ENDROOT
BRANCH   2   5
HETATM    5  C   UNL     1      28.487  44.612  54.545  1.00  0.00     0.035 A 
HETATM    6  C   UNL     1      29.325  43.496  54.487  1.00  0.00     0.030 A 
HETATM    7  C   UNL     1      30.337  43.311  55.439  1.00  0.00     0.019 A 
HETATM    8  C   UNL     1      30.523  44.246  56.460  1.00  0.00     0.032 A 
HETATM    9  C   UNL     1      29.668  45.350  56.539  1.00  0.00     0.019 A 
HETATM   10  C   UNL     1      28.662  45.533  55.585  1.00  0.00     0.030 A 
BRANCH   8  11
HETATM   11  C   UNL     1      31.593  44.107  57.484  1.00  0.00     0.249 C 
HETATM   12  N   UNL     1      31.604  45.004  58.515  1.00  0.00    -0.366 N 
HETATM   13  H   UNL     1      30.825  45.611  58.723  1.00  0.00     0.159 HD
HETATM   14  H   UNL     1      32.272  44.828  59.254  1.00  0.00     0.159 HD
HETATM   15  O   UNL     1      32.416  43.202  57.434  1.00  0.00    -0.268 OA
ENDBRANCH   8  11
ENDBRANCH   2   5
BRANCH   1  16
HETATM   16  C   UNL     1      25.436  44.861  52.420  1.00  0.00     0.144 A 
HETATM   17  O   UNL     1      24.538  43.979  51.873  1.00  0.00    -0.304 OA
HETATM   18  C   UNL     1      23.983  44.592  50.791  1.00  0.00     0.086 A 
HETATM   19  C   UNL     1      24.523  45.861  50.622  1.00  0.00     0.001 A 
HETATM   20  C   UNL     1      23.005  44.044  49.964  1.00  0.00     0.038 A 
HETATM   21  C   UNL     1      24.063  46.653  49.555  1.00  0.00     0.014 A 
HETATM   22  C   UNL     1      25.465  46.021  51.670  1.00  0.00     0.057 A 
HETATM   23  C   UNL     1      23.075  46.130  48.709  1.00  0.00     0.001 A 
HETATM   24  C   UNL     1      22.557  44.848  48.911  1.00  0.00     0.003 A 
ENDBRANCH   1  16
TORSDOF 3
ENDMDL
MODEL 4
REMARK VINA RESULT:      -8.1      1.648      2.290
REMARK  3 active torsions:
REMARK  status: ('A' for Active; 'I' for Inactive)
REMARK    1  A    between atoms: C_6  and  C_7 
REMARK       I    between atoms: C_7  and  N_8 
REMARK    2  A    between atoms: N_8  and  C_9 
REMARK    3  A    between atoms: C_12  and  C_13 
REMARK       I    between atoms: C_13  and  N_14 
ROOT
HETATM    1  C   UNL     1      25.705  44.861  52.758  1.00  0.00     0.280 C 
HETATM    2  N   UNL     1      25.906  45.640  51.632  1.00  0.00    -0.321 N 
HETATM    3  O   UNL     1      24.654  44.305  53.060  1.00  0.00    -0.265 OA
HETATM    4  H   UNL     1      26.853  45.987  51.522  1.00  0.00     0.169 HD
ENDROOT
BRANCH   2   5
HETATM    5  C   UNL     1      24.963  46.035  50.665  1.00  0.00     0.035 A 
HETATM    6  C   UNL     1      24.237  45.144  49.872  1.00  0.00     0.030 A 
HETATM    7  C   UNL     1      23.282  45.612  48.959  1.00  0.00     0.019 A 
HETATM    8  C   UNL     1      23.043  46.983  48.832  1.00  0.00     0.032 A 
HETATM    9  C   UNL     1      23.788  47.881  49.603  1.00  0.00     0.019 A 
HETATM   10  C   UNL     1      24.737  47.409  50.516  1.00  0.00     0.030 A 
BRANCH   8  11
HETATM   11  C   UNL     1      22.029  47.532  47.892  1.00  0.00     0.249 C 
HETATM   12  N   UNL     1      21.324  48.633  48.293  1.00  0.00    -0.366 N 
HETATM   13  H   UNL     1      21.594  49.199  49.083  1.00  0.00     0.159 HD
HETATM   14  H   UNL     1      20.718  49.053  47.600  1.00  0.00     0.159 HD
HETATM   15  O   UNL     1      21.851  47.045  46.784  1.00  0.00    -0.268 OA
ENDBRANCH   8  11
ENDBRANCH   2   5
BRANCH   1  16
HETATM   16  C   UNL     1      26.889  44.766  53.592  1.00  0.00     0.144 A 
HETATM   17  O   UNL     1      27.660  43.631  53.541  1.00  0.00    -0.304 OA
HETATM   18  C   UNL     1      28.718  43.829  54.376  1.00  0.00     0.086 A 
HETATM   19  C   UNL     1      28.634  45.078  54.978  1.00  0.00     0.001 A 
HETATM   20  C   UNL     1      29.751  42.922  54.598  1.00  0.00     0.038 A 
HETATM   21  C   UNL     1      29.649  45.464  55.871  1.00  0.00     0.014 A 
HETATM   22  C   UNL     1      27.448  45.669  54.475  1.00  0.00     0.057 A 
HETATM   23  C   UNL     1      30.707  44.575  56.112  1.00  0.00     0.001 A 
HETATM   24  C   UNL     1      30.755  43.327  55.487  1.00  0.00     0.003 A 
ENDBRANCH   1  16
TORSDOF 3
ENDMDL
MODEL 5
REMARK VINA RESULT:      -8.0      4.619      5.354
REMARK  3 active torsions:
REMARK  status: ('A' for Active; 'I' for Inactive)
REMARK    1  A    between atoms: C_6  and  C_7 
REMARK       I    between atoms: C_7  and  N_8 
REMARK    2  A    between atoms: N_8  and  C_9 
REMARK    3  A    between atoms: C_12  and  C_13 
REMARK       I    between atoms: C_13  and  N_14 
ROOT
HETATM    1  C   UNL     1      28.670  43.246  52.916  1.00  0.00     0.280 C 
HETATM    2  N   UNL     1      28.411  41.888  52.862  1.00  0.00    -0.321 N 
HETATM    3  O   UNL     1      28.392  44.059  52.041  1.00  0.00    -0.265 OA
HETATM    4  H   UNL     1      28.674  41.374  53.697  1.00  0.00     0.169 HD
ENDROOT
BRANCH   2   5
HETATM    5  C   UNL     1      27.879  41.144  51.794  1.00  0.00     0.035 A 
HETATM    6  C   UNL     1      26.570  41.278  51.323  1.00  0.00     0.030 A 
HETATM    7  C   UNL     1      26.125  40.531  50.225  1.00  0.00     0.019 A 
HETATM    8  C   UNL     1      26.988  39.640  49.581  1.00  0.00     0.032 A 
HETATM    9  C   UNL     1      28.290  39.481  50.067  1.00  0.00     0.019 A 
HETATM   10  C   UNL     1      28.732  40.232  51.161  1.00  0.00     0.030 A 
BRANCH   8  11
HETATM   11  C   UNL     1      26.571  38.838  48.401  1.00  0.00     0.249 C 
HETATM   12  N   UNL     1      25.313  39.044  47.907  1.00  0.00    -0.366 N 
HETATM   13  H   UNL     1      24.745  39.837  48.167  1.00  0.00     0.159 HD
HETATM   14  H   UNL     1      25.088  38.568  47.043  1.00  0.00     0.159 HD
HETATM   15  O   UNL     1      27.332  38.045  47.861  1.00  0.00    -0.268 OA
ENDBRANCH   8  11
ENDBRANCH   2   5
BRANCH   1  16
HETATM   16  C   UNL     1      29.338  43.641  54.143  1.00  0.00     0.144 A 
HETATM   17  O   UNL     1      28.939  44.784  54.791  1.00  0.00    -0.304 OA
HETATM   18  C   UNL     1      29.691  44.886  55.922  1.00  0.00     0.086 A 
HETATM   19  C   UNL     1      30.584  43.825  56.008  1.00  0.00     0.001 A 
HETATM   20  C   UNL     1      29.586  45.898  56.873  1.00  0.00     0.038 A 
HETATM   21  C   UNL     1      31.442  43.756  57.120  1.00  0.00     0.014 A 
HETATM   22  C   UNL     1      30.356  43.035  54.854  1.00  0.00     0.057 A 
HETATM   23  C   UNL     1      31.357  44.758  58.098  1.00  0.00     0.001 A 
HETATM   24  C   UNL     1      30.445  45.809  57.974  1.00  0.00     0.003 A 
ENDBRANCH   1  16
TORSDOF 3
ENDMDL
MODEL 6
REMARK VINA RESULT:      -8.0      4.780     10.092
REMARK  3 active torsions:
REMARK  status: ('A' for Active; 'I' for Inactive)
REMARK    1  A    between atoms: C_6  and  C_7 
REMARK       I    between atoms: C_7  and  N_8 
REMARK    2  A    between atoms: N_8  and  C_9 
REMARK    3  A    between atoms: C_12  and  C_13 
REMARK       I    between atoms: C_13  and  N_14 
ROOT
HETATM    1  C   UNL     1      23.048  49.005  48.682  1.00  0.00     0.280 C 
HETATM    2  N   UNL     1      23.045  47.924  49.546  1.00  0.00    -0.321 N 
HETATM    3  O   UNL     1      23.964  49.306  47.924  1.00  0.00    -0.265 OA
HETATM    4  H   UNL     1      22.184  47.804  50.070  1.00  0.00     0.169 HD
ENDROOT
BRANCH   2   5
HETATM    5  C   UNL     1      24.086  47.016  49.811  1.00  0.00     0.035 A 
HETATM    6  C   UNL     1      25.071  47.217  50.781  1.00  0.00     0.030 A 
HETATM    7  C   UNL     1      26.053  46.246  51.016  1.00  0.00     0.019 A 
HETATM    8  C   UNL     1      26.058  45.057  50.282  1.00  0.00     0.032 A 
HETATM    9  C   UNL     1      25.092  44.863  49.289  1.00  0.00     0.019 A 
HETATM   10  C   UNL     1      24.111  45.834  49.061  1.00  0.00     0.030 A 
BRANCH   8  11
HETATM   11  C   UNL     1      27.066  43.986  50.504  1.00  0.00     0.249 C 
HETATM   12  N   UNL     1      27.775  44.017  51.673  1.00  0.00    -0.366 N 
HETATM   13  H   UNL     1      27.511  44.592  52.460  1.00  0.00     0.159 HD
HETATM   14  H   UNL     1      28.377  43.224  51.853  1.00  0.00     0.159 HD
HETATM   15  O   UNL     1      27.237  43.085  49.694  1.00  0.00    -0.268 OA
ENDBRANCH   8  11
ENDBRANCH   2   5
BRANCH   1  16
HETATM   16  C   UNL     1      21.831  49.791  48.764  1.00  0.00     0.144 A 
HETATM   17  O   UNL     1      20.769  49.316  49.493  1.00  0.00    -0.304 OA
HETATM   18  C   UNL     1      19.792  50.264  49.441  1.00  0.00     0.086 A 
HETATM   19  C   UNL     1      20.205  51.345  48.673  1.00  0.00     0.001 A 
HETATM   20  C   UNL     1      18.552  50.180  50.069  1.00  0.00     0.038 A 
HETATM   21  C   UNL     1      19.328  52.431  48.512  1.00  0.00     0.014 A 
HETATM   22  C   UNL     1      21.515  51.027  48.233  1.00  0.00     0.057 A 
HETATM   23  C   UNL     1      18.073  52.380  49.137  1.00  0.00     0.001 A 
HETATM   24  C   UNL     1      17.694  51.273  49.901  1.00  0.00     0.003 A 
ENDBRANCH   1  16
TORSDOF 3
ENDMDL
MODEL 7
REMARK VINA RESULT:      -7.9      6.213      6.982
REMARK  3 active torsions:
REMARK  status: ('A' for Active; 'I' for Inactive)
REMARK    1  A    between atoms: C_6  and  C_7 
REMARK       I    between atoms: C_7  and  N_8 
REMARK    2  A    between atoms: N_8  and  C_9 
REMARK    3  A    between atoms: C_12  and  C_13 
REMARK       I    between atoms: C_13  and  N_14 
ROOT
HETATM    1  C   UNL     1      27.918  41.639  51.571  1.00  0.00     0.280 C 
HETATM    2  N   UNL     1      28.823  40.828  50.909  1.00  0.00    -0.321 N 
HETATM    3  O   UNL     1      26.721  41.724  51.317  1.00  0.00    -0.265 OA
HETATM    4  H   UNL     1      29.766  40.856  51.282  1.00  0.00     0.169 HD
ENDROOT
BRANCH   2   5
HETATM    5  C   UNL     1      28.605  40.020  49.778  1.00  0.00     0.035 A 
HETATM    6  C   UNL     1      28.273  40.517  48.515  1.00  0.00     0.030 A 
HETATM    7  C   UNL     1      28.113  39.651  47.425  1.00  0.00     0.019 A 
HETATM    8  C   UNL     1      28.288  38.274  47.588  1.00  0.00     0.032 A 
HETATM    9  C   UNL     1      28.592  37.770  48.856  1.00  0.00     0.019 A 
HETATM   10  C   UNL     1      28.755  38.638  49.941  1.00  0.00     0.030 A 
BRANCH   8  11
HETATM   11  C   UNL     1      28.148  37.314  46.461  1.00  0.00     0.249 C 
HETATM   12  N   UNL     1      27.958  35.996  46.771  1.00  0.00    -0.366 N 
HETATM   13  H   UNL     1      27.707  35.681  47.697  1.00  0.00     0.159 HD
HETATM   14  H   UNL     1      27.759  35.378  45.995  1.00  0.00     0.159 HD
HETATM   15  O   UNL     1      28.165  37.685  45.294  1.00  0.00    -0.268 OA
ENDBRANCH   8  11
ENDBRANCH   2   5
BRANCH   1  16
HETATM   16  C   UNL     1      28.535  42.423  52.625  1.00  0.00     0.144 A 
HETATM   17  O   UNL     1      27.919  43.571  53.060  1.00  0.00    -0.304 OA
HETATM   18  C   UNL     1      28.679  44.073  54.074  1.00  0.00     0.086 A 
HETATM   19  C   UNL     1      29.790  43.267  54.292  1.00  0.00     0.001 A 
HETATM   20  C   UNL     1      28.393  45.223  54.804  1.00  0.00     0.038 A 
HETATM   21  C   UNL     1      30.690  43.624  55.311  1.00  0.00     0.014 A 
HETATM   22  C   UNL     1      29.694  42.214  53.348  1.00  0.00     0.057 A 
HETATM   23  C   UNL     1      30.426  44.775  56.068  1.00  0.00     0.001 A 
HETATM   24  C   UNL     1      29.298  45.559  55.817  1.00  0.00     0.003 A 
ENDBRANCH   1  16
TORSDOF 3
ENDMDL
MODEL 8
REMARK VINA RESULT:      -7.9      2.382      9.115
REMARK  3 active torsions:
REMARK  status: ('A' for Active; 'I' for Inactive)
REMARK    1  A    between atoms: C_6  and  C_7 
REMARK       I    between atoms: C_7  and  N_8 
REMARK    2  A    between atoms: N_8  and  C_9 
REMARK    3  A    between atoms: C_12  and  C_13 
REMARK       I    between atoms: C_13  and  N_14 
ROOT
HETATM    1  C   UNL     1      25.213  47.383  50.294  1.00  0.00     0.280 C 
HETATM    2  N   UNL     1      24.981  46.987  51.599  1.00  0.00    -0.321 N 
HETATM    3  O   UNL     1      26.279  47.280  49.697  1.00  0.00    -0.265 OA
HETATM    4  H   UNL     1      24.025  47.111  51.915  1.00  0.00     0.169 HD
ENDROOT
BRANCH   2   5
HETATM    5  C   UNL     1      25.904  46.483  52.534  1.00  0.00     0.035 A 
HETATM    6  C   UNL     1      26.453  45.200  52.476  1.00  0.00     0.030 A 
HETATM    7  C   UNL     1      27.401  44.784  53.422  1.00  0.00     0.019 A 
HETATM    8  C   UNL     1      27.812  45.653  54.436  1.00  0.00     0.032 A 
HETATM    9  C   UNL     1      27.244  46.928  54.514  1.00  0.00     0.019 A 
HETATM   10  C   UNL     1      26.302  47.341  53.567  1.00  0.00     0.030 A 
BRANCH   8  11
HETATM   11  C   UNL     1      28.828  45.268  55.452  1.00  0.00     0.249 C 
HETATM   12  N   UNL     1      28.839  45.961  56.630  1.00  0.00    -0.366 N 
HETATM   13  H   UNL     1      28.084  46.565  56.919  1.00  0.00     0.159 HD
HETATM   14  H   UNL     1      29.464  45.616  57.347  1.00  0.00     0.159 HD
HETATM   15  O   UNL     1      29.605  44.341  55.265  1.00  0.00    -0.268 OA
ENDBRANCH   8  11
ENDBRANCH   2   5
BRANCH   1  16
HETATM   16  C   UNL     1      24.040  47.969  49.670  1.00  0.00     0.144 A 
HETATM   17  O   UNL     1      23.802  49.314  49.811  1.00  0.00    -0.304 OA
HETATM   18  C   UNL     1      22.679  49.598  49.094  1.00  0.00     0.086 A 
HETATM   19  C   UNL     1      22.179  48.448  48.498  1.00  0.00     0.001 A 
HETATM   20  C   UNL     1      22.106  50.860  48.959  1.00  0.00     0.038 A 
HETATM   21  C   UNL     1      21.022  48.547  47.706  1.00  0.00     0.014 A 
HETATM   22  C   UNL     1      23.056  47.402  48.883  1.00  0.00     0.057 A 
HETATM   23  C   UNL     1      20.424  49.806  47.546  1.00  0.00     0.001 A 
HETATM   24  C   UNL     1      20.957  50.940  48.163  1.00  0.00     0.003 A 
ENDBRANCH   1  16
TORSDOF 3
ENDMDL
MODEL 9
REMARK VINA RESULT:      -7.8     15.617     17.155
REMARK  3 active torsions:
REMARK  status: ('A' for Active; 'I' for Inactive)
REMARK    1  A    between atoms: C_6  and  C_7 
REMARK       I    between atoms: C_7  and  N_8 
REMARK    2  A    between atoms: N_8  and  C_9 
REMARK    3  A    between atoms: C_12  and  C_13 
REMARK       I    between atoms: C_13  and  N_14 
ROOT
HETATM    1  C   UNL     1      37.694  45.536  63.998  1.00  0.00     0.280 C 
HETATM    2  N   UNL     1      38.625  46.288  64.694  1.00  0.00    -0.321 N 
HETATM    3  O   UNL     1      36.615  45.946  63.584  1.00  0.00    -0.265 OA
HETATM    4  H   UNL     1      39.481  45.794  64.922  1.00  0.00     0.169 HD
ENDROOT
BRANCH   2   5
HETATM    5  C   UNL     1      38.509  47.613  65.151  1.00  0.00     0.035 A 
HETATM    6  C   UNL     1      37.461  48.075  65.951  1.00  0.00     0.030 A 
HETATM    7  C   UNL     1      37.437  49.401  66.403  1.00  0.00     0.019 A 
HETATM    8  C   UNL     1      38.467  50.281  66.060  1.00  0.00     0.032 A 
HETATM    9  C   UNL     1      39.503  49.831  65.235  1.00  0.00     0.019 A 
HETATM   10  C   UNL     1      39.525  48.506  64.790  1.00  0.00     0.030 A 
BRANCH   8  11
HETATM   11  C   UNL     1      38.499  51.693  66.528  1.00  0.00     0.249 C 
HETATM   12  N   UNL     1      37.657  52.581  65.919  1.00  0.00    -0.366 N 
HETATM   13  H   UNL     1      36.891  52.294  65.328  1.00  0.00     0.159 HD
HETATM   14  H   UNL     1      37.617  53.508  66.322  1.00  0.00     0.159 HD
HETATM   15  O   UNL     1      39.222  52.048  67.449  1.00  0.00    -0.268 OA
ENDBRANCH   8  11
ENDBRANCH   2   5
BRANCH   1  16
HETATM   16  C   UNL     1      38.117  44.161  63.804  1.00  0.00     0.144 A 
HETATM   17  O   UNL     1      37.999  43.267  64.839  1.00  0.00    -0.304 OA
HETATM   18  C   UNL     1      38.417  42.057  64.372  1.00  0.00     0.086 A 
HETATM   19  C   UNL     1      38.817  42.161  63.046  1.00  0.00     0.001 A 
HETATM   20  C   UNL     1      38.438  40.873  65.104  1.00  0.00     0.038 A 
HETATM   21  C   UNL     1      39.274  41.006  62.388  1.00  0.00     0.014 A 
HETATM   22  C   UNL     1      38.630  43.521  62.692  1.00  0.00     0.057 A 
HETATM   23  C   UNL     1      39.302  39.796  63.096  1.00  0.00     0.001 A 
HETATM   24  C   UNL     1      38.892  39.733  64.430  1.00  0.00     0.003 A 
ENDBRANCH   1  16
TORSDOF 3
ENDMDL
MODEL 10
REMARK VINA RESULT:      -7.7      2.896      8.993
REMARK  3 active torsions:
REMARK  status: ('A' for Active; 'I' for Inactive)
REMARK    1  A    between atoms: C_6  and  C_7 
REMARK       I    between atoms: C_7  and  N_8 
REMARK    2  A    between atoms: N_8  and  C_9 
REMARK    3  A    between atoms: C_12  and  C_13 
REMARK       I    between atoms: C_13  and  N_14 
ROOT
HETATM    1  C   UNL     1      25.592  47.206  49.913  1.00  0.00     0.280 C 
HETATM    2  N   UNL     1      25.385  46.318  50.954  1.00  0.00    -0.321 N 
HETATM    3  O   UNL     1      26.668  47.425  49.367  1.00  0.00    -0.265 OA
HETATM    4  H   UNL     1      24.420  46.236  51.254  1.00  0.00     0.169 HD
ENDROOT
BRANCH   2   5
HETATM    5  C   UNL     1      26.341  45.565  51.660  1.00  0.00     0.035 A 
HETATM    6  C   UNL     1      26.640  45.752  53.012  1.00  0.00     0.030 A 
HETATM    7  C   UNL     1      27.576  44.932  53.658  1.00  0.00     0.019 A 
HETATM    8  C   UNL     1      28.222  43.912  52.955  1.00  0.00     0.032 A 
HETATM    9  C   UNL     1      27.948  43.741  51.595  1.00  0.00     0.019 A 
HETATM   10  C   UNL     1      27.011  44.558  50.955  1.00  0.00     0.030 A 
BRANCH   8  11
HETATM   11  C   UNL     1      29.209  43.004  53.597  1.00  0.00     0.249 C 
HETATM   12  N   UNL     1      30.159  42.433  52.796  1.00  0.00    -0.366 N 
HETATM   13  H   UNL     1      30.346  42.749  51.856  1.00  0.00     0.159 HD
HETATM   14  H   UNL     1      30.883  41.905  53.267  1.00  0.00     0.159 HD
HETATM   15  O   UNL     1      29.202  42.797  54.804  1.00  0.00    -0.268 OA
ENDBRANCH   8  11
ENDBRANCH   2   5
BRANCH   1  16
HETATM   16  C   UNL     1      24.378  47.894  49.515  1.00  0.00     0.144 A 
HETATM   17  O   UNL     1      24.355  49.267  49.501  1.00  0.00    -0.304 OA
HETATM   18  C   UNL     1      23.126  49.642  49.047  1.00  0.00     0.086 A 
HETATM   19  C   UNL     1      22.346  48.524  48.778  1.00  0.00     0.001 A 
HETATM   20  C   UNL     1      22.698  50.955  48.864  1.00  0.00     0.038 A 
HETATM   21  C   UNL     1      21.042  48.715  48.289  1.00  0.00     0.014 A 
HETATM   22  C   UNL     1      23.157  47.404  49.091  1.00  0.00     0.057 A 
HETATM   23  C   UNL     1      20.584  50.025  48.090  1.00  0.00     0.001 A 
HETATM   24  C   UNL     1      21.399  51.124  48.373  1.00  0.00     0.003 A 
ENDBRANCH   1  16
TORSDOF 3
ENDMDL
