MODEL 1
REMARK VINA RESULT:      -9.0      0.000      0.000
REMARK  11 active torsions:
REMARK  status: ('A' for Active; 'I' for Inactive)
REMARK    1  A    between atoms: C_2  and  N_3 
REMARK    2  A    between atoms: N_3  and  C_5 
REMARK    3  A    between atoms: N_3  and  C_35 
REMARK    4  A    between atoms: C_5  and  C_6 
REMARK    5  A    between atoms: C_6  and  C_7 
REMARK    6  A    between atoms: C_7  and  N_8 
REMARK    7  A    between atoms: N_8  and  C_9 
REMARK    8  A    between atoms: N_8  and  C_19 
REMARK    9  A    between atoms: C_9  and  N_10 
REMARK   10  A    between atoms: N_10  and  C_11 
REMARK   11  A    between atoms: C_19  and  C_20 
ROOT
HETATM    1  N   UNL     1      25.524  45.350  50.428  1.00  0.00    -0.255 NA
ENDROOT
BRANCH   1   2
HETATM    2  C   UNL     1      25.317  46.569  49.622  1.00  0.00     0.100 C 
BRANCH   2   3
HETATM    3  C   UNL     1      24.262  47.563  50.142  1.00  0.00     0.042 C 
BRANCH   3   4
HETATM    4  C   UNL     1      23.355  48.084  49.033  1.00  0.00     0.236 C 
BRANCH   4   5
HETATM    5  N   UNL     1      22.108  48.790  49.558  1.00  0.00    -0.072 N 
HETATM    6  H   UNL     1      22.035  48.497  50.543  1.00  0.00     0.279 HD
BRANCH   5   7
HETATM    7  C   UNL     1      20.807  48.338  48.909  1.00  0.00     0.230 C 
HETATM    8  C   UNL     1      21.059  47.647  47.582  1.00  0.00     0.034 C 
ENDBRANCH   5   7
BRANCH   5   9
HETATM    9  C   UNL     1      22.184  50.306  49.602  1.00  0.00     0.230 C 
HETATM   10  C   UNL     1      23.051  50.857  48.484  1.00  0.00     0.034 C 
ENDBRANCH   5   9
ENDBRANCH   4   5
ENDBRANCH   3   4
ENDBRANCH   2   3
ENDBRANCH   1   2
BRANCH   1  11
HETATM   11  C   UNL     1      25.149  44.141  49.862  1.00  0.00     0.153 C 
HETATM   12  S   UNL     1      23.629  43.438  50.035  1.00  0.00    -0.047 SA
BRANCH  11  13
HETATM   13  N   UNL     1      26.042  43.472  49.080  1.00  0.00    -0.338 N 
HETATM   14  H   UNL     1      26.073  43.866  48.143  1.00  0.00     0.168 HD
BRANCH  13  15
HETATM   15  C   UNL     1      26.842  42.326  49.266  1.00  0.00     0.035 A 
HETATM   16  C   UNL     1      27.342  42.127  50.561  1.00  0.00     0.053 A 
HETATM   17  C   UNL     1      28.130  41.014  50.857  1.00  0.00     0.036 A 
HETATM   18 CL   UNL     1      28.706  40.781  52.460  1.00  0.00    -0.084 Cl
HETATM   19  C   UNL     1      28.442  40.089  49.868  1.00  0.00     0.024 A 
HETATM   20  C   UNL     1      27.961  40.284  48.575  1.00  0.00     0.004 A 
HETATM   21  C   UNL     1      27.166  41.397  48.276  1.00  0.00     0.029 A 
ENDBRANCH  13  15
ENDBRANCH  11  13
ENDBRANCH   1  11
BRANCH   1  22
HETATM   22  C   UNL     1      25.097  45.473  51.845  1.00  0.00     0.142 C 
BRANCH  22  23
HETATM   23  C   UNL     1      26.224  45.669  52.818  1.00  0.00     0.024 A 
HETATM   24  C   UNL     1      26.188  46.931  53.623  1.00  0.00     0.253 A 
HETATM   25  O   UNL     1      25.397  47.834  53.365  1.00  0.00    -0.268 OA
HETATM   26  N   UNL     1      27.086  47.050  54.647  1.00  0.00    -0.322 N 
HETATM   27  C   UNL     1      28.042  46.077  54.958  1.00  0.00     0.048 A 
HETATM   28  H   UNL     1      27.029  47.898  55.197  1.00  0.00     0.169 HD
HETATM   29  C   UNL     1      28.109  44.912  54.182  1.00  0.00    -0.006 A 
HETATM   30  C   UNL     1      28.901  46.276  56.038  1.00  0.00     0.070 A 
HETATM   31  C   UNL     1      29.066  43.941  54.489  1.00  0.00     0.053 A 
HETATM   32  C   UNL     1      27.142  44.726  53.097  1.00  0.00     0.027 A 
HETATM   33  C   UNL     1      29.934  44.137  55.565  1.00  0.00     0.103 A 
HETATM   34  C   UNL     1      29.833  45.291  56.352  1.00  0.00     0.104 A 
HETATM   35  O   UNL     1      30.850  43.145  55.805  1.00  0.00    -0.346 OA
HETATM   36  O   UNL     1      30.620  45.520  57.452  1.00  0.00    -0.346 OA
HETATM   37  C   UNL     1      31.248  44.313  57.902  1.00  0.00     0.202 C 
HETATM   38  C   UNL     1      31.863  43.568  56.728  1.00  0.00     0.202 C 
ENDBRANCH  22  23
ENDBRANCH   1  22
TORSDOF 11
ENDMDL
MODEL 2
REMARK VINA RESULT:      -9.0      1.573      2.216
REMARK  11 active torsions:
REMARK  status: ('A' for Active; 'I' for Inactive)
REMARK    1  A    between atoms: C_2  and  N_3 
REMARK    2  A    between atoms: N_3  and  C_5 
REMARK    3  A    between atoms: N_3  and  C_35 
REMARK    4  A    between atoms: C_5  and  C_6 
REMARK    5  A    between atoms: C_6  and  C_7 
REMARK    6  A    between atoms: C_7  and  N_8 
REMARK    7  A    between atoms: N_8  and  C_9 
REMARK    8  A    between atoms: N_8  and  C_19 
REMARK    9  A    between atoms: C_9  and  N_10 
REMARK   10  A    between atoms: N_10  and  C_11 
REMARK   11  A    between atoms: C_19  and  C_20 
ROOT
HETATM    1  N   UNL     1      25.180  44.627  50.763  1.00  0.00    -0.255 NA
ENDROOT
BRANCH   1   2
HETATM    2  C   UNL     1      25.269  45.488  49.567  1.00  0.00     0.100 C 
BRANCH   2   3
HETATM    3  C   UNL     1      24.450  46.791  49.598  1.00  0.00     0.042 C 
BRANCH   3   4
HETATM    4  C   UNL     1      25.322  48.023  49.814  1.00  0.00     0.236 C 
BRANCH   4   5
HETATM    5  N   UNL     1      25.182  49.061  48.705  1.00  0.00    -0.072 N 
HETATM    6  H   UNL     1      24.909  48.521  47.872  1.00  0.00     0.279 HD
BRANCH   5   7
HETATM    7  C   UNL     1      26.482  49.755  48.324  1.00  0.00     0.230 C 
HETATM    8  C   UNL     1      27.669  49.150  49.049  1.00  0.00     0.034 C 
ENDBRANCH   5   7
BRANCH   5   9
HETATM    9  C   UNL     1      24.071  50.078  48.897  1.00  0.00     0.230 C 
HETATM   10  C   UNL     1      23.290  50.305  47.615  1.00  0.00     0.034 C 
ENDBRANCH   5   9
ENDBRANCH   4   5
ENDBRANCH   3   4
ENDBRANCH   2   3
ENDBRANCH   1   2
BRANCH   1  11
HETATM   11  C   UNL     1      24.464  43.445  50.645  1.00  0.00     0.153 C 
HETATM   12  S   UNL     1      22.962  43.311  49.899  1.00  0.00    -0.047 SA
BRANCH  11  13
HETATM   13  N   UNL     1      25.007  42.293  51.129  1.00  0.00    -0.338 N 
HETATM   14  H   UNL     1      24.464  41.935  51.911  1.00  0.00     0.168 HD
BRANCH  13  15
HETATM   15  C   UNL     1      26.179  41.564  50.840  1.00  0.00     0.035 A 
HETATM   16  C   UNL     1      26.219  40.934  49.587  1.00  0.00     0.053 A 
HETATM   17  C   UNL     1      27.340  40.202  49.195  1.00  0.00     0.036 A 
HETATM   18 CL   UNL     1      27.373  39.463  47.643  1.00  0.00    -0.084 Cl
HETATM   19  C   UNL     1      28.433  40.077  50.045  1.00  0.00     0.024 A 
HETATM   20  C   UNL     1      28.398  40.688  51.296  1.00  0.00     0.004 A 
HETATM   21  C   UNL     1      27.276  41.428  51.691  1.00  0.00     0.029 A 
ENDBRANCH  13  15
ENDBRANCH  11  13
ENDBRANCH   1  11
BRANCH   1  22
HETATM   22  C   UNL     1      24.875  45.356  52.020  1.00  0.00     0.142 C 
BRANCH  22  23
HETATM   23  C   UNL     1      26.059  45.567  52.919  1.00  0.00     0.024 A 
HETATM   24  C   UNL     1      26.119  46.882  53.634  1.00  0.00     0.253 A 
HETATM   25  O   UNL     1      25.353  47.800  53.353  1.00  0.00    -0.268 OA
HETATM   26  N   UNL     1      27.074  47.029  54.600  1.00  0.00    -0.322 N 
HETATM   27  C   UNL     1      28.005  46.039  54.930  1.00  0.00     0.048 A 
HETATM   28  H   UNL     1      27.082  47.915  55.091  1.00  0.00     0.169 HD
HETATM   29  C   UNL     1      27.982  44.822  54.236  1.00  0.00    -0.006 A 
HETATM   30  C   UNL     1      28.928  46.272  55.949  1.00  0.00     0.070 A 
HETATM   31  C   UNL     1      28.913  43.831  54.561  1.00  0.00     0.053 A 
HETATM   32  C   UNL     1      26.952  44.605  53.216  1.00  0.00     0.027 A 
HETATM   33  C   UNL     1      29.845  44.061  55.576  1.00  0.00     0.103 A 
HETATM   34  C   UNL     1      29.834  45.270  56.284  1.00  0.00     0.104 A 
HETATM   35  O   UNL     1      30.731  43.048  55.838  1.00  0.00    -0.346 OA
HETATM   36  O   UNL     1      30.688  45.538  57.324  1.00  0.00    -0.346 OA
HETATM   37  C   UNL     1      31.288  44.338  57.825  1.00  0.00     0.202 C 
HETATM   38  C   UNL     1      31.808  43.487  56.677  1.00  0.00     0.202 C 
ENDBRANCH  22  23
ENDBRANCH   1  22
TORSDOF 11
ENDMDL
MODEL 3
REMARK VINA RESULT:      -8.8      2.524      6.059
REMARK  11 active torsions:
REMARK  status: ('A' for Active; 'I' for Inactive)
REMARK    1  A    between atoms: C_2  and  N_3 
REMARK    2  A    between atoms: N_3  and  C_5 
REMARK    3  A    between atoms: N_3  and  C_35 
REMARK    4  A    between atoms: C_5  and  C_6 
REMARK    5  A    between atoms: C_6  and  C_7 
REMARK    6  A    between atoms: C_7  and  N_8 
REMARK    7  A    between atoms: N_8  and  C_9 
REMARK    8  A    between atoms: N_8  and  C_19 
REMARK    9  A    between atoms: C_9  and  N_10 
REMARK   10  A    between atoms: N_10  and  C_11 
REMARK   11  A    between atoms: C_19  and  C_20 
ROOT
HETATM    1  N   UNL     1      25.043  44.625  50.780  1.00  0.00    -0.255 NA
ENDROOT
BRANCH   1   2
HETATM    2  C   UNL     1      26.465  44.566  50.388  1.00  0.00     0.100 C 
BRANCH   2   3
HETATM    3  C   UNL     1      26.878  43.388  49.487  1.00  0.00     0.042 C 
BRANCH   3   4
HETATM    4  C   UNL     1      26.754  42.042  50.193  1.00  0.00     0.236 C 
BRANCH   4   5
HETATM    5  N   UNL     1      27.850  41.055  49.802  1.00  0.00    -0.072 N 
HETATM    6  H   UNL     1      28.646  41.644  49.520  1.00  0.00     0.279 HD
BRANCH   5   7
HETATM    7  C   UNL     1      27.528  40.206  48.580  1.00  0.00     0.230 C 
HETATM    8  C   UNL     1      28.240  40.720  47.343  1.00  0.00     0.034 C 
ENDBRANCH   5   7
BRANCH   5   9
HETATM    9  C   UNL     1      28.380  40.187  50.929  1.00  0.00     0.230 C 
HETATM   10  C   UNL     1      28.611  40.991  52.196  1.00  0.00     0.034 C 
ENDBRANCH   5   9
ENDBRANCH   4   5
ENDBRANCH   3   4
ENDBRANCH   2   3
ENDBRANCH   1   2
BRANCH   1  11
HETATM   11  C   UNL     1      24.220  45.482  50.064  1.00  0.00     0.153 C 
HETATM   12  S   UNL     1      23.081  44.983  48.931  1.00  0.00    -0.047 SA
BRANCH  11  13
HETATM   13  N   UNL     1      24.296  46.822  50.301  1.00  0.00    -0.338 N 
HETATM   14  H   UNL     1      23.740  47.081  51.111  1.00  0.00     0.168 HD
BRANCH  13  15
HETATM   15  C   UNL     1      24.895  47.904  49.623  1.00  0.00     0.035 A 
HETATM   16  C   UNL     1      24.015  48.842  49.061  1.00  0.00     0.053 A 
HETATM   17  C   UNL     1      24.505  49.959  48.385  1.00  0.00     0.036 A 
HETATM   18 CL   UNL     1      23.403  51.106  47.729  1.00  0.00    -0.084 Cl
HETATM   19  C   UNL     1      25.874  50.157  48.248  1.00  0.00     0.024 A 
HETATM   20  C   UNL     1      26.755  49.226  48.793  1.00  0.00     0.004 A 
HETATM   21  C   UNL     1      26.268  48.105  49.477  1.00  0.00     0.029 A 
ENDBRANCH  13  15
ENDBRANCH  11  13
ENDBRANCH   1  11
BRANCH   1  22
HETATM   22  C   UNL     1      24.815  44.706  52.245  1.00  0.00     0.142 C 
BRANCH  22  23
HETATM   23  C   UNL     1      26.038  45.043  53.047  1.00  0.00     0.024 A 
HETATM   24  C   UNL     1      26.154  46.462  53.511  1.00  0.00     0.253 A 
HETATM   25  O   UNL     1      25.395  47.336  53.097  1.00  0.00    -0.268 OA
HETATM   26  N   UNL     1      27.150  46.755  54.399  1.00  0.00    -0.322 N 
HETATM   27  C   UNL     1      28.073  45.814  54.868  1.00  0.00     0.048 A 
HETATM   28  H   UNL     1      27.196  47.713  54.722  1.00  0.00     0.169 HD
HETATM   29  C   UNL     1      27.998  44.493  54.405  1.00  0.00    -0.006 A 
HETATM   30  C   UNL     1      29.042  46.201  55.793  1.00  0.00     0.070 A 
HETATM   31  C   UNL     1      28.922  43.553  54.870  1.00  0.00     0.053 A 
HETATM   32  C   UNL     1      26.923  44.126  53.480  1.00  0.00     0.027 A 
HETATM   33  C   UNL     1      29.898  43.935  55.792  1.00  0.00     0.103 A 
HETATM   34  C   UNL     1      29.940  45.251  56.270  1.00  0.00     0.104 A 
HETATM   35  O   UNL     1      30.774  42.962  56.200  1.00  0.00    -0.346 OA
HETATM   36  O   UNL     1      30.841  45.678  57.213  1.00  0.00    -0.346 OA
HETATM   37  C   UNL     1      31.437  44.571  57.900  1.00  0.00     0.202 C 
HETATM   38  C   UNL     1      31.893  43.515  56.906  1.00  0.00     0.202 C 
ENDBRANCH  22  23
ENDBRANCH   1  22
TORSDOF 11
ENDMDL
MODEL 4
REMARK VINA RESULT:      -8.6      3.450      8.952
REMARK  11 active torsions:
REMARK  status: ('A' for Active; 'I' for Inactive)
REMARK    1  A    between atoms: C_2  and  N_3 
REMARK    2  A    between atoms: N_3  and  C_5 
REMARK    3  A    between atoms: N_3  and  C_35 
REMARK    4  A    between atoms: C_5  and  C_6 
REMARK    5  A    between atoms: C_6  and  C_7 
REMARK    6  A    between atoms: C_7  and  N_8 
REMARK    7  A    between atoms: N_8  and  C_9 
REMARK    8  A    between atoms: N_8  and  C_19 
REMARK    9  A    between atoms: C_9  and  N_10 
REMARK   10  A    between atoms: N_10  and  C_11 
REMARK   11  A    between atoms: C_19  and  C_20 
ROOT
HETATM    1  N   UNL     1      26.914  43.728  52.221  1.00  0.00    -0.255 NA
ENDROOT
BRANCH   1   2
HETATM    2  C   UNL     1      27.932  42.775  51.737  1.00  0.00     0.100 C 
BRANCH   2   3
HETATM    3  C   UNL     1      27.464  41.325  51.517  1.00  0.00     0.042 C 
BRANCH   3   4
HETATM    4  C   UNL     1      28.181  40.651  50.353  1.00  0.00     0.236 C 
BRANCH   4   5
HETATM    5  N   UNL     1      28.099  39.128  50.397  1.00  0.00    -0.072 N 
HETATM    6  H   UNL     1      27.559  38.918  51.248  1.00  0.00     0.279 HD
BRANCH   5   7
HETATM    7  C   UNL     1      29.438  38.431  50.590  1.00  0.00     0.230 C 
HETATM    8  C   UNL     1      30.130  38.178  49.264  1.00  0.00     0.034 C 
ENDBRANCH   5   7
BRANCH   5   9
HETATM    9  C   UNL     1      27.320  38.482  49.265  1.00  0.00     0.230 C 
HETATM   10  C   UNL     1      26.674  37.178  49.701  1.00  0.00     0.034 C 
ENDBRANCH   5   9
ENDBRANCH   4   5
ENDBRANCH   3   4
ENDBRANCH   2   3
ENDBRANCH   1   2
BRANCH   1  11
HETATM   11  C   UNL     1      27.024  44.167  53.532  1.00  0.00     0.153 C 
HETATM   12  S   UNL     1      25.847  43.943  54.714  1.00  0.00    -0.047 SA
BRANCH  11  13
HETATM   13  N   UNL     1      28.168  44.795  53.924  1.00  0.00    -0.338 N 
HETATM   14  H   UNL     1      28.329  45.635  53.375  1.00  0.00     0.168 HD
BRANCH  13  15
HETATM   15  C   UNL     1      29.190  44.485  54.845  1.00  0.00     0.035 A 
HETATM   16  C   UNL     1      29.379  45.404  55.889  1.00  0.00     0.053 A 
HETATM   17  C   UNL     1      30.353  45.183  56.863  1.00  0.00     0.036 A 
HETATM   18 CL   UNL     1      30.544  46.312  58.146  1.00  0.00    -0.084 Cl
HETATM   19  C   UNL     1      31.160  44.052  56.810  1.00  0.00     0.024 A 
HETATM   20  C   UNL     1      30.989  43.140  55.771  1.00  0.00     0.004 A 
HETATM   21  C   UNL     1      30.009  43.356  54.793  1.00  0.00     0.029 A 
ENDBRANCH  13  15
ENDBRANCH  11  13
ENDBRANCH   1  11
BRANCH   1  22
HETATM   22  C   UNL     1      25.519  43.374  51.853  1.00  0.00     0.142 C 
BRANCH  22  23
HETATM   23  C   UNL     1      24.855  44.346  50.923  1.00  0.00     0.024 A 
HETATM   24  C   UNL     1      23.555  43.905  50.324  1.00  0.00     0.253 A 
HETATM   25  O   UNL     1      23.158  42.748  50.436  1.00  0.00    -0.268 OA
HETATM   26  N   UNL     1      22.835  44.835  49.629  1.00  0.00    -0.322 N 
HETATM   27  C   UNL     1      23.258  46.153  49.427  1.00  0.00     0.048 A 
HETATM   28  H   UNL     1      21.946  44.526  49.256  1.00  0.00     0.169 HD
HETATM   29  C   UNL     1      24.494  46.561  49.948  1.00  0.00    -0.006 A 
HETATM   30  C   UNL     1      22.443  47.039  48.725  1.00  0.00     0.070 A 
HETATM   31  C   UNL     1      24.921  47.876  49.743  1.00  0.00     0.053 A 
HETATM   32  C   UNL     1      25.284  45.607  50.731  1.00  0.00     0.027 A 
HETATM   33  C   UNL     1      24.111  48.767  49.035  1.00  0.00     0.103 A 
HETATM   34  C   UNL     1      22.864  48.354  48.550  1.00  0.00     0.104 A 
HETATM   35  O   UNL     1      24.596  50.039  48.869  1.00  0.00    -0.346 OA
HETATM   36  O   UNL     1      22.000  49.192  47.891  1.00  0.00    -0.346 OA
HETATM   37  C   UNL     1      22.346  50.566  48.104  1.00  0.00     0.202 C 
HETATM   38  C   UNL     1      23.838  50.774  47.897  1.00  0.00     0.202 C 
ENDBRANCH  22  23
ENDBRANCH   1  22
TORSDOF 11
ENDMDL
MODEL 5
REMARK VINA RESULT:      -8.3      3.328      8.842
REMARK  11 active torsions:
REMARK  status: ('A' for Active; 'I' for Inactive)
REMARK    1  A    between atoms: C_2  and  N_3 
REMARK    2  A    between atoms: N_3  and  C_5 
REMARK    3  A    between atoms: N_3  and  C_35 
REMARK    4  A    between atoms: C_5  and  C_6 
REMARK    5  A    between atoms: C_6  and  C_7 
REMARK    6  A    between atoms: C_7  and  N_8 
REMARK    7  A    between atoms: N_8  and  C_9 
REMARK    8  A    between atoms: N_8  and  C_19 
REMARK    9  A    between atoms: C_9  and  N_10 
REMARK   10  A    between atoms: N_10  and  C_11 
REMARK   11  A    between atoms: C_19  and  C_20 
ROOT
HETATM    1  N   UNL     1      27.135  42.824  51.776  1.00  0.00    -0.255 NA
ENDROOT
BRANCH   1   2
HETATM    2  C   UNL     1      26.824  41.748  50.815  1.00  0.00     0.100 C 
BRANCH   2   3
HETATM    3  C   UNL     1      28.005  41.200  49.994  1.00  0.00     0.042 C 
BRANCH   3   4
HETATM    4  C   UNL     1      28.148  39.687  50.118  1.00  0.00     0.236 C 
BRANCH   4   5
HETATM    5  N   UNL     1      28.844  39.049  48.919  1.00  0.00    -0.072 N 
HETATM    6  H   UNL     1      29.244  39.840  48.395  1.00  0.00     0.279 HD
BRANCH   5   7
HETATM    7  C   UNL     1      27.906  38.355  47.941  1.00  0.00     0.230 C 
HETATM    8  C   UNL     1      26.980  37.386  48.652  1.00  0.00     0.034 C 
ENDBRANCH   5   7
BRANCH   5   9
HETATM    9  C   UNL     1      30.027  38.155  49.248  1.00  0.00     0.230 C 
HETATM   10  C   UNL     1      30.121  37.875  50.737  1.00  0.00     0.034 C 
ENDBRANCH   5   9
ENDBRANCH   4   5
ENDBRANCH   3   4
ENDBRANCH   2   3
ENDBRANCH   1   2
BRANCH   1  11
HETATM   11  C   UNL     1      28.049  42.538  52.779  1.00  0.00     0.153 C 
HETATM   12  S   UNL     1      28.128  41.075  53.607  1.00  0.00    -0.047 SA
BRANCH  11  13
HETATM   13  N   UNL     1      28.980  43.476  53.112  1.00  0.00    -0.338 N 
HETATM   14  H   UNL     1      29.587  43.683  52.324  1.00  0.00     0.168 HD
BRANCH  13  15
HETATM   15  C   UNL     1      29.323  44.133  54.312  1.00  0.00     0.035 A 
HETATM   16  C   UNL     1      30.372  43.563  55.048  1.00  0.00     0.053 A 
HETATM   17  C   UNL     1      30.802  44.145  56.241  1.00  0.00     0.036 A 
HETATM   18 CL   UNL     1      32.109  43.440  57.109  1.00  0.00    -0.084 Cl
HETATM   19  C   UNL     1      30.190  45.295  56.725  1.00  0.00     0.024 A 
HETATM   20  C   UNL     1      29.139  45.862  56.007  1.00  0.00     0.004 A 
HETATM   21  C   UNL     1      28.708  45.283  54.807  1.00  0.00     0.029 A 
ENDBRANCH  13  15
ENDBRANCH  11  13
ENDBRANCH   1  11
BRANCH   1  22
HETATM   22  C   UNL     1      25.946  43.558  52.280  1.00  0.00     0.142 C 
BRANCH  22  23
HETATM   23  C   UNL     1      25.297  44.459  51.271  1.00  0.00     0.024 A 
HETATM   24  C   UNL     1      23.965  44.017  50.750  1.00  0.00     0.253 A 
HETATM   25  O   UNL     1      23.523  42.895  50.989  1.00  0.00    -0.268 OA
HETATM   26  N   UNL     1      23.264  44.903  49.981  1.00  0.00    -0.322 N 
HETATM   27  C   UNL     1      23.735  46.173  49.636  1.00  0.00     0.048 A 
HETATM   28  H   UNL     1      22.354  44.596  49.661  1.00  0.00     0.169 HD
HETATM   29  C   UNL     1      25.000  46.578  50.084  1.00  0.00    -0.006 A 
HETATM   30  C   UNL     1      22.938  47.019  48.865  1.00  0.00     0.070 A 
HETATM   31  C   UNL     1      25.475  47.846  49.736  1.00  0.00     0.053 A 
HETATM   32  C   UNL     1      25.772  45.674  50.941  1.00  0.00     0.027 A 
HETATM   33  C   UNL     1      24.683  48.695  48.959  1.00  0.00     0.103 A 
HETATM   34  C   UNL     1      23.408  48.290  48.548  1.00  0.00     0.104 A 
HETATM   35  O   UNL     1      25.215  49.921  48.653  1.00  0.00    -0.346 OA
HETATM   36  O   UNL     1      22.561  49.094  47.827  1.00  0.00    -0.346 OA
HETATM   37  C   UNL     1      22.969  50.465  47.891  1.00  0.00     0.202 C 
HETATM   38  C   UNL     1      24.461  50.587  47.630  1.00  0.00     0.202 C 
ENDBRANCH  22  23
ENDBRANCH   1  22
TORSDOF 11
ENDMDL
MODEL 6
REMARK VINA RESULT:      -8.0      3.900      8.740
REMARK  11 active torsions:
REMARK  status: ('A' for Active; 'I' for Inactive)
REMARK    1  A    between atoms: C_2  and  N_3 
REMARK    2  A    between atoms: N_3  and  C_5 
REMARK    3  A    between atoms: N_3  and  C_35 
REMARK    4  A    between atoms: C_5  and  C_6 
REMARK    5  A    between atoms: C_6  and  C_7 
REMARK    6  A    between atoms: C_7  and  N_8 
REMARK    7  A    between atoms: N_8  and  C_9 
REMARK    8  A    between atoms: N_8  and  C_19 
REMARK    9  A    between atoms: C_9  and  N_10 
REMARK   10  A    between atoms: N_10  and  C_11 
REMARK   11  A    between atoms: C_19  and  C_20 
ROOT
HETATM    1  N   UNL     1      25.706  44.851  51.999  1.00  0.00    -0.255 NA
ENDROOT
BRANCH   1   2
HETATM    2  C   UNL     1      26.338  44.288  53.208  1.00  0.00     0.100 C 
BRANCH   2   3
HETATM    3  C   UNL     1      27.843  43.975  53.111  1.00  0.00     0.042 C 
BRANCH   3   4
HETATM    4  C   UNL     1      28.334  43.114  54.269  1.00  0.00     0.236 C 
BRANCH   4   5
HETATM    5  N   UNL     1      29.265  43.861  55.221  1.00  0.00    -0.072 N 
HETATM    6  H   UNL     1      28.896  43.660  56.161  1.00  0.00     0.279 HD
BRANCH   5   7
HETATM    7  C   UNL     1      29.218  45.376  55.089  1.00  0.00     0.230 C 
HETATM    8  C   UNL     1      28.463  46.012  56.241  1.00  0.00     0.034 C 
ENDBRANCH   5   7
BRANCH   5   9
HETATM    9  C   UNL     1      30.702  43.372  55.248  1.00  0.00     0.230 C 
HETATM   10  C   UNL     1      31.337  43.570  56.613  1.00  0.00     0.034 C 
ENDBRANCH   5   9
ENDBRANCH   4   5
ENDBRANCH   3   4
ENDBRANCH   2   3
ENDBRANCH   1   2
BRANCH   1  11
HETATM   11  C   UNL     1      25.495  46.222  51.969  1.00  0.00     0.153 C 
HETATM   12  S   UNL     1      25.852  47.268  53.238  1.00  0.00    -0.047 SA
BRANCH  11  13
HETATM   13  N   UNL     1      24.997  46.789  50.835  1.00  0.00    -0.338 N 
HETATM   14  H   UNL     1      24.147  46.319  50.535  1.00  0.00     0.168 HD
BRANCH  13  15
HETATM   15  C   UNL     1      25.450  47.804  49.966  1.00  0.00     0.035 A 
HETATM   16  C   UNL     1      24.455  48.566  49.337  1.00  0.00     0.053 A 
HETATM   17  C   UNL     1      24.796  49.606  48.472  1.00  0.00     0.036 A 
HETATM   18 CL   UNL     1      23.554  50.541  47.736  1.00  0.00    -0.084 Cl
HETATM   19  C   UNL     1      26.129  49.898  48.211  1.00  0.00     0.024 A 
HETATM   20  C   UNL     1      27.125  49.138  48.821  1.00  0.00     0.004 A 
HETATM   21  C   UNL     1      26.787  48.097  49.694  1.00  0.00     0.029 A 
ENDBRANCH  13  15
ENDBRANCH  11  13
ENDBRANCH   1  11
BRANCH   1  22
HETATM   22  C   UNL     1      24.533  44.083  51.507  1.00  0.00     0.142 C 
BRANCH  22  23
HETATM   23  C   UNL     1      24.848  43.097  50.420  1.00  0.00     0.024 A 
HETATM   24  C   UNL     1      24.718  43.600  49.015  1.00  0.00     0.253 A 
HETATM   25  O   UNL     1      24.202  44.687  48.768  1.00  0.00    -0.268 OA
HETATM   26  N   UNL     1      25.179  42.792  48.013  1.00  0.00    -0.322 N 
HETATM   27  C   UNL     1      25.731  41.526  48.228  1.00  0.00     0.048 A 
HETATM   28  H   UNL     1      25.107  43.161  47.073  1.00  0.00     0.169 HD
HETATM   29  C   UNL     1      25.817  41.031  49.537  1.00  0.00    -0.006 A 
HETATM   30  C   UNL     1      26.198  40.784  47.144  1.00  0.00     0.070 A 
HETATM   31  C   UNL     1      26.365  39.764  49.754  1.00  0.00     0.053 A 
HETATM   32  C   UNL     1      25.368  41.877  50.646  1.00  0.00     0.027 A 
HETATM   33  C   UNL     1      26.828  39.013  48.672  1.00  0.00     0.103 A 
HETATM   34  C   UNL     1      26.767  39.534  47.373  1.00  0.00     0.104 A 
HETATM   35  O   UNL     1      27.349  37.777  48.958  1.00  0.00    -0.346 OA
HETATM   36  O   UNL     1      27.250  38.870  46.274  1.00  0.00    -0.346 OA
HETATM   37  C   UNL     1      28.136  37.811  46.656  1.00  0.00     0.202 C 
HETATM   38  C   UNL     1      27.522  36.985  47.775  1.00  0.00     0.202 C 
ENDBRANCH  22  23
ENDBRANCH   1  22
TORSDOF 11
ENDMDL
MODEL 7
REMARK VINA RESULT:      -8.0      3.420      8.068
REMARK  11 active torsions:
REMARK  status: ('A' for Active; 'I' for Inactive)
REMARK    1  A    between atoms: C_2  and  N_3 
REMARK    2  A    between atoms: N_3  and  C_5 
REMARK    3  A    between atoms: N_3  and  C_35 
REMARK    4  A    between atoms: C_5  and  C_6 
REMARK    5  A    between atoms: C_6  and  C_7 
REMARK    6  A    between atoms: C_7  and  N_8 
REMARK    7  A    between atoms: N_8  and  C_9 
REMARK    8  A    between atoms: N_8  and  C_19 
REMARK    9  A    between atoms: C_9  and  N_10 
REMARK   10  A    between atoms: N_10  and  C_11 
REMARK   11  A    between atoms: C_19  and  C_20 
ROOT
HETATM    1  N   UNL     1      25.551  46.224  51.359  1.00  0.00    -0.255 NA
ENDROOT
BRANCH   1   2
HETATM    2  C   UNL     1      25.555  46.785  52.724  1.00  0.00     0.100 C 
BRANCH   2   3
HETATM    3  C   UNL     1      26.859  46.623  53.528  1.00  0.00     0.042 C 
BRANCH   3   4
HETATM    4  C   UNL     1      27.271  45.163  53.681  1.00  0.00     0.236 C 
BRANCH   4   5
HETATM    5  N   UNL     1      28.613  44.988  54.387  1.00  0.00    -0.072 N 
HETATM    6  H   UNL     1      29.301  45.423  53.756  1.00  0.00     0.279 HD
BRANCH   5   7
HETATM    7  C   UNL     1      29.064  43.542  54.535  1.00  0.00     0.230 C 
HETATM    8  C   UNL     1      29.830  43.071  53.314  1.00  0.00     0.034 C 
ENDBRANCH   5   7
BRANCH   5   9
HETATM    9  C   UNL     1      28.761  45.731  55.704  1.00  0.00     0.230 C 
HETATM   10  C   UNL     1      30.189  45.685  56.216  1.00  0.00     0.034 C 
ENDBRANCH   5   9
ENDBRANCH   4   5
ENDBRANCH   3   4
ENDBRANCH   2   3
ENDBRANCH   1   2
BRANCH   1  11
HETATM   11  C   UNL     1      25.541  47.121  50.302  1.00  0.00     0.153 C 
HETATM   12  S   UNL     1      26.872  48.023  49.804  1.00  0.00    -0.047 SA
BRANCH  11  13
HETATM   13  N   UNL     1      24.397  47.277  49.579  1.00  0.00    -0.338 N 
HETATM   14  H   UNL     1      23.993  46.376  49.336  1.00  0.00     0.168 HD
BRANCH  13  15
HETATM   15  C   UNL     1      23.724  48.392  49.037  1.00  0.00     0.035 A 
HETATM   16  C   UNL     1      22.322  48.339  49.064  1.00  0.00     0.053 A 
HETATM   17  C   UNL     1      21.561  49.398  48.569  1.00  0.00     0.036 A 
HETATM   18 CL   UNL     1      19.845  49.318  48.640  1.00  0.00    -0.084 Cl
HETATM   19  C   UNL     1      22.180  50.520  48.030  1.00  0.00     0.024 A 
HETATM   20  C   UNL     1      23.571  50.577  47.987  1.00  0.00     0.004 A 
HETATM   21  C   UNL     1      24.339  49.518  48.488  1.00  0.00     0.029 A 
ENDBRANCH  13  15
ENDBRANCH  11  13
ENDBRANCH   1  11
BRANCH   1  22
HETATM   22  C   UNL     1      24.602  45.099  51.162  1.00  0.00     0.142 C 
BRANCH  22  23
HETATM   23  C   UNL     1      25.210  43.873  50.545  1.00  0.00     0.024 A 
HETATM   24  C   UNL     1      25.021  43.713  49.068  1.00  0.00     0.253 A 
HETATM   25  O   UNL     1      24.253  44.437  48.439  1.00  0.00    -0.268 OA
HETATM   26  N   UNL     1      25.720  42.716  48.449  1.00  0.00    -0.322 N 
HETATM   27  C   UNL     1      26.569  41.831  49.120  1.00  0.00     0.048 A 
HETATM   28  H   UNL     1      25.600  42.641  47.446  1.00  0.00     0.169 HD
HETATM   29  C   UNL     1      26.719  41.947  50.509  1.00  0.00    -0.006 A 
HETATM   30  C   UNL     1      27.262  40.859  48.398  1.00  0.00     0.070 A 
HETATM   31  C   UNL     1      27.565  41.060  51.182  1.00  0.00     0.053 A 
HETATM   32  C   UNL     1      26.016  43.025  51.210  1.00  0.00     0.027 A 
HETATM   33  C   UNL     1      28.255  40.081  50.466  1.00  0.00     0.103 A 
HETATM   34  C   UNL     1      28.122  39.998  49.074  1.00  0.00     0.104 A 
HETATM   35  O   UNL     1      29.063  39.243  51.191  1.00  0.00    -0.346 OA
HETATM   36  O   UNL     1      28.810  39.093  48.307  1.00  0.00    -0.346 OA
HETATM   37  C   UNL     1      29.921  38.542  49.025  1.00  0.00     0.202 C 
HETATM   38  C   UNL     1      29.489  38.113  50.418  1.00  0.00     0.202 C 
ENDBRANCH  22  23
ENDBRANCH   1  22
TORSDOF 11
ENDMDL
MODEL 8
REMARK VINA RESULT:      -8.0     11.873     13.294
REMARK  11 active torsions:
REMARK  status: ('A' for Active; 'I' for Inactive)
REMARK    1  A    between atoms: C_2  and  N_3 
REMARK    2  A    between atoms: N_3  and  C_5 
REMARK    3  A    between atoms: N_3  and  C_35 
REMARK    4  A    between atoms: C_5  and  C_6 
REMARK    5  A    between atoms: C_6  and  C_7 
REMARK    6  A    between atoms: C_7  and  N_8 
REMARK    7  A    between atoms: N_8  and  C_9 
REMARK    8  A    between atoms: N_8  and  C_19 
REMARK    9  A    between atoms: C_9  and  N_10 
REMARK   10  A    between atoms: N_10  and  C_11 
REMARK   11  A    between atoms: C_19  and  C_20 
ROOT
HETATM    1  N   UNL     1      28.500  49.573  40.679  1.00  0.00    -0.255 NA
ENDROOT
BRANCH   1   2
HETATM    2  C   UNL     1      27.656  50.632  41.266  1.00  0.00     0.100 C 
BRANCH   2   3
HETATM    3  C   UNL     1      28.248  52.053  41.277  1.00  0.00     0.042 C 
BRANCH   3   4
HETATM    4  C   UNL     1      28.829  52.453  39.925  1.00  0.00     0.236 C 
BRANCH   4   5
HETATM    5  N   UNL     1      30.224  51.888  39.679  1.00  0.00    -0.072 N 
HETATM    6  H   UNL     1      30.299  51.084  40.317  1.00  0.00     0.279 HD
BRANCH   5   7
HETATM    7  C   UNL     1      31.361  52.820  40.074  1.00  0.00     0.230 C 
HETATM    8  C   UNL     1      31.010  53.635  41.304  1.00  0.00     0.034 C 
ENDBRANCH   5   7
BRANCH   5   9
HETATM    9  C   UNL     1      30.462  51.314  38.293  1.00  0.00     0.230 C 
HETATM   10  C   UNL     1      31.905  50.882  38.104  1.00  0.00     0.034 C 
ENDBRANCH   5   9
ENDBRANCH   4   5
ENDBRANCH   3   4
ENDBRANCH   2   3
ENDBRANCH   1   2
BRANCH   1  11
HETATM   11  C   UNL     1      27.959  48.830  39.640  1.00  0.00     0.153 C 
HETATM   12  S   UNL     1      27.058  49.476  38.374  1.00  0.00    -0.047 SA
BRANCH  11  13
HETATM   13  N   UNL     1      28.186  47.487  39.601  1.00  0.00    -0.338 N 
HETATM   14  H   UNL     1      29.155  47.287  39.370  1.00  0.00     0.168 HD
BRANCH  13  15
HETATM   15  C   UNL     1      27.361  46.349  39.723  1.00  0.00     0.035 A 
HETATM   16  C   UNL     1      26.981  46.000  41.027  1.00  0.00     0.053 A 
HETATM   17  C   UNL     1      26.152  44.901  41.256  1.00  0.00     0.036 A 
HETATM   18 CL   UNL     1      25.680  44.513  42.864  1.00  0.00    -0.084 Cl
HETATM   19  C   UNL     1      25.696  44.129  40.195  1.00  0.00     0.024 A 
HETATM   20  C   UNL     1      26.078  44.460  38.896  1.00  0.00     0.004 A 
HETATM   21  C   UNL     1      26.906  45.564  38.662  1.00  0.00     0.029 A 
ENDBRANCH  13  15
ENDBRANCH  11  13
ENDBRANCH   1  11
BRANCH   1  22
HETATM   22  C   UNL     1      29.206  48.729  41.676  1.00  0.00     0.142 C 
BRANCH  22  23
HETATM   23  C   UNL     1      30.677  49.005  41.793  1.00  0.00     0.024 A 
HETATM   24  C   UNL     1      31.565  48.267  40.838  1.00  0.00     0.253 A 
HETATM   25  O   UNL     1      31.134  47.354  40.138  1.00  0.00    -0.268 OA
HETATM   26  N   UNL     1      32.879  48.636  40.788  1.00  0.00    -0.322 N 
HETATM   27  C   UNL     1      33.437  49.634  41.594  1.00  0.00     0.048 A 
HETATM   28  H   UNL     1      33.457  48.145  40.117  1.00  0.00     0.169 HD
HETATM   29  C   UNL     1      32.622  50.299  42.520  1.00  0.00    -0.006 A 
HETATM   30  C   UNL     1      34.786  49.959  41.455  1.00  0.00     0.070 A 
HETATM   31  C   UNL     1      33.178  51.294  43.330  1.00  0.00     0.053 A 
HETATM   32  C   UNL     1      31.198  49.961  42.583  1.00  0.00     0.027 A 
HETATM   33  C   UNL     1      34.530  51.619  43.200  1.00  0.00     0.103 A 
HETATM   34  C   UNL     1      35.324  50.970  42.246  1.00  0.00     0.104 A 
HETATM   35  O   UNL     1      35.008  52.601  44.029  1.00  0.00    -0.346 OA
HETATM   36  O   UNL     1      36.644  51.277  42.034  1.00  0.00    -0.346 OA
HETATM   37  C   UNL     1      36.978  52.549  42.602  1.00  0.00     0.202 C 
HETATM   38  C   UNL     1      36.442  52.653  44.020  1.00  0.00     0.202 C 
ENDBRANCH  22  23
ENDBRANCH   1  22
TORSDOF 11
ENDMDL
MODEL 9
REMARK VINA RESULT:      -7.9     12.165     13.756
REMARK  11 active torsions:
REMARK  status: ('A' for Active; 'I' for Inactive)
REMARK    1  A    between atoms: C_2  and  N_3 
REMARK    2  A    between atoms: N_3  and  C_5 
REMARK    3  A    between atoms: N_3  and  C_35 
REMARK    4  A    between atoms: C_5  and  C_6 
REMARK    5  A    between atoms: C_6  and  C_7 
REMARK    6  A    between atoms: C_7  and  N_8 
REMARK    7  A    between atoms: N_8  and  C_9 
REMARK    8  A    between atoms: N_8  and  C_19 
REMARK    9  A    between atoms: C_9  and  N_10 
REMARK   10  A    between atoms: N_10  and  C_11 
REMARK   11  A    between atoms: C_19  and  C_20 
ROOT
HETATM    1  N   UNL     1      28.538  49.354  40.826  1.00  0.00    -0.255 NA
ENDROOT
BRANCH   1   2
HETATM    2  C   UNL     1      27.768  50.496  41.357  1.00  0.00     0.100 C 
BRANCH   2   3
HETATM    3  C   UNL     1      28.527  51.828  41.496  1.00  0.00     0.042 C 
BRANCH   3   4
HETATM    4  C   UNL     1      29.042  52.348  40.159  1.00  0.00     0.236 C 
BRANCH   4   5
HETATM    5  N   UNL     1      30.465  51.894  39.846  1.00  0.00    -0.072 N 
HETATM    6  H   UNL     1      30.605  51.052  40.421  1.00  0.00     0.279 HD
BRANCH   5   7
HETATM    7  C   UNL     1      31.549  52.866  40.289  1.00  0.00     0.230 C 
HETATM    8  C   UNL     1      30.959  54.187  40.745  1.00  0.00     0.034 C 
ENDBRANCH   5   7
BRANCH   5   9
HETATM    9  C   UNL     1      30.707  51.441  38.417  1.00  0.00     0.230 C 
HETATM   10  C   UNL     1      32.164  51.086  38.180  1.00  0.00     0.034 C 
ENDBRANCH   5   9
ENDBRANCH   4   5
ENDBRANCH   3   4
ENDBRANCH   2   3
ENDBRANCH   1   2
BRANCH   1  11
HETATM   11  C   UNL     1      27.901  48.523  39.917  1.00  0.00     0.153 C 
HETATM   12  S   UNL     1      28.280  48.434  38.280  1.00  0.00    -0.047 SA
BRANCH  11  13
HETATM   13  N   UNL     1      26.919  47.689  40.360  1.00  0.00    -0.338 N 
HETATM   14  H   UNL     1      27.312  46.821  40.717  1.00  0.00     0.168 HD
BRANCH  13  15
HETATM   15  C   UNL     1      25.510  47.737  40.345  1.00  0.00     0.035 A 
HETATM   16  C   UNL     1      24.936  48.729  39.535  1.00  0.00     0.053 A 
HETATM   17  C   UNL     1      23.550  48.852  39.436  1.00  0.00     0.036 A 
HETATM   18 CL   UNL     1      22.874  50.060  38.415  1.00  0.00    -0.084 Cl
HETATM   19  C   UNL     1      22.714  47.998  40.146  1.00  0.00     0.024 A 
HETATM   20  C   UNL     1      23.273  47.018  40.962  1.00  0.00     0.004 A 
HETATM   21  C   UNL     1      24.665  46.889  41.061  1.00  0.00     0.029 A 
ENDBRANCH  13  15
ENDBRANCH  11  13
ENDBRANCH   1  11
BRANCH   1  22
HETATM   22  C   UNL     1      29.299  48.598  41.854  1.00  0.00     0.142 C 
BRANCH  22  23
HETATM   23  C   UNL     1      30.766  48.914  41.899  1.00  0.00     0.024 A 
HETATM   24  C   UNL     1      31.623  48.215  40.889  1.00  0.00     0.253 A 
HETATM   25  O   UNL     1      31.183  47.300  40.198  1.00  0.00    -0.268 OA
HETATM   26  N   UNL     1      32.922  48.623  40.778  1.00  0.00    -0.322 N 
HETATM   27  C   UNL     1      33.492  49.625  41.569  1.00  0.00     0.048 A 
HETATM   28  H   UNL     1      33.479  48.158  40.071  1.00  0.00     0.169 HD
HETATM   29  C   UNL     1      32.708  50.254  42.546  1.00  0.00    -0.006 A 
HETATM   30  C   UNL     1      34.823  49.991  41.367  1.00  0.00     0.070 A 
HETATM   31  C   UNL     1      33.277  51.253  43.341  1.00  0.00     0.053 A 
HETATM   32  C   UNL     1      31.299  49.874  42.676  1.00  0.00     0.027 A 
HETATM   33  C   UNL     1      34.610  51.619  43.147  1.00  0.00     0.103 A 
HETATM   34  C   UNL     1      35.372  51.006  42.145  1.00  0.00     0.104 A 
HETATM   35  O   UNL     1      35.103  52.603  43.966  1.00  0.00    -0.346 OA
HETATM   36  O   UNL     1      36.670  51.354  41.870  1.00  0.00    -0.346 OA
HETATM   37  C   UNL     1      36.997  52.628  42.439  1.00  0.00     0.202 C 
HETATM   38  C   UNL     1      36.532  52.697  43.884  1.00  0.00     0.202 C 
ENDBRANCH  22  23
ENDBRANCH   1  22
TORSDOF 11
ENDMDL
MODEL 10
REMARK VINA RESULT:      -7.9      3.372      7.867
REMARK  11 active torsions:
REMARK  status: ('A' for Active; 'I' for Inactive)
REMARK    1  A    between atoms: C_2  and  N_3 
REMARK    2  A    between atoms: N_3  and  C_5 
REMARK    3  A    between atoms: N_3  and  C_35 
REMARK    4  A    between atoms: C_5  and  C_6 
REMARK    5  A    between atoms: C_6  and  C_7 
REMARK    6  A    between atoms: C_7  and  N_8 
REMARK    7  A    between atoms: N_8  and  C_9 
REMARK    8  A    between atoms: N_8  and  C_19 
REMARK    9  A    between atoms: C_9  and  N_10 
REMARK   10  A    between atoms: N_10  and  C_11 
REMARK   11  A    between atoms: C_19  and  C_20 
ROOT
HETATM    1  N   UNL     1      24.208  44.842  50.484  1.00  0.00    -0.255 NA
ENDROOT
BRANCH   1   2
HETATM    2  C   UNL     1      24.656  45.393  51.778  1.00  0.00     0.100 C 
BRANCH   2   3
HETATM    3  C   UNL     1      26.175  45.404  52.028  1.00  0.00     0.042 C 
BRANCH   3   4
HETATM    4  C   UNL     1      26.534  45.936  53.412  1.00  0.00     0.236 C 
BRANCH   4   5
HETATM    5  N   UNL     1      27.543  45.060  54.149  1.00  0.00    -0.072 N 
HETATM    6  H   UNL     1      27.012  44.648  54.930  1.00  0.00     0.279 HD
BRANCH   5   7
HETATM    7  C   UNL     1      28.685  45.826  54.801  1.00  0.00     0.230 C 
HETATM    8  C   UNL     1      28.509  45.913  56.306  1.00  0.00     0.034 C 
ENDBRANCH   5   7
BRANCH   5   9
HETATM    9  C   UNL     1      28.075  43.873  53.365  1.00  0.00     0.230 C 
HETATM   10  C   UNL     1      27.677  42.554  54.004  1.00  0.00     0.034 C 
ENDBRANCH   5   9
ENDBRANCH   4   5
ENDBRANCH   3   4
ENDBRANCH   2   3
ENDBRANCH   1   2
BRANCH   1  11
HETATM   11  C   UNL     1      23.629  45.723  49.583  1.00  0.00     0.153 C 
HETATM   12  S   UNL     1      22.812  45.259  48.187  1.00  0.00    -0.047 SA
BRANCH  11  13
HETATM   13  N   UNL     1      23.683  47.060  49.840  1.00  0.00    -0.338 N 
HETATM   14  H   UNL     1      23.046  47.313  50.591  1.00  0.00     0.168 HD
BRANCH  13  15
HETATM   15  C   UNL     1      24.351  48.148  49.239  1.00  0.00     0.035 A 
HETATM   16  C   UNL     1      25.734  48.220  49.461  1.00  0.00     0.053 A 
HETATM   17  C   UNL     1      26.492  49.247  48.897  1.00  0.00     0.036 A 
HETATM   18 CL   UNL     1      28.190  49.295  49.164  1.00  0.00    -0.084 Cl
HETATM   19  C   UNL     1      25.886  50.222  48.113  1.00  0.00     0.024 A 
HETATM   20  C   UNL     1      24.511  50.166  47.897  1.00  0.00     0.004 A 
HETATM   21  C   UNL     1      23.748  49.134  48.458  1.00  0.00     0.029 A 
ENDBRANCH  13  15
ENDBRANCH  11  13
ENDBRANCH   1  11
BRANCH   1  22
HETATM   22  C   UNL     1      23.463  43.561  50.588  1.00  0.00     0.142 C 
BRANCH  22  23
HETATM   23  C   UNL     1      24.257  42.347  50.204  1.00  0.00     0.024 A 
HETATM   24  C   UNL     1      23.785  41.607  48.990  1.00  0.00     0.253 A 
HETATM   25  O   UNL     1      22.706  41.865  48.461  1.00  0.00    -0.268 OA
HETATM   26  N   UNL     1      24.591  40.617  48.504  1.00  0.00    -0.322 N 
HETATM   27  C   UNL     1      25.805  40.245  49.091  1.00  0.00     0.048 A 
HETATM   28  H   UNL     1      24.268  40.146  47.668  1.00  0.00     0.169 HD
HETATM   29  C   UNL     1      26.233  40.905  50.252  1.00  0.00    -0.006 A 
HETATM   30  C   UNL     1      26.574  39.238  48.509  1.00  0.00     0.070 A 
HETATM   31  C   UNL     1      27.444  40.532  50.843  1.00  0.00     0.053 A 
HETATM   32  C   UNL     1      25.417  41.998  50.788  1.00  0.00     0.027 A 
HETATM   33  C   UNL     1      28.214  39.520  50.268  1.00  0.00     0.103 A 
HETATM   34  C   UNL     1      27.791  38.893  49.089  1.00  0.00     0.104 A 
HETATM   35  O   UNL     1      29.387  39.204  50.904  1.00  0.00    -0.346 OA
HETATM   36  O   UNL     1      28.524  37.928  48.447  1.00  0.00    -0.346 OA
HETATM   37  C   UNL     1      29.886  37.930  48.891  1.00  0.00     0.202 C 
HETATM   38  C   UNL     1      29.947  37.979  50.409  1.00  0.00     0.202 C 
ENDBRANCH  22  23
ENDBRANCH   1  22
TORSDOF 11
ENDMDL
