MODEL 1
REMARK VINA RESULT:      -9.6      0.000      0.000
REMARK  7 active torsions:
REMARK  status: ('A' for Active; 'I' for Inactive)
REMARK    1  A    between atoms: S_2  and  C_3 
REMARK    2  A    between atoms: C_3  and  C_4 
REMARK    3  A    between atoms: C_4  and  C_5 
REMARK    4  A    between atoms: C_5  and  N_6 
REMARK    5  A    between atoms: C_5  and  C_26 
REMARK       I    between atoms: N_6  and  C_7 
REMARK    6  A    between atoms: C_7  and  C_8 
REMARK    7  A    between atoms: C_8  and  N_9 
ROOT
HETATM    1  N   UNL     1      23.178  46.953  49.515  1.00  0.00    -0.348 N 
HETATM    2  C   UNL     1      24.140  46.601  50.438  1.00  0.00     0.236 C 
HETATM    3  O   UNL     1      24.715  47.402  51.164  1.00  0.00    -0.272 OA
HETATM    4  H   UNL     1      23.053  46.287  48.756  1.00  0.00     0.163 HD
ENDROOT
BRANCH   2   5
HETATM    5  C   UNL     1      24.465  45.106  50.411  1.00  0.00     0.239 C 
BRANCH   5   6
HETATM    6  N   UNL     1      25.739  44.859  51.054  1.00  0.00    -0.259 N 
HETATM    7  C   UNL     1      26.941  44.874  50.416  1.00  0.00     0.326 C 
HETATM    8  O   UNL     1      27.141  45.115  49.233  1.00  0.00    -0.247 OA
HETATM    9  N   UNL     1      27.923  44.560  51.318  1.00  0.00    -0.320 N 
HETATM   10  C   UNL     1      27.378  44.040  52.557  1.00  0.00     0.144 C 
HETATM   11  H   UNL     1      28.898  44.504  51.052  1.00  0.00     0.165 HD
HETATM   12  C   UNL     1      27.996  44.725  53.761  1.00  0.00    -0.014 A 
HETATM   13  C   UNL     1      27.536  42.508  52.590  1.00  0.00     0.047 C 
HETATM   14  C   UNL     1      25.881  44.354  52.321  1.00  0.00     0.261 C 
HETATM   15  C   UNL     1      28.958  44.061  54.553  1.00  0.00    -0.049 A 
HETATM   16  C   UNL     1      27.645  46.047  54.097  1.00  0.00     0.011 A 
HETATM   17  C   UNL     1      29.508  44.709  55.670  1.00  0.00     0.007 A 
HETATM   18  C   UNL     1      29.369  42.630  54.291  1.00  0.00     0.039 C 
HETATM   19  C   UNL     1      29.132  46.009  55.998  1.00  0.00     0.001 A 
HETATM   20  C   UNL     1      28.203  46.678  55.210  1.00  0.00     0.001 A 
HETATM   21  C   UNL     1      28.976  42.123  52.908  1.00  0.00     0.008 C 
HETATM   22  O   UNL     1      24.967  44.107  53.096  1.00  0.00    -0.270 OA
ENDBRANCH   5   6
ENDBRANCH   2   5
BRANCH   1  23
HETATM   23  C   UNL     1      22.787  48.330  49.257  1.00  0.00     0.155 C 
BRANCH  23  24
HETATM   24  C   UNL     1      23.672  48.983  48.181  1.00  0.00     0.043 C 
BRANCH  24  25
HETATM   25  C   UNL     1      24.589  50.058  48.768  1.00  0.00     0.076 C 
BRANCH  25  26
HETATM   26  S   UNL     1      26.238  49.963  47.997  1.00  0.00    -0.173 SA
HETATM   27  C   UNL     1      26.996  48.785  49.142  1.00  0.00     0.089 C 
ENDBRANCH  25  26
ENDBRANCH  24  25
ENDBRANCH  23  24
BRANCH  23  28
HETATM   28  C   UNL     1      21.339  48.323  48.842  1.00  0.00     0.128 A 
HETATM   29  N   UNL     1      20.736  49.222  48.088  1.00  0.00    -0.231 NA
HETATM   30  C   UNL     1      19.444  48.781  47.939  1.00  0.00     0.085 A 
HETATM   31  C   UNL     1      19.249  47.581  48.613  1.00  0.00     0.062 A 
HETATM   32  C   UNL     1      18.375  49.352  47.234  1.00  0.00     0.034 A 
HETATM   33  N   UNL     1      20.470  47.303  49.166  1.00  0.00    -0.341 N 
HETATM   34  C   UNL     1      18.028  46.906  48.639  1.00  0.00     0.032 A 
HETATM   35  H   UNL     1      20.699  46.485  49.717  1.00  0.00     0.167 HD
HETATM   36  C   UNL     1      16.971  47.492  47.932  1.00  0.00     0.002 A 
HETATM   37  C   UNL     1      17.139  48.693  47.238  1.00  0.00     0.002 A 
ENDBRANCH  23  28
ENDBRANCH   1  23
TORSDOF 7
ENDMDL
MODEL 2
REMARK VINA RESULT:      -9.4      3.707      7.336
REMARK  7 active torsions:
REMARK  status: ('A' for Active; 'I' for Inactive)
REMARK    1  A    between atoms: S_2  and  C_3 
REMARK    2  A    between atoms: C_3  and  C_4 
REMARK    3  A    between atoms: C_4  and  C_5 
REMARK    4  A    between atoms: C_5  and  N_6 
REMARK    5  A    between atoms: C_5  and  C_26 
REMARK       I    between atoms: N_6  and  C_7 
REMARK    6  A    between atoms: C_7  and  C_8 
REMARK    7  A    between atoms: C_8  and  N_9 
ROOT
HETATM    1  N   UNL     1      24.869  42.741  49.759  1.00  0.00    -0.348 N 
HETATM    2  C   UNL     1      23.904  43.419  50.473  1.00  0.00     0.236 C 
HETATM    3  O   UNL     1      22.762  43.010  50.638  1.00  0.00    -0.272 OA
HETATM    4  H   UNL     1      25.619  43.324  49.397  1.00  0.00     0.163 HD
ENDROOT
BRANCH   2   5
HETATM    5  C   UNL     1      24.392  44.777  50.980  1.00  0.00     0.239 C 
BRANCH   5   6
HETATM    6  N   UNL     1      25.719  44.651  51.549  1.00  0.00    -0.259 N 
HETATM    7  C   UNL     1      26.875  44.734  50.837  1.00  0.00     0.326 C 
HETATM    8  O   UNL     1      26.984  44.948  49.637  1.00  0.00    -0.247 OA
HETATM    9  N   UNL     1      27.931  44.528  51.685  1.00  0.00    -0.320 N 
HETATM   10  C   UNL     1      27.503  44.012  52.971  1.00  0.00     0.144 C 
HETATM   11  H   UNL     1      28.889  44.537  51.360  1.00  0.00     0.165 HD
HETATM   12  C   UNL     1      28.137  44.785  54.112  1.00  0.00    -0.014 A 
HETATM   13  C   UNL     1      27.782  42.498  53.041  1.00  0.00     0.047 C 
HETATM   14  C   UNL     1      25.975  44.203  52.820  1.00  0.00     0.261 C 
HETATM   15  C   UNL     1      29.195  44.224  54.862  1.00  0.00    -0.049 A 
HETATM   16  C   UNL     1      27.705  46.087  54.429  1.00  0.00     0.011 A 
HETATM   17  C   UNL     1      29.759  44.951  55.923  1.00  0.00     0.007 A 
HETATM   18  C   UNL     1      29.699  42.820  54.619  1.00  0.00     0.039 C 
HETATM   19  C   UNL     1      29.302  46.229  56.233  1.00  0.00     0.001 A 
HETATM   20  C   UNL     1      28.279  46.798  55.485  1.00  0.00     0.001 A 
HETATM   21  C   UNL     1      29.265  42.236  53.279  1.00  0.00     0.008 C 
HETATM   22  O   UNL     1      25.131  43.915  53.658  1.00  0.00    -0.270 OA
ENDBRANCH   5   6
ENDBRANCH   2   5
BRANCH   1  23
HETATM   23  C   UNL     1      24.613  41.487  49.066  1.00  0.00     0.155 C 
BRANCH  23  24
HETATM   24  C   UNL     1      24.414  41.701  47.555  1.00  0.00     0.043 C 
BRANCH  24  25
HETATM   25  C   UNL     1      22.963  42.043  47.211  1.00  0.00     0.076 C 
BRANCH  25  26
HETATM   26  S   UNL     1      22.879  43.681  46.416  1.00  0.00    -0.173 SA
HETATM   27  C   UNL     1      21.752  44.483  47.584  1.00  0.00     0.089 C 
ENDBRANCH  25  26
ENDBRANCH  24  25
ENDBRANCH  23  24
BRANCH  23  28
HETATM   28  C   UNL     1      25.776  40.569  49.339  1.00  0.00     0.128 A 
HETATM   29  N   UNL     1      26.888  40.883  49.976  1.00  0.00    -0.231 NA
HETATM   30  C   UNL     1      27.630  39.729  50.026  1.00  0.00     0.085 A 
HETATM   31  C   UNL     1      26.958  38.680  49.411  1.00  0.00     0.062 A 
HETATM   32  C   UNL     1      28.893  39.496  50.589  1.00  0.00     0.034 A 
HETATM   33  N   UNL     1      25.776  39.235  48.996  1.00  0.00    -0.341 N 
HETATM   34  C   UNL     1      27.479  37.390  49.308  1.00  0.00     0.032 A 
HETATM   35  H   UNL     1      25.027  38.747  48.520  1.00  0.00     0.167 HD
HETATM   36  C   UNL     1      28.743  37.176  49.872  1.00  0.00     0.002 A 
HETATM   37  C   UNL     1      29.439  38.209  50.505  1.00  0.00     0.002 A 
ENDBRANCH  23  28
ENDBRANCH   1  23
TORSDOF 7
ENDMDL
MODEL 3
REMARK VINA RESULT:      -9.3      2.533      3.737
REMARK  7 active torsions:
REMARK  status: ('A' for Active; 'I' for Inactive)
REMARK    1  A    between atoms: S_2  and  C_3 
REMARK    2  A    between atoms: C_3  and  C_4 
REMARK    3  A    between atoms: C_4  and  C_5 
REMARK    4  A    between atoms: C_5  and  N_6 
REMARK    5  A    between atoms: C_5  and  C_26 
REMARK       I    between atoms: N_6  and  C_7 
REMARK    6  A    between atoms: C_7  and  C_8 
REMARK    7  A    between atoms: C_8  and  N_9 
ROOT
HETATM    1  N   UNL     1      23.366  47.109  49.665  1.00  0.00    -0.348 N 
HETATM    2  C   UNL     1      24.456  47.871  50.029  1.00  0.00     0.236 C 
HETATM    3  O   UNL     1      24.854  48.841  49.396  1.00  0.00    -0.272 OA
HETATM    4  H   UNL     1      23.363  46.164  50.040  1.00  0.00     0.163 HD
ENDROOT
BRANCH   2   5
HETATM    5  C   UNL     1      25.163  47.332  51.274  1.00  0.00     0.239 C 
BRANCH   5   6
HETATM    6  N   UNL     1      25.825  46.079  50.970  1.00  0.00    -0.259 N 
HETATM    7  C   UNL     1      26.752  45.915  49.988  1.00  0.00     0.326 C 
HETATM    8  O   UNL     1      27.187  46.777  49.238  1.00  0.00    -0.247 OA
HETATM    9  N   UNL     1      27.134  44.599  49.957  1.00  0.00    -0.320 N 
HETATM   10  C   UNL     1      26.253  43.759  50.747  1.00  0.00     0.144 C 
HETATM   11  H   UNL     1      27.811  44.253  49.292  1.00  0.00     0.165 HD
HETATM   12  C   UNL     1      27.042  42.842  51.662  1.00  0.00    -0.014 A 
HETATM   13  C   UNL     1      25.291  42.997  49.815  1.00  0.00     0.047 C 
HETATM   14  C   UNL     1      25.438  44.861  51.467  1.00  0.00     0.261 C 
HETATM   15  C   UNL     1      27.175  41.468  51.364  1.00  0.00    -0.049 A 
HETATM   16  C   UNL     1      27.681  43.346  52.811  1.00  0.00     0.011 A 
HETATM   17  C   UNL     1      27.899  40.634  52.231  1.00  0.00     0.007 A 
HETATM   18  C   UNL     1      26.494  40.831  50.174  1.00  0.00     0.039 C 
HETATM   19  C   UNL     1      28.507  41.149  53.374  1.00  0.00     0.001 A 
HETATM   20  C   UNL     1      28.400  42.504  53.662  1.00  0.00     0.001 A 
HETATM   21  C   UNL     1      26.008  41.836  49.136  1.00  0.00     0.008 C 
HETATM   22  O   UNL     1      24.537  44.672  52.272  1.00  0.00    -0.270 OA
ENDBRANCH   5   6
ENDBRANCH   2   5
BRANCH   1  23
HETATM   23  C   UNL     1      22.605  47.339  48.446  1.00  0.00     0.155 C 
BRANCH  23  24
HETATM   24  C   UNL     1      21.844  46.077  48.002  1.00  0.00     0.043 C 
BRANCH  24  25
HETATM   25  C   UNL     1      21.174  46.262  46.639  1.00  0.00     0.076 C 
BRANCH  25  26
HETATM   26  S   UNL     1      19.767  45.115  46.473  1.00  0.00    -0.173 SA
HETATM   27  C   UNL     1      19.072  45.310  48.133  1.00  0.00     0.089 C 
ENDBRANCH  25  26
ENDBRANCH  24  25
ENDBRANCH  23  24
BRANCH  23  28
HETATM   28  C   UNL     1      21.659  48.482  48.709  1.00  0.00     0.128 A 
HETATM   29  N   UNL     1      21.677  49.664  48.123  1.00  0.00    -0.231 NA
HETATM   30  C   UNL     1      20.611  50.356  48.640  1.00  0.00     0.085 A 
HETATM   31  C   UNL     1      19.918  49.581  49.562  1.00  0.00     0.062 A 
HETATM   32  C   UNL     1      20.164  51.656  48.366  1.00  0.00     0.034 A 
HETATM   33  N   UNL     1      20.593  48.390  49.578  1.00  0.00    -0.341 N 
HETATM   34  C   UNL     1      18.791  50.032  50.251  1.00  0.00     0.032 A 
HETATM   35  H   UNL     1      20.350  47.577  50.130  1.00  0.00     0.167 HD
HETATM   36  C   UNL     1      18.362  51.335  49.968  1.00  0.00     0.002 A 
HETATM   37  C   UNL     1      19.033  52.134  49.039  1.00  0.00     0.002 A 
ENDBRANCH  23  28
ENDBRANCH   1  23
TORSDOF 7
ENDMDL
MODEL 4
REMARK VINA RESULT:      -9.1      5.211      8.859
REMARK  7 active torsions:
REMARK  status: ('A' for Active; 'I' for Inactive)
REMARK    1  A    between atoms: S_2  and  C_3 
REMARK    2  A    between atoms: C_3  and  C_4 
REMARK    3  A    between atoms: C_4  and  C_5 
REMARK    4  A    between atoms: C_5  and  N_6 
REMARK    5  A    between atoms: C_5  and  C_26 
REMARK       I    between atoms: N_6  and  C_7 
REMARK    6  A    between atoms: C_7  and  C_8 
REMARK    7  A    between atoms: C_8  and  N_9 
ROOT
HETATM    1  N   UNL     1      26.598  41.883  47.693  1.00  0.00    -0.348 N 
HETATM    2  C   UNL     1      25.395  42.014  48.355  1.00  0.00     0.236 C 
HETATM    3  O   UNL     1      24.580  41.109  48.477  1.00  0.00    -0.272 OA
HETATM    4  H   UNL     1      26.995  42.756  47.355  1.00  0.00     0.163 HD
ENDROOT
BRANCH   2   5
HETATM    5  C   UNL     1      25.155  43.437  48.863  1.00  0.00     0.239 C 
BRANCH   5   6
HETATM    6  N   UNL     1      25.591  43.557  50.239  1.00  0.00    -0.259 N 
HETATM    7  C   UNL     1      24.851  43.184  51.319  1.00  0.00     0.326 C 
HETATM    8  O   UNL     1      23.738  42.676  51.306  1.00  0.00    -0.247 OA
HETATM    9  N   UNL     1      25.555  43.476  52.458  1.00  0.00    -0.320 N 
HETATM   10  C   UNL     1      26.696  44.329  52.188  1.00  0.00     0.144 C 
HETATM   11  H   UNL     1      25.184  43.289  53.380  1.00  0.00     0.165 HD
HETATM   12  C   UNL     1      27.952  43.793  52.849  1.00  0.00    -0.014 A 
HETATM   13  C   UNL     1      26.370  45.777  52.602  1.00  0.00     0.047 C 
HETATM   14  C   UNL     1      26.692  44.269  50.642  1.00  0.00     0.261 C 
HETATM   15  C   UNL     1      28.472  44.405  54.012  1.00  0.00    -0.049 A 
HETATM   16  C   UNL     1      28.609  42.659  52.335  1.00  0.00     0.011 A 
HETATM   17  C   UNL     1      29.642  43.900  54.600  1.00  0.00     0.007 A 
HETATM   18  C   UNL     1      27.856  45.647  54.613  1.00  0.00     0.039 C 
HETATM   19  C   UNL     1      30.289  42.790  54.063  1.00  0.00     0.001 A 
HETATM   20  C   UNL     1      29.771  42.168  52.933  1.00  0.00     0.001 A 
HETATM   21  C   UNL     1      26.442  45.932  54.117  1.00  0.00     0.008 C 
HETATM   22  O   UNL     1      27.483  44.839  49.902  1.00  0.00    -0.270 OA
ENDBRANCH   5   6
ENDBRANCH   2   5
BRANCH   1  23
HETATM   23  C   UNL     1      27.001  40.664  47.008  1.00  0.00     0.155 C 
BRANCH  23  24
HETATM   24  C   UNL     1      28.026  40.947  45.896  1.00  0.00     0.043 C 
BRANCH  24  25
HETATM   25  C   UNL     1      27.596  40.348  44.554  1.00  0.00     0.076 C 
BRANCH  25  26
HETATM   26  S   UNL     1      28.468  38.775  44.264  1.00  0.00    -0.173 SA
HETATM   27  C   UNL     1      27.154  37.646  44.788  1.00  0.00     0.089 C 
ENDBRANCH  25  26
ENDBRANCH  24  25
ENDBRANCH  23  24
BRANCH  23  28
HETATM   28  C   UNL     1      27.563  39.724  48.042  1.00  0.00     0.128 A 
HETATM   29  N   UNL     1      27.081  38.541  48.371  1.00  0.00    -0.231 NA
HETATM   30  C   UNL     1      27.939  38.035  49.315  1.00  0.00     0.085 A 
HETATM   31  C   UNL     1      28.975  38.924  49.570  1.00  0.00     0.062 A 
HETATM   32  C   UNL     1      27.901  36.812  50.000  1.00  0.00     0.034 A 
HETATM   33  N   UNL     1      28.723  39.983  48.740  1.00  0.00    -0.341 N 
HETATM   34  C   UNL     1      29.992  38.672  50.493  1.00  0.00     0.032 A 
HETATM   35  H   UNL     1      29.294  40.814  48.649  1.00  0.00     0.167 HD
HETATM   36  C   UNL     1      29.937  37.448  51.170  1.00  0.00     0.002 A 
HETATM   37  C   UNL     1      28.912  36.530  50.928  1.00  0.00     0.002 A 
ENDBRANCH  23  28
ENDBRANCH   1  23
TORSDOF 7
ENDMDL
MODEL 5
REMARK VINA RESULT:      -8.8      2.351      2.914
REMARK  7 active torsions:
REMARK  status: ('A' for Active; 'I' for Inactive)
REMARK    1  A    between atoms: S_2  and  C_3 
REMARK    2  A    between atoms: C_3  and  C_4 
REMARK    3  A    between atoms: C_4  and  C_5 
REMARK    4  A    between atoms: C_5  and  N_6 
REMARK    5  A    between atoms: C_5  and  C_26 
REMARK       I    between atoms: N_6  and  C_7 
REMARK    6  A    between atoms: C_7  and  C_8 
REMARK    7  A    between atoms: C_8  and  N_9 
ROOT
HETATM    1  N   UNL     1      22.836  45.134  48.649  1.00  0.00    -0.348 N 
HETATM    2  C   UNL     1      23.900  45.275  49.516  1.00  0.00     0.236 C 
HETATM    3  O   UNL     1      24.607  46.272  49.573  1.00  0.00    -0.272 OA
HETATM    4  H   UNL     1      22.576  44.172  48.447  1.00  0.00     0.163 HD
ENDROOT
BRANCH   2   5
HETATM    5  C   UNL     1      24.146  44.018  50.354  1.00  0.00     0.239 C 
BRANCH   5   6
HETATM    6  N   UNL     1      25.411  44.123  51.052  1.00  0.00    -0.259 N 
HETATM    7  C   UNL     1      26.631  44.086  50.448  1.00  0.00     0.326 C 
HETATM    8  O   UNL     1      26.853  43.987  49.250  1.00  0.00    -0.247 OA
HETATM    9  N   UNL     1      27.602  44.171  51.411  1.00  0.00    -0.320 N 
HETATM   10  C   UNL     1      27.064  43.982  52.745  1.00  0.00     0.144 C 
HETATM   11  H   UNL     1      28.587  44.151  51.182  1.00  0.00     0.165 HD
HETATM   12  C   UNL     1      27.552  45.060  53.693  1.00  0.00    -0.014 A 
HETATM   13  C   UNL     1      27.385  42.558  53.237  1.00  0.00     0.047 C 
HETATM   14  C   UNL     1      25.553  44.036  52.413  1.00  0.00     0.261 C 
HETATM   15  C   UNL     1      28.547  44.777  54.655  1.00  0.00    -0.049 A 
HETATM   16  C   UNL     1      27.047  46.372  53.615  1.00  0.00     0.011 A 
HETATM   17  C   UNL     1      28.976  45.786  55.532  1.00  0.00     0.007 A 
HETATM   18  C   UNL     1      29.121  43.391  54.837  1.00  0.00     0.039 C 
HETATM   19  C   UNL     1      28.447  47.073  55.452  1.00  0.00     0.001 A 
HETATM   20  C   UNL     1      27.486  47.366  54.492  1.00  0.00     0.001 A 
HETATM   21  C   UNL     1      28.844  42.454  53.666  1.00  0.00     0.008 C 
HETATM   22  O   UNL     1      24.639  43.926  53.220  1.00  0.00    -0.270 OA
ENDBRANCH   5   6
ENDBRANCH   2   5
BRANCH   1  23
HETATM   23  C   UNL     1      22.479  46.138  47.658  1.00  0.00     0.155 C 
BRANCH  23  24
HETATM   24  C   UNL     1      21.651  45.536  46.509  1.00  0.00     0.043 C 
BRANCH  24  25
HETATM   25  C   UNL     1      21.983  44.060  46.277  1.00  0.00     0.076 C 
BRANCH  25  26
HETATM   26  S   UNL     1      23.225  43.898  44.953  1.00  0.00    -0.173 SA
HETATM   27  C   UNL     1      23.781  42.215  45.319  1.00  0.00     0.089 C 
ENDBRANCH  25  26
ENDBRANCH  24  25
ENDBRANCH  23  24
BRANCH  23  28
HETATM   28  C   UNL     1      21.718  47.227  48.367  1.00  0.00     0.128 A 
HETATM   29  N   UNL     1      22.107  48.478  48.527  1.00  0.00    -0.231 NA
HETATM   30  C   UNL     1      21.081  49.109  49.185  1.00  0.00     0.085 A 
HETATM   31  C   UNL     1      20.034  48.229  49.431  1.00  0.00     0.062 A 
HETATM   32  C   UNL     1      20.967  50.442  49.605  1.00  0.00     0.034 A 
HETATM   33  N   UNL     1      20.456  47.044  48.889  1.00  0.00    -0.341 N 
HETATM   34  C   UNL     1      18.861  48.597  50.092  1.00  0.00     0.032 A 
HETATM   35  H   UNL     1      19.930  46.180  48.870  1.00  0.00     0.167 HD
HETATM   36  C   UNL     1      18.766  49.930  50.506  1.00  0.00     0.002 A 
HETATM   37  C   UNL     1      19.798  50.841  50.266  1.00  0.00     0.002 A 
ENDBRANCH  23  28
ENDBRANCH   1  23
TORSDOF 7
ENDMDL
MODEL 6
REMARK VINA RESULT:      -8.5     10.532     12.002
REMARK  7 active torsions:
REMARK  status: ('A' for Active; 'I' for Inactive)
REMARK    1  A    between atoms: S_2  and  C_3 
REMARK    2  A    between atoms: C_3  and  C_4 
REMARK    3  A    between atoms: C_4  and  C_5 
REMARK    4  A    between atoms: C_5  and  N_6 
REMARK    5  A    between atoms: C_5  and  C_26 
REMARK       I    between atoms: N_6  and  C_7 
REMARK    6  A    between atoms: C_7  and  C_8 
REMARK    7  A    between atoms: C_8  and  N_9 
ROOT
HETATM    1  N   UNL     1      25.530  50.075  38.935  1.00  0.00    -0.348 N 
HETATM    2  C   UNL     1      26.560  50.263  38.036  1.00  0.00     0.236 C 
HETATM    3  O   UNL     1      26.820  49.489  37.124  1.00  0.00    -0.272 OA
HETATM    4  H   UNL     1      25.644  50.562  39.820  1.00  0.00     0.163 HD
ENDROOT
BRANCH   2   5
HETATM    5  C   UNL     1      27.390  51.510  38.345  1.00  0.00     0.239 C 
BRANCH   5   6
HETATM    6  N   UNL     1      28.647  51.134  38.962  1.00  0.00    -0.259 N 
HETATM    7  C   UNL     1      29.840  51.080  38.309  1.00  0.00     0.326 C 
HETATM    8  O   UNL     1      30.048  51.354  37.136  1.00  0.00    -0.247 OA
HETATM    9  N   UNL     1      30.802  50.650  39.185  1.00  0.00    -0.320 N 
HETATM   10  C   UNL     1      30.227  50.123  40.408  1.00  0.00     0.144 C 
HETATM   11  H   UNL     1      31.766  50.527  38.906  1.00  0.00     0.165 HD
HETATM   12  C   UNL     1      30.909  50.704  41.632  1.00  0.00    -0.014 A 
HETATM   13  C   UNL     1      30.261  48.583  40.375  1.00  0.00     0.047 C 
HETATM   14  C   UNL     1      28.758  50.566  40.204  1.00  0.00     0.261 C 
HETATM   15  C   UNL     1      31.822  49.931  42.384  1.00  0.00    -0.049 A 
HETATM   16  C   UNL     1      30.669  52.034  42.028  1.00  0.00     0.011 A 
HETATM   17  C   UNL     1      32.433  50.484  43.520  1.00  0.00     0.007 A 
HETATM   18  C   UNL     1      32.114  48.485  42.056  1.00  0.00     0.039 C 
HETATM   19  C   UNL     1      32.165  51.796  43.907  1.00  0.00     0.001 A 
HETATM   20  C   UNL     1      31.287  52.570  43.159  1.00  0.00     0.001 A 
HETATM   21  C   UNL     1      31.669  48.071  40.658  1.00  0.00     0.008 C 
HETATM   22  O   UNL     1      27.834  50.360  40.980  1.00  0.00    -0.270 OA
ENDBRANCH   5   6
ENDBRANCH   2   5
BRANCH   1  23
HETATM   23  C   UNL     1      24.678  48.896  38.933  1.00  0.00     0.155 C 
BRANCH  23  24
HETATM   24  C   UNL     1      25.295  47.745  39.747  1.00  0.00     0.043 C 
BRANCH  24  25
HETATM   25  C   UNL     1      25.683  46.559  38.859  1.00  0.00     0.076 C 
BRANCH  25  26
HETATM   26  S   UNL     1      27.233  45.812  39.458  1.00  0.00    -0.173 SA
HETATM   27  C   UNL     1      26.998  46.102  41.229  1.00  0.00     0.089 C 
ENDBRANCH  25  26
ENDBRANCH  24  25
ENDBRANCH  23  24
BRANCH  23  28
HETATM   28  C   UNL     1      23.338  49.301  39.490  1.00  0.00     0.128 A 
HETATM   29  N   UNL     1      22.411  48.493  39.967  1.00  0.00    -0.231 NA
HETATM   30  C   UNL     1      21.393  49.305  40.401  1.00  0.00     0.085 A 
HETATM   31  C   UNL     1      21.702  50.644  40.191  1.00  0.00     0.062 A 
HETATM   32  C   UNL     1      20.167  48.971  40.995  1.00  0.00     0.034 A 
HETATM   33  N   UNL     1      22.949  50.617  39.625  1.00  0.00    -0.341 N 
HETATM   34  C   UNL     1      20.845  51.692  40.531  1.00  0.00     0.032 A 
HETATM   35  H   UNL     1      23.495  51.425  39.355  1.00  0.00     0.167 HD
HETATM   36  C   UNL     1      19.624  51.339  41.119  1.00  0.00     0.002 A 
HETATM   37  C   UNL     1      19.289  50.003  41.351  1.00  0.00     0.002 A 
ENDBRANCH  23  28
ENDBRANCH   1  23
TORSDOF 7
ENDMDL
MODEL 7
REMARK VINA RESULT:      -8.5      3.158      9.502
REMARK  7 active torsions:
REMARK  status: ('A' for Active; 'I' for Inactive)
REMARK    1  A    between atoms: S_2  and  C_3 
REMARK    2  A    between atoms: C_3  and  C_4 
REMARK    3  A    between atoms: C_4  and  C_5 
REMARK    4  A    between atoms: C_5  and  N_6 
REMARK    5  A    between atoms: C_5  and  C_26 
REMARK       I    between atoms: N_6  and  C_7 
REMARK    6  A    between atoms: C_7  and  C_8 
REMARK    7  A    between atoms: C_8  and  N_9 
ROOT
HETATM    1  N   UNL     1      26.356  42.790  52.683  1.00  0.00    -0.348 N 
HETATM    2  C   UNL     1      26.450  44.042  52.111  1.00  0.00     0.236 C 
HETATM    3  O   UNL     1      27.507  44.568  51.787  1.00  0.00    -0.272 OA
HETATM    4  H   UNL     1      25.508  42.630  53.220  1.00  0.00     0.163 HD
ENDROOT
BRANCH   2   5
HETATM    5  C   UNL     1      25.092  44.736  51.989  1.00  0.00     0.239 C 
BRANCH   5   6
HETATM    6  N   UNL     1      25.117  45.696  50.904  1.00  0.00    -0.259 N 
HETATM    7  C   UNL     1      25.388  45.386  49.607  1.00  0.00     0.326 C 
HETATM    8  O   UNL     1      25.624  44.276  49.151  1.00  0.00    -0.247 OA
HETATM    9  N   UNL     1      25.365  46.538  48.865  1.00  0.00    -0.320 N 
HETATM   10  C   UNL     1      25.354  47.723  49.701  1.00  0.00     0.144 C 
HETATM   11  H   UNL     1      25.552  46.539  47.871  1.00  0.00     0.165 HD
HETATM   12  C   UNL     1      24.281  48.700  49.256  1.00  0.00    -0.014 A 
HETATM   13  C   UNL     1      26.761  48.349  49.733  1.00  0.00     0.047 C 
HETATM   14  C   UNL     1      25.104  47.056  51.075  1.00  0.00     0.261 C 
HETATM   15  C   UNL     1      24.625  49.876  48.553  1.00  0.00    -0.049 A 
HETATM   16  C   UNL     1      22.921  48.441  49.510  1.00  0.00     0.011 A 
HETATM   17  C   UNL     1      23.618  50.772  48.162  1.00  0.00     0.007 A 
HETATM   18  C   UNL     1      26.060  50.255  48.269  1.00  0.00     0.039 C 
HETATM   19  C   UNL     1      22.279  50.508  48.441  1.00  0.00     0.001 A 
HETATM   20  C   UNL     1      21.931  49.341  49.111  1.00  0.00     0.001 A 
HETATM   21  C   UNL     1      27.044  49.102  48.438  1.00  0.00     0.008 C 
HETATM   22  O   UNL     1      25.005  47.639  52.146  1.00  0.00    -0.270 OA
ENDBRANCH   5   6
ENDBRANCH   2   5
BRANCH   1  23
HETATM   23  C   UNL     1      27.517  41.981  53.024  1.00  0.00     0.155 C 
BRANCH  23  24
HETATM   24  C   UNL     1      28.340  41.612  51.777  1.00  0.00     0.043 C 
BRANCH  24  25
HETATM   25  C   UNL     1      27.496  40.884  50.728  1.00  0.00     0.076 C 
BRANCH  25  26
HETATM   26  S   UNL     1      28.458  39.528  49.982  1.00  0.00    -0.173 SA
HETATM   27  C   UNL     1      28.560  40.175  48.295  1.00  0.00     0.089 C 
ENDBRANCH  25  26
ENDBRANCH  24  25
ENDBRANCH  23  24
BRANCH  23  28
HETATM   28  C   UNL     1      28.343  42.764  54.011  1.00  0.00     0.128 A 
HETATM   29  N   UNL     1      29.525  42.422  54.489  1.00  0.00    -0.231 NA
HETATM   30  C   UNL     1      29.909  43.452  55.311  1.00  0.00     0.085 A 
HETATM   31  C   UNL     1      28.945  44.453  55.336  1.00  0.00     0.062 A 
HETATM   32  C   UNL     1      31.078  43.608  56.071  1.00  0.00     0.034 A 
HETATM   33  N   UNL     1      27.967  44.000  54.491  1.00  0.00    -0.341 N 
HETATM   34  C   UNL     1      29.069  45.618  56.094  1.00  0.00     0.032 A 
HETATM   35  H   UNL     1      27.114  44.490  54.255  1.00  0.00     0.167 HD
HETATM   36  C   UNL     1      30.240  45.755  56.849  1.00  0.00     0.002 A 
HETATM   37  C   UNL     1      31.231  44.770  56.837  1.00  0.00     0.002 A 
ENDBRANCH  23  28
ENDBRANCH   1  23
TORSDOF 7
ENDMDL
MODEL 8
REMARK VINA RESULT:      -8.4      3.247      9.248
REMARK  7 active torsions:
REMARK  status: ('A' for Active; 'I' for Inactive)
REMARK    1  A    between atoms: S_2  and  C_3 
REMARK    2  A    between atoms: C_3  and  C_4 
REMARK    3  A    between atoms: C_4  and  C_5 
REMARK    4  A    between atoms: C_5  and  N_6 
REMARK    5  A    between atoms: C_5  and  C_26 
REMARK       I    between atoms: N_6  and  C_7 
REMARK    6  A    between atoms: C_7  and  C_8 
REMARK    7  A    between atoms: C_8  and  N_9 
ROOT
HETATM    1  N   UNL     1      26.695  42.916  51.989  1.00  0.00    -0.348 N 
HETATM    2  C   UNL     1      26.584  44.267  52.247  1.00  0.00     0.236 C 
HETATM    3  O   UNL     1      27.502  44.960  52.664  1.00  0.00    -0.272 OA
HETATM    4  H   UNL     1      25.815  42.406  52.005  1.00  0.00     0.163 HD
ENDROOT
BRANCH   2   5
HETATM    5  C   UNL     1      25.165  44.794  52.022  1.00  0.00     0.239 C 
BRANCH   5   6
HETATM    6  N   UNL     1      25.148  45.726  50.913  1.00  0.00    -0.259 N 
HETATM    7  C   UNL     1      25.482  45.408  49.633  1.00  0.00     0.326 C 
HETATM    8  O   UNL     1      25.818  44.309  49.213  1.00  0.00    -0.247 OA
HETATM    9  N   UNL     1      25.392  46.536  48.860  1.00  0.00    -0.320 N 
HETATM   10  C   UNL     1      25.262  47.736  49.663  1.00  0.00     0.144 C 
HETATM   11  H   UNL     1      25.608  46.528  47.872  1.00  0.00     0.165 HD
HETATM   12  C   UNL     1      24.131  48.614  49.162  1.00  0.00    -0.014 A 
HETATM   13  C   UNL     1      26.615  48.472  49.719  1.00  0.00     0.047 C 
HETATM   14  C   UNL     1      25.023  47.085  51.047  1.00  0.00     0.261 C 
HETATM   15  C   UNL     1      24.403  49.796  48.438  1.00  0.00    -0.049 A 
HETATM   16  C   UNL     1      22.788  48.254  49.384  1.00  0.00     0.011 A 
HETATM   17  C   UNL     1      23.341  50.600  47.994  1.00  0.00     0.007 A 
HETATM   18  C   UNL     1      25.812  50.280  48.185  1.00  0.00     0.039 C 
HETATM   19  C   UNL     1      22.019  50.237  48.242  1.00  0.00     0.001 A 
HETATM   20  C   UNL     1      21.743  49.064  48.933  1.00  0.00     0.001 A 
HETATM   21  C   UNL     1      26.877  49.213  48.413  1.00  0.00     0.008 C 
HETATM   22  O   UNL     1      24.847  47.685  52.099  1.00  0.00    -0.270 OA
ENDBRANCH   5   6
ENDBRANCH   2   5
BRANCH   1  23
HETATM   23  C   UNL     1      27.906  42.153  52.248  1.00  0.00     0.155 C 
BRANCH  23  24
HETATM   24  C   UNL     1      27.857  41.453  53.618  1.00  0.00     0.043 C 
BRANCH  24  25
HETATM   25  C   UNL     1      29.154  41.647  54.407  1.00  0.00     0.076 C 
BRANCH  25  26
HETATM   26  S   UNL     1      29.465  43.423  54.673  1.00  0.00    -0.173 SA
HETATM   27  C   UNL     1      30.869  43.277  55.806  1.00  0.00     0.089 C 
ENDBRANCH  25  26
ENDBRANCH  24  25
ENDBRANCH  23  24
BRANCH  23  28
HETATM   28  C   UNL     1      28.064  41.155  51.131  1.00  0.00     0.128 A 
HETATM   29  N   UNL     1      27.635  41.293  49.891  1.00  0.00    -0.231 NA
HETATM   30  C   UNL     1      28.043  40.164  49.225  1.00  0.00     0.085 A 
HETATM   31  C   UNL     1      28.743  39.314  50.072  1.00  0.00     0.062 A 
HETATM   32  C   UNL     1      27.856  39.794  47.885  1.00  0.00     0.034 A 
HETATM   33  N   UNL     1      28.756  39.972  51.273  1.00  0.00    -0.341 N 
HETATM   34  C   UNL     1      29.270  38.088  49.664  1.00  0.00     0.032 A 
HETATM   35  H   UNL     1      29.202  39.647  52.122  1.00  0.00     0.167 HD
HETATM   36  C   UNL     1      29.072  37.733  48.324  1.00  0.00     0.002 A 
HETATM   37  C   UNL     1      28.379  38.572  47.446  1.00  0.00     0.002 A 
ENDBRANCH  23  28
ENDBRANCH   1  23
TORSDOF 7
ENDMDL
MODEL 9
REMARK VINA RESULT:      -8.3     11.384     12.676
REMARK  7 active torsions:
REMARK  status: ('A' for Active; 'I' for Inactive)
REMARK    1  A    between atoms: S_2  and  C_3 
REMARK    2  A    between atoms: C_3  and  C_4 
REMARK    3  A    between atoms: C_4  and  C_5 
REMARK    4  A    between atoms: C_5  and  N_6 
REMARK    5  A    between atoms: C_5  and  C_26 
REMARK       I    between atoms: N_6  and  C_7 
REMARK    6  A    between atoms: C_7  and  C_8 
REMARK    7  A    between atoms: C_8  and  N_9 
ROOT
HETATM    1  N   UNL     1      26.358  50.078  40.045  1.00  0.00    -0.348 N 
HETATM    2  C   UNL     1      27.271  51.059  39.719  1.00  0.00     0.236 C 
HETATM    3  O   UNL     1      27.744  51.208  38.600  1.00  0.00    -0.272 OA
HETATM    4  H   UNL     1      26.327  49.836  41.032  1.00  0.00     0.163 HD
ENDROOT
BRANCH   2   5
HETATM    5  C   UNL     1      27.684  51.903  40.927  1.00  0.00     0.239 C 
BRANCH   5   6
HETATM    6  N   UNL     1      29.113  52.142  40.904  1.00  0.00    -0.259 N 
HETATM    7  C   UNL     1      29.699  53.263  40.401  1.00  0.00     0.326 C 
HETATM    8  O   UNL     1      29.133  54.236  39.923  1.00  0.00    -0.247 OA
HETATM    9  N   UNL     1      31.059  53.134  40.506  1.00  0.00    -0.320 N 
HETATM   10  C   UNL     1      31.453  51.777  40.832  1.00  0.00     0.144 C 
HETATM   11  H   UNL     1      31.692  53.852  40.180  1.00  0.00     0.165 HD
HETATM   12  C   UNL     1      32.450  51.753  41.975  1.00  0.00    -0.014 A 
HETATM   13  C   UNL     1      31.972  51.068  39.566  1.00  0.00     0.047 C 
HETATM   14  C   UNL     1      30.061  51.187  41.165  1.00  0.00     0.261 C 
HETATM   15  C   UNL     1      33.819  51.501  41.732  1.00  0.00    -0.049 A 
HETATM   16  C   UNL     1      32.039  52.011  43.297  1.00  0.00     0.011 A 
HETATM   17  C   UNL     1      34.723  51.472  42.805  1.00  0.00     0.007 A 
HETATM   18  C   UNL     1      34.346  51.178  40.352  1.00  0.00     0.039 C 
HETATM   19  C   UNL     1      34.292  51.708  44.108  1.00  0.00     0.001 A 
HETATM   20  C   UNL     1      32.951  51.980  44.353  1.00  0.00     0.001 A 
HETATM   21  C   UNL     1      33.382  51.538  39.228  1.00  0.00     0.008 C 
HETATM   22  O   UNL     1      29.837  50.035  41.512  1.00  0.00    -0.270 OA
ENDBRANCH   5   6
ENDBRANCH   2   5
BRANCH   1  23
HETATM   23  C   UNL     1      25.906  49.067  39.101  1.00  0.00     0.155 C 
BRANCH  23  24
HETATM   24  C   UNL     1      26.077  47.645  39.663  1.00  0.00     0.043 C 
BRANCH  24  25
HETATM   25  C   UNL     1      27.524  47.363  40.077  1.00  0.00     0.076 C 
BRANCH  25  26
HETATM   26  S   UNL     1      28.641  47.625  38.661  1.00  0.00    -0.173 SA
HETATM   27  C   UNL     1      30.184  47.094  39.444  1.00  0.00     0.089 C 
ENDBRANCH  25  26
ENDBRANCH  24  25
ENDBRANCH  23  24
BRANCH  23  28
HETATM   28  C   UNL     1      24.463  49.356  38.780  1.00  0.00     0.128 A 
HETATM   29  N   UNL     1      23.734  48.770  37.849  1.00  0.00    -0.231 NA
HETATM   30  C   UNL     1      22.480  49.318  37.953  1.00  0.00     0.085 A 
HETATM   31  C   UNL     1      22.434  50.260  38.974  1.00  0.00     0.062 A 
HETATM   32  C   UNL     1      21.320  49.057  37.210  1.00  0.00     0.034 A 
HETATM   33  N   UNL     1      23.700  50.255  39.495  1.00  0.00    -0.341 N 
HETATM   34  C   UNL     1      21.284  50.981  39.301  1.00  0.00     0.032 A 
HETATM   35  H   UNL     1      24.023  50.814  40.274  1.00  0.00     0.167 HD
HETATM   36  C   UNL     1      20.137  50.710  38.546  1.00  0.00     0.002 A 
HETATM   37  C   UNL     1      20.150  49.762  37.519  1.00  0.00     0.002 A 
ENDBRANCH  23  28
ENDBRANCH   1  23
TORSDOF 7
ENDMDL
MODEL 10
REMARK VINA RESULT:      -8.2      3.330      9.702
REMARK  7 active torsions:
REMARK  status: ('A' for Active; 'I' for Inactive)
REMARK    1  A    between atoms: S_2  and  C_3 
REMARK    2  A    between atoms: C_3  and  C_4 
REMARK    3  A    between atoms: C_4  and  C_5 
REMARK    4  A    between atoms: C_5  and  N_6 
REMARK    5  A    between atoms: C_5  and  C_26 
REMARK       I    between atoms: N_6  and  C_7 
REMARK    6  A    between atoms: C_7  and  C_8 
REMARK    7  A    between atoms: C_8  and  N_9 
ROOT
HETATM    1  N   UNL     1      22.942  44.645  48.390  1.00  0.00    -0.348 N 
HETATM    2  C   UNL     1      21.624  44.917  48.090  1.00  0.00     0.236 C 
HETATM    3  O   UNL     1      20.672  44.391  48.653  1.00  0.00    -0.272 OA
HETATM    4  H   UNL     1      23.600  44.851  47.642  1.00  0.00     0.163 HD
ENDROOT
BRANCH   2   5
HETATM    5  C   UNL     1      21.475  45.898  46.925  1.00  0.00     0.239 C 
BRANCH   5   6
HETATM    6  N   UNL     1      21.070  47.200  47.416  1.00  0.00    -0.259 N 
HETATM    7  C   UNL     1      21.921  48.127  47.936  1.00  0.00     0.326 C 
HETATM    8  O   UNL     1      23.135  48.028  48.048  1.00  0.00    -0.247 OA
HETATM    9  N   UNL     1      21.193  49.217  48.334  1.00  0.00    -0.320 N 
HETATM   10  C   UNL     1      19.769  48.944  48.354  1.00  0.00     0.144 C 
HETATM   11  H   UNL     1      21.628  50.025  48.760  1.00  0.00     0.165 HD
HETATM   12  C   UNL     1      18.989  50.037  47.649  1.00  0.00    -0.014 A 
HETATM   13  C   UNL     1      19.305  48.714  49.806  1.00  0.00     0.047 C 
HETATM   14  C   UNL     1      19.769  47.572  47.637  1.00  0.00     0.261 C 
HETATM   15  C   UNL     1      18.253  50.989  48.390  1.00  0.00    -0.049 A 
HETATM   16  C   UNL     1      19.005  50.143  46.245  1.00  0.00     0.011 A 
HETATM   17  C   UNL     1      17.528  51.985  47.717  1.00  0.00     0.007 A 
HETATM   18  C   UNL     1      18.148  50.932  49.896  1.00  0.00     0.039 C 
HETATM   19  C   UNL     1      17.540  52.060  46.326  1.00  0.00     0.001 A 
HETATM   20  C   UNL     1      18.280  51.142  45.591  1.00  0.00     0.001 A 
HETATM   21  C   UNL     1      19.197  50.039  50.551  1.00  0.00     0.008 C 
HETATM   22  O   UNL     1      18.782  46.892  47.393  1.00  0.00    -0.270 OA
ENDBRANCH   5   6
ENDBRANCH   2   5
BRANCH   1  23
HETATM   23  C   UNL     1      23.347  43.649  49.370  1.00  0.00     0.155 C 
BRANCH  23  24
HETATM   24  C   UNL     1      24.287  42.596  48.759  1.00  0.00     0.043 C 
BRANCH  24  25
HETATM   25  C   UNL     1      23.892  42.239  47.324  1.00  0.00     0.076 C 
BRANCH  25  26
HETATM   26  S   UNL     1      23.878  40.428  47.111  1.00  0.00    -0.173 SA
HETATM   27  C   UNL     1      22.098  40.156  47.297  1.00  0.00     0.089 C 
ENDBRANCH  25  26
ENDBRANCH  24  25
ENDBRANCH  23  24
BRANCH  23  28
HETATM   28  C   UNL     1      24.009  44.376  50.511  1.00  0.00     0.128 A 
HETATM   29  N   UNL     1      24.268  43.885  51.708  1.00  0.00    -0.231 NA
HETATM   30  C   UNL     1      24.915  44.884  52.392  1.00  0.00     0.085 A 
HETATM   31  C   UNL     1      25.061  46.014  51.598  1.00  0.00     0.062 A 
HETATM   32  C   UNL     1      25.415  44.899  53.702  1.00  0.00     0.034 A 
HETATM   33  N   UNL     1      24.492  45.662  50.403  1.00  0.00    -0.341 N 
HETATM   34  C   UNL     1      25.677  47.187  52.037  1.00  0.00     0.032 A 
HETATM   35  H   UNL     1      24.437  46.245  49.577  1.00  0.00     0.167 HD
HETATM   36  C   UNL     1      26.167  47.185  53.349  1.00  0.00     0.002 A 
HETATM   37  C   UNL     1      26.042  46.060  54.169  1.00  0.00     0.002 A 
ENDBRANCH  23  28
ENDBRANCH   1  23
TORSDOF 7
ENDMDL
