MODEL 1
REMARK VINA RESULT:      -9.1      0.000      0.000
REMARK  3 active torsions:
REMARK  status: ('A' for Active; 'I' for Inactive)
REMARK    1  A    between atoms: C_9  and  C_10 
REMARK    2  A    between atoms: C_10  and  C_11 
REMARK       I    between atoms: C_11  and  N_12 
REMARK    3  A    between atoms: N_12  and  C_13 
ROOT
HETATM    1  C   UNL     1      31.536  43.726  57.248  1.00  0.00     0.001 A 
HETATM    2  C   UNL     1      31.018  43.333  56.010  1.00  0.00     0.014 A 
HETATM    3  C   UNL     1      29.997  44.082  55.409  1.00  0.00     0.006 A 
HETATM    4  C   UNL     1      29.500  45.208  56.063  1.00  0.00     0.046 A 
HETATM    5  C   UNL     1      28.410  45.975  55.440  1.00  0.00     0.272 A 
HETATM    6  O   UNL     1      27.941  46.972  55.977  1.00  0.00    -0.266 OA
HETATM    7  N   UNL     1      27.955  45.504  54.234  1.00  0.00    -0.243 N 
HETATM    8  N   UNL     1      28.433  44.424  53.563  1.00  0.00    -0.175 NA
HETATM    9  C   UNL     1      29.405  43.739  54.088  1.00  0.00     0.074 A 
HETATM   10  C   UNL     1      30.020  45.602  57.301  1.00  0.00     0.018 A 
HETATM   11  C   UNL     1      31.041  44.860  57.891  1.00  0.00     0.001 A 
HETATM   12  H   UNL     1      27.196  46.020  53.795  1.00  0.00     0.192 HD
ENDROOT
BRANCH   9  13
HETATM   13  C   UNL     1      29.955  42.544  53.337  1.00  0.00     0.165 C 
BRANCH  13  14
HETATM   14  C   UNL     1      29.035  41.453  52.822  1.00  0.00     0.228 C 
HETATM   15  N   UNL     1      28.933  41.335  51.455  1.00  0.00    -0.326 N 
HETATM   16  H   UNL     1      29.298  42.117  50.908  1.00  0.00     0.169 HD
HETATM   17  O   UNL     1      28.507  40.702  53.643  1.00  0.00    -0.273 OA
BRANCH  15  18
HETATM   18  C   UNL     1      28.262  40.340  50.702  1.00  0.00     0.052 A 
HETATM   19  C   UNL     1      26.942  40.580  50.277  1.00  0.00     0.037 A 
HETATM   20 BR   UNL     1      26.033  42.201  50.688  1.00  0.00    -0.049 Br
HETATM   21  C   UNL     1      26.241  39.630  49.523  1.00  0.00     0.021 A 
HETATM   22  C   UNL     1      26.853  38.428  49.179  1.00  0.00     0.002 A 
HETATM   23  C   UNL     1      28.160  38.179  49.587  1.00  0.00     0.002 A 
HETATM   24  C   UNL     1      28.859  39.128  50.341  1.00  0.00     0.031 A 
ENDBRANCH  15  18
ENDBRANCH  13  14
ENDBRANCH   9  13
TORSDOF 3
ENDMDL
MODEL 2
REMARK VINA RESULT:      -9.1      4.822      6.194
REMARK  3 active torsions:
REMARK  status: ('A' for Active; 'I' for Inactive)
REMARK    1  A    between atoms: C_9  and  C_10 
REMARK    2  A    between atoms: C_10  and  C_11 
REMARK       I    between atoms: C_11  and  N_12 
REMARK    3  A    between atoms: N_12  and  C_13 
ROOT
HETATM    1  C   UNL     1      30.058  42.887  53.509  1.00  0.00     0.001 A 
HETATM    2  C   UNL     1      28.906  43.464  52.966  1.00  0.00     0.014 A 
HETATM    3  C   UNL     1      28.233  44.475  53.665  1.00  0.00     0.006 A 
HETATM    4  C   UNL     1      28.717  44.887  54.906  1.00  0.00     0.046 A 
HETATM    5  C   UNL     1      27.992  45.930  55.647  1.00  0.00     0.272 A 
HETATM    6  O   UNL     1      28.379  46.324  56.742  1.00  0.00    -0.266 OA
HETATM    7  N   UNL     1      26.863  46.424  55.044  1.00  0.00    -0.243 N 
HETATM    8  N   UNL     1      26.379  46.059  53.828  1.00  0.00    -0.175 NA
HETATM    9  C   UNL     1      27.011  45.149  53.149  1.00  0.00     0.074 A 
HETATM   10  C   UNL     1      29.871  44.310  55.448  1.00  0.00     0.018 A 
HETATM   11  C   UNL     1      30.543  43.312  54.746  1.00  0.00     0.001 A 
HETATM   12  H   UNL     1      26.347  47.140  55.548  1.00  0.00     0.192 HD
ENDROOT
BRANCH   9  13
HETATM   13  C   UNL     1      26.487  44.749  51.784  1.00  0.00     0.165 C 
BRANCH  13  14
HETATM   14  C   UNL     1      26.637  45.672  50.589  1.00  0.00     0.228 C 
HETATM   15  N   UNL     1      26.042  46.909  50.694  1.00  0.00    -0.326 N 
HETATM   16  H   UNL     1      25.372  47.021  51.457  1.00  0.00     0.169 HD
HETATM   17  O   UNL     1      27.335  45.296  49.648  1.00  0.00    -0.273 OA
BRANCH  15  18
HETATM   18  C   UNL     1      26.126  48.007  49.804  1.00  0.00     0.052 A 
HETATM   19  C   UNL     1      24.967  48.422  49.120  1.00  0.00     0.037 A 
HETATM   20 BR   UNL     1      23.294  47.545  49.357  1.00  0.00    -0.049 Br
HETATM   21  C   UNL     1      24.998  49.508  48.237  1.00  0.00     0.021 A 
HETATM   22  C   UNL     1      26.188  50.199  48.028  1.00  0.00     0.002 A 
HETATM   23  C   UNL     1      27.341  49.805  48.701  1.00  0.00     0.002 A 
HETATM   24  C   UNL     1      27.309  48.719  49.583  1.00  0.00     0.031 A 
ENDBRANCH  15  18
ENDBRANCH  13  14
ENDBRANCH   9  13
TORSDOF 3
ENDMDL
MODEL 3
REMARK VINA RESULT:      -8.8      5.114      6.702
REMARK  3 active torsions:
REMARK  status: ('A' for Active; 'I' for Inactive)
REMARK    1  A    between atoms: C_9  and  C_10 
REMARK    2  A    between atoms: C_10  and  C_11 
REMARK       I    between atoms: C_11  and  N_12 
REMARK    3  A    between atoms: N_12  and  C_13 
ROOT
HETATM    1  C   UNL     1      29.187  42.471  52.517  1.00  0.00     0.001 A 
HETATM    2  C   UNL     1      28.157  43.416  52.490  1.00  0.00     0.014 A 
HETATM    3  C   UNL     1      28.079  44.395  53.490  1.00  0.00     0.006 A 
HETATM    4  C   UNL     1      29.028  44.407  54.511  1.00  0.00     0.046 A 
HETATM    5  C   UNL     1      28.926  45.420  55.572  1.00  0.00     0.272 A 
HETATM    6  O   UNL     1      29.736  45.469  56.490  1.00  0.00    -0.266 OA
HETATM    7  N   UNL     1      27.873  46.294  55.471  1.00  0.00    -0.243 N 
HETATM    8  N   UNL     1      26.946  46.323  54.478  1.00  0.00    -0.175 NA
HETATM    9  C   UNL     1      27.025  45.445  53.523  1.00  0.00     0.074 A 
HETATM   10  C   UNL     1      30.059  43.461  54.537  1.00  0.00     0.018 A 
HETATM   11  C   UNL     1      30.138  42.495  53.536  1.00  0.00     0.001 A 
HETATM   12  H   UNL     1      27.785  46.996  56.202  1.00  0.00     0.192 HD
ENDROOT
BRANCH   9  13
HETATM   13  C   UNL     1      26.005  45.481  52.402  1.00  0.00     0.165 C 
BRANCH  13  14
HETATM   14  C   UNL     1      25.526  46.799  51.824  1.00  0.00     0.228 C 
HETATM   15  N   UNL     1      25.411  46.859  50.454  1.00  0.00    -0.326 N 
HETATM   16  H   UNL     1      25.863  46.106  49.932  1.00  0.00     0.169 HD
HETATM   17  O   UNL     1      25.198  47.691  52.606  1.00  0.00    -0.273 OA
BRANCH  15  18
HETATM   18  C   UNL     1      24.872  47.900  49.658  1.00  0.00     0.052 A 
HETATM   19  C   UNL     1      25.748  48.824  49.058  1.00  0.00     0.037 A 
HETATM   20 BR   UNL     1      27.634  48.716  49.290  1.00  0.00    -0.049 Br
HETATM   21  C   UNL     1      25.264  49.864  48.256  1.00  0.00     0.021 A 
HETATM   22  C   UNL     1      23.894  49.992  48.037  1.00  0.00     0.002 A 
HETATM   23  C   UNL     1      23.016  49.083  48.619  1.00  0.00     0.002 A 
HETATM   24  C   UNL     1      23.502  48.044  49.421  1.00  0.00     0.031 A 
ENDBRANCH  15  18
ENDBRANCH  13  14
ENDBRANCH   9  13
TORSDOF 3
ENDMDL
MODEL 4
REMARK VINA RESULT:      -8.6      1.992      2.343
REMARK  3 active torsions:
REMARK  status: ('A' for Active; 'I' for Inactive)
REMARK    1  A    between atoms: C_9  and  C_10 
REMARK    2  A    between atoms: C_10  and  C_11 
REMARK       I    between atoms: C_11  and  N_12 
REMARK    3  A    between atoms: N_12  and  C_13 
ROOT
HETATM    1  C   UNL     1      30.964  43.694  55.910  1.00  0.00     0.001 A 
HETATM    2  C   UNL     1      30.172  43.007  54.984  1.00  0.00     0.014 A 
HETATM    3  C   UNL     1      29.049  43.631  54.425  1.00  0.00     0.006 A 
HETATM    4  C   UNL     1      28.726  44.931  54.810  1.00  0.00     0.046 A 
HETATM    5  C   UNL     1      27.531  45.571  54.240  1.00  0.00     0.272 A 
HETATM    6  O   UNL     1      27.207  46.712  54.549  1.00  0.00    -0.266 OA
HETATM    7  N   UNL     1      26.807  44.814  53.353  1.00  0.00    -0.243 N 
HETATM    8  N   UNL     1      27.108  43.555  52.941  1.00  0.00    -0.175 NA
HETATM    9  C   UNL     1      28.166  42.975  53.422  1.00  0.00     0.074 A 
HETATM   10  C   UNL     1      29.519  45.618  55.737  1.00  0.00     0.018 A 
HETATM   11  C   UNL     1      30.640  44.998  56.283  1.00  0.00     0.001 A 
HETATM   12  H   UNL     1      25.974  45.241  52.956  1.00  0.00     0.192 HD
ENDROOT
BRANCH   9  13
HETATM   13  C   UNL     1      28.518  41.577  52.955  1.00  0.00     0.165 C 
BRANCH  13  14
HETATM   14  C   UNL     1      27.963  41.025  51.655  1.00  0.00     0.228 C 
HETATM   15  N   UNL     1      28.887  40.654  50.705  1.00  0.00    -0.326 N 
HETATM   16  H   UNL     1      29.843  40.982  50.855  1.00  0.00     0.169 HD
HETATM   17  O   UNL     1      26.746  40.870  51.562  1.00  0.00    -0.273 OA
BRANCH  15  18
HETATM   18  C   UNL     1      28.668  39.996  49.470  1.00  0.00     0.052 A 
HETATM   19  C   UNL     1      29.052  38.649  49.336  1.00  0.00     0.037 A 
HETATM   20 BR   UNL     1      29.860  37.688  50.767  1.00  0.00    -0.049 Br
HETATM   21  C   UNL     1      28.848  37.954  48.138  1.00  0.00     0.021 A 
HETATM   22  C   UNL     1      28.252  38.596  47.055  1.00  0.00     0.002 A 
HETATM   23  C   UNL     1      27.861  39.927  47.174  1.00  0.00     0.002 A 
HETATM   24  C   UNL     1      28.066  40.620  48.372  1.00  0.00     0.031 A 
ENDBRANCH  15  18
ENDBRANCH  13  14
ENDBRANCH   9  13
TORSDOF 3
ENDMDL
MODEL 5
REMARK VINA RESULT:      -8.5      3.824      7.508
REMARK  3 active torsions:
REMARK  status: ('A' for Active; 'I' for Inactive)
REMARK    1  A    between atoms: C_9  and  C_10 
REMARK    2  A    between atoms: C_10  and  C_11 
REMARK       I    between atoms: C_11  and  N_12 
REMARK    3  A    between atoms: N_12  and  C_13 
ROOT
HETATM    1  C   UNL     1      25.826  47.610  50.168  1.00  0.00     0.001 A 
HETATM    2  C   UNL     1      26.113  47.426  51.524  1.00  0.00     0.014 A 
HETATM    3  C   UNL     1      25.810  46.207  52.144  1.00  0.00     0.006 A 
HETATM    4  C   UNL     1      25.211  45.191  51.401  1.00  0.00     0.046 A 
HETATM    5  C   UNL     1      24.871  43.923  52.064  1.00  0.00     0.272 A 
HETATM    6  O   UNL     1      24.343  43.002  51.451  1.00  0.00    -0.266 OA
HETATM    7  N   UNL     1      25.175  43.841  53.400  1.00  0.00    -0.243 N 
HETATM    8  N   UNL     1      25.777  44.803  54.145  1.00  0.00    -0.175 NA
HETATM    9  C   UNL     1      26.099  45.927  53.577  1.00  0.00     0.074 A 
HETATM   10  C   UNL     1      24.925  45.375  50.043  1.00  0.00     0.018 A 
HETATM   11  C   UNL     1      25.237  46.585  49.427  1.00  0.00     0.001 A 
HETATM   12  H   UNL     1      24.938  42.973  53.873  1.00  0.00     0.192 HD
ENDROOT
BRANCH   9  13
HETATM   13  C   UNL     1      26.787  46.999  54.398  1.00  0.00     0.165 C 
BRANCH  13  14
HETATM   14  C   UNL     1      28.143  46.748  55.030  1.00  0.00     0.228 C 
HETATM   15  N   UNL     1      28.268  45.595  55.771  1.00  0.00    -0.326 N 
HETATM   16  H   UNL     1      27.396  45.124  56.020  1.00  0.00     0.169 HD
HETATM   17  O   UNL     1      29.055  47.536  54.781  1.00  0.00    -0.273 OA
BRANCH  15  18
HETATM   18  C   UNL     1      29.433  45.045  56.359  1.00  0.00     0.052 A 
HETATM   19  C   UNL     1      30.103  43.998  55.698  1.00  0.00     0.037 A 
HETATM   20 BR   UNL     1      29.484  43.300  54.039  1.00  0.00    -0.049 Br
HETATM   21  C   UNL     1      31.263  43.428  56.235  1.00  0.00     0.021 A 
HETATM   22  C   UNL     1      31.775  43.901  57.442  1.00  0.00     0.002 A 
HETATM   23  C   UNL     1      31.127  44.939  58.104  1.00  0.00     0.002 A 
HETATM   24  C   UNL     1      29.967  45.508  57.566  1.00  0.00     0.031 A 
ENDBRANCH  15  18
ENDBRANCH  13  14
ENDBRANCH   9  13
TORSDOF 3
ENDMDL
MODEL 6
REMARK VINA RESULT:      -8.4      4.355      5.251
REMARK  3 active torsions:
REMARK  status: ('A' for Active; 'I' for Inactive)
REMARK    1  A    between atoms: C_9  and  C_10 
REMARK    2  A    between atoms: C_10  and  C_11 
REMARK       I    between atoms: C_11  and  N_12 
REMARK    3  A    between atoms: N_12  and  C_13 
ROOT
HETATM    1  C   UNL     1      30.555  43.008  54.519  1.00  0.00     0.001 A 
HETATM    2  C   UNL     1      29.510  43.355  53.657  1.00  0.00     0.014 A 
HETATM    3  C   UNL     1      28.657  44.418  53.982  1.00  0.00     0.006 A 
HETATM    4  C   UNL     1      28.855  45.113  55.174  1.00  0.00     0.046 A 
HETATM    5  C   UNL     1      27.941  46.211  55.524  1.00  0.00     0.272 A 
HETATM    6  O   UNL     1      28.075  46.850  56.561  1.00  0.00    -0.266 OA
HETATM    7  N   UNL     1      26.936  46.467  54.625  1.00  0.00    -0.243 N 
HETATM    8  N   UNL     1      26.730  45.824  53.447  1.00  0.00    -0.175 NA
HETATM    9  C   UNL     1      27.534  44.859  53.111  1.00  0.00     0.074 A 
HETATM   10  C   UNL     1      29.901  44.766  56.037  1.00  0.00     0.018 A 
HETATM   11  C   UNL     1      30.753  43.714  55.705  1.00  0.00     0.001 A 
HETATM   12  H   UNL     1      26.291  47.219  54.857  1.00  0.00     0.192 HD
ENDROOT
BRANCH   9  13
HETATM   13  C   UNL     1      27.322  44.148  51.790  1.00  0.00     0.165 C 
BRANCH  13  14
HETATM   14  C   UNL     1      26.602  44.830  50.642  1.00  0.00     0.228 C 
HETATM   15  N   UNL     1      25.347  45.324  50.915  1.00  0.00    -0.326 N 
HETATM   16  H   UNL     1      24.916  45.000  51.784  1.00  0.00     0.169 HD
HETATM   17  O   UNL     1      27.205  44.969  49.578  1.00  0.00    -0.273 OA
BRANCH  15  18
HETATM   18  C   UNL     1      24.508  46.110  50.089  1.00  0.00     0.052 A 
HETATM   19  C   UNL     1      23.523  45.472  49.312  1.00  0.00     0.037 A 
HETATM   20 BR   UNL     1      23.289  43.584  49.339  1.00  0.00    -0.049 Br
HETATM   21  C   UNL     1      22.664  46.208  48.486  1.00  0.00     0.021 A 
HETATM   22  C   UNL     1      22.775  47.595  48.429  1.00  0.00     0.002 A 
HETATM   23  C   UNL     1      23.740  48.240  49.195  1.00  0.00     0.002 A 
HETATM   24  C   UNL     1      24.598  47.504  50.020  1.00  0.00     0.031 A 
ENDBRANCH  15  18
ENDBRANCH  13  14
ENDBRANCH   9  13
TORSDOF 3
ENDMDL
MODEL 7
REMARK VINA RESULT:      -8.1      2.555      7.405
REMARK  3 active torsions:
REMARK  status: ('A' for Active; 'I' for Inactive)
REMARK    1  A    between atoms: C_9  and  C_10 
REMARK    2  A    between atoms: C_10  and  C_11 
REMARK       I    between atoms: C_11  and  N_12 
REMARK    3  A    between atoms: N_12  and  C_13 
ROOT
HETATM    1  C   UNL     1      25.775  44.594  51.545  1.00  0.00     0.001 A 
HETATM    2  C   UNL     1      27.001  44.019  51.892  1.00  0.00     0.014 A 
HETATM    3  C   UNL     1      27.266  42.683  51.563  1.00  0.00     0.006 A 
HETATM    4  C   UNL     1      26.292  41.936  50.902  1.00  0.00     0.046 A 
HETATM    5  C   UNL     1      26.565  40.526  50.583  1.00  0.00     0.272 A 
HETATM    6  O   UNL     1      25.740  39.830  50.003  1.00  0.00    -0.266 OA
HETATM    7  N   UNL     1      27.788  40.044  50.978  1.00  0.00    -0.243 N 
HETATM    8  N   UNL     1      28.764  40.752  51.603  1.00  0.00    -0.175 NA
HETATM    9  C   UNL     1      28.550  42.003  51.883  1.00  0.00     0.074 A 
HETATM   10  C   UNL     1      25.065  42.512  50.554  1.00  0.00     0.018 A 
HETATM   11  C   UNL     1      24.810  43.844  50.874  1.00  0.00     0.001 A 
HETATM   12  H   UNL     1      27.988  39.069  50.771  1.00  0.00     0.192 HD
ENDROOT
BRANCH   9  13
HETATM   13  C   UNL     1      29.641  42.804  52.565  1.00  0.00     0.165 C 
BRANCH  13  14
HETATM   14  C   UNL     1      29.672  42.954  54.074  1.00  0.00     0.228 C 
HETATM   15  N   UNL     1      30.380  44.027  54.567  1.00  0.00    -0.326 N 
HETATM   16  H   UNL     1      31.002  44.496  53.906  1.00  0.00     0.169 HD
HETATM   17  O   UNL     1      29.009  42.169  54.751  1.00  0.00    -0.273 OA
BRANCH  15  18
HETATM   18  C   UNL     1      30.472  44.485  55.904  1.00  0.00     0.052 A 
HETATM   19  C   UNL     1      29.618  45.519  56.332  1.00  0.00     0.037 A 
HETATM   20 BR   UNL     1      28.345  46.318  55.165  1.00  0.00    -0.049 Br
HETATM   21  C   UNL     1      29.666  45.999  57.646  1.00  0.00     0.021 A 
HETATM   22  C   UNL     1      30.567  45.449  58.554  1.00  0.00     0.002 A 
HETATM   23  C   UNL     1      31.415  44.423  58.147  1.00  0.00     0.002 A 
HETATM   24  C   UNL     1      31.366  43.944  56.833  1.00  0.00     0.031 A 
ENDBRANCH  15  18
ENDBRANCH  13  14
ENDBRANCH   9  13
TORSDOF 3
ENDMDL
MODEL 8
REMARK VINA RESULT:      -8.1      6.430      7.886
REMARK  3 active torsions:
REMARK  status: ('A' for Active; 'I' for Inactive)
REMARK    1  A    between atoms: C_9  and  C_10 
REMARK    2  A    between atoms: C_10  and  C_11 
REMARK       I    between atoms: C_11  and  N_12 
REMARK    3  A    between atoms: N_12  and  C_13 
ROOT
HETATM    1  C   UNL     1      27.918  43.526  52.701  1.00  0.00     0.001 A 
HETATM    2  C   UNL     1      26.974  44.418  52.182  1.00  0.00     0.014 A 
HETATM    3  C   UNL     1      26.651  45.584  52.888  1.00  0.00     0.006 A 
HETATM    4  C   UNL     1      27.268  45.836  54.112  1.00  0.00     0.046 A 
HETATM    5  C   UNL     1      26.905  47.048  54.862  1.00  0.00     0.272 A 
HETATM    6  O   UNL     1      27.421  47.312  55.942  1.00  0.00    -0.266 OA
HETATM    7  N   UNL     1      25.958  47.854  54.282  1.00  0.00    -0.243 N 
HETATM    8  N   UNL     1      25.355  47.648  53.082  1.00  0.00    -0.175 NA
HETATM    9  C   UNL     1      25.670  46.590  52.396  1.00  0.00     0.074 A 
HETATM   10  C   UNL     1      28.213  44.944  54.631  1.00  0.00     0.018 A 
HETATM   11  C   UNL     1      28.539  43.790  53.921  1.00  0.00     0.001 A 
HETATM   12  H   UNL     1      25.691  48.693  54.792  1.00  0.00     0.192 HD
ENDROOT
BRANCH   9  13
HETATM   13  C   UNL     1      25.015  46.361  51.049  1.00  0.00     0.165 C 
BRANCH  13  14
HETATM   14  C   UNL     1      24.602  47.529  50.173  1.00  0.00     0.228 C 
HETATM   15  N   UNL     1      23.261  47.629  49.881  1.00  0.00    -0.326 N 
HETATM   16  H   UNL     1      22.694  46.802  50.083  1.00  0.00     0.169 HD
HETATM   17  O   UNL     1      25.463  48.346  49.849  1.00  0.00    -0.273 OA
BRANCH  15  18
HETATM   18  C   UNL     1      22.579  48.670  49.206  1.00  0.00     0.052 A 
HETATM   19  C   UNL     1      21.596  48.339  48.254  1.00  0.00     0.037 A 
HETATM   20 BR   UNL     1      21.162  46.531  47.847  1.00  0.00    -0.049 Br
HETATM   21  C   UNL     1      20.889  49.334  47.568  1.00  0.00     0.021 A 
HETATM   22  C   UNL     1      21.151  50.677  47.827  1.00  0.00     0.002 A 
HETATM   23  C   UNL     1      22.116  51.020  48.770  1.00  0.00     0.002 A 
HETATM   24  C   UNL     1      22.822  50.025  49.455  1.00  0.00     0.031 A 
ENDBRANCH  15  18
ENDBRANCH  13  14
ENDBRANCH   9  13
TORSDOF 3
ENDMDL
MODEL 9
REMARK VINA RESULT:      -8.1      2.333      2.931
REMARK  3 active torsions:
REMARK  status: ('A' for Active; 'I' for Inactive)
REMARK    1  A    between atoms: C_9  and  C_10 
REMARK    2  A    between atoms: C_10  and  C_11 
REMARK       I    between atoms: C_11  and  N_12 
REMARK    3  A    between atoms: N_12  and  C_13 
ROOT
HETATM    1  C   UNL     1      28.544  46.184  55.860  1.00  0.00     0.001 A 
HETATM    2  C   UNL     1      28.268  44.966  55.231  1.00  0.00     0.014 A 
HETATM    3  C   UNL     1      27.375  44.922  54.152  1.00  0.00     0.006 A 
HETATM    4  C   UNL     1      26.761  46.098  53.725  1.00  0.00     0.046 A 
HETATM    5  C   UNL     1      25.804  46.042  52.609  1.00  0.00     0.272 A 
HETATM    6  O   UNL     1      25.239  47.049  52.198  1.00  0.00    -0.266 OA
HETATM    7  N   UNL     1      25.583  44.800  52.066  1.00  0.00    -0.243 N 
HETATM    8  N   UNL     1      26.182  43.642  52.446  1.00  0.00    -0.175 NA
HETATM    9  C   UNL     1      27.041  43.670  53.421  1.00  0.00     0.074 A 
HETATM   10  C   UNL     1      27.038  47.317  54.354  1.00  0.00     0.018 A 
HETATM   11  C   UNL     1      27.934  47.358  55.420  1.00  0.00     0.001 A 
HETATM   12  H   UNL     1      24.919  44.744  51.299  1.00  0.00     0.192 HD
ENDROOT
BRANCH   9  13
HETATM   13  C   UNL     1      27.726  42.385  53.839  1.00  0.00     0.165 C 
BRANCH  13  14
HETATM   14  C   UNL     1      28.609  41.620  52.871  1.00  0.00     0.228 C 
HETATM   15  N   UNL     1      27.982  40.684  52.080  1.00  0.00    -0.326 N 
HETATM   16  H   UNL     1      27.034  40.424  52.359  1.00  0.00     0.169 HD
HETATM   17  O   UNL     1      29.797  41.933  52.796  1.00  0.00    -0.273 OA
BRANCH  15  18
HETATM   18  C   UNL     1      28.521  39.926  51.013  1.00  0.00     0.052 A 
HETATM   19  C   UNL     1      28.211  40.292  49.689  1.00  0.00     0.037 A 
HETATM   20 BR   UNL     1      27.086  41.776  49.296  1.00  0.00    -0.049 Br
HETATM   21  C   UNL     1      28.727  39.579  48.601  1.00  0.00     0.021 A 
HETATM   22  C   UNL     1      29.566  38.489  48.820  1.00  0.00     0.002 A 
HETATM   23  C   UNL     1      29.886  38.117  50.122  1.00  0.00     0.002 A 
HETATM   24  C   UNL     1      29.369  38.831  51.209  1.00  0.00     0.031 A 
ENDBRANCH  15  18
ENDBRANCH  13  14
ENDBRANCH   9  13
TORSDOF 3
ENDMDL
MODEL 10
REMARK VINA RESULT:      -7.6      7.422      9.212
REMARK  3 active torsions:
REMARK  status: ('A' for Active; 'I' for Inactive)
REMARK    1  A    between atoms: C_9  and  C_10 
REMARK    2  A    between atoms: C_10  and  C_11 
REMARK       I    between atoms: C_11  and  N_12 
REMARK    3  A    between atoms: N_12  and  C_13 
ROOT
HETATM    1  C   UNL     1      22.716  51.290  48.572  1.00  0.00     0.001 A 
HETATM    2  C   UNL     1      23.570  50.234  48.905  1.00  0.00     0.014 A 
HETATM    3  C   UNL     1      23.084  48.919  48.922  1.00  0.00     0.006 A 
HETATM    4  C   UNL     1      21.745  48.682  48.618  1.00  0.00     0.046 A 
HETATM    5  C   UNL     1      21.234  47.303  48.663  1.00  0.00     0.272 A 
HETATM    6  O   UNL     1      20.064  47.045  48.403  1.00  0.00    -0.266 OA
HETATM    7  N   UNL     1      22.141  46.335  49.017  1.00  0.00    -0.243 N 
HETATM    8  N   UNL     1      23.455  46.533  49.298  1.00  0.00    -0.175 NA
HETATM    9  C   UNL     1      23.931  47.741  49.251  1.00  0.00     0.074 A 
HETATM   10  C   UNL     1      20.891  49.739  48.283  1.00  0.00     0.018 A 
HETATM   11  C   UNL     1      21.380  51.043  48.258  1.00  0.00     0.001 A 
HETATM   12  H   UNL     1      21.800  45.378  49.060  1.00  0.00     0.192 HD
ENDROOT
BRANCH   9  13
HETATM   13  C   UNL     1      25.400  47.967  49.546  1.00  0.00     0.165 C 
BRANCH  13  14
HETATM   14  C   UNL     1      26.255  46.867  50.147  1.00  0.00     0.228 C 
HETATM   15  N   UNL     1      25.917  46.457  51.417  1.00  0.00    -0.326 N 
HETATM   16  H   UNL     1      25.277  47.065  51.930  1.00  0.00     0.169 HD
HETATM   17  O   UNL     1      27.132  46.363  49.446  1.00  0.00    -0.273 OA
BRANCH  15  18
HETATM   18  C   UNL     1      26.446  45.377  52.166  1.00  0.00     0.052 A 
HETATM   19  C   UNL     1      26.825  45.595  53.504  1.00  0.00     0.037 A 
HETATM   20 BR   UNL     1      26.650  47.299  54.332  1.00  0.00    -0.049 Br
HETATM   21  C   UNL     1      27.344  44.557  54.287  1.00  0.00     0.021 A 
HETATM   22  C   UNL     1      27.487  43.282  53.744  1.00  0.00     0.002 A 
HETATM   23  C   UNL     1      27.112  43.050  52.424  1.00  0.00     0.002 A 
HETATM   24  C   UNL     1      26.593  44.088  51.643  1.00  0.00     0.031 A 
ENDBRANCH  15  18
ENDBRANCH  13  14
ENDBRANCH   9  13
TORSDOF 3
ENDMDL
