MODEL 1
REMARK VINA RESULT:      -9.3      0.000      0.000
REMARK  5 active torsions:
REMARK  status: ('A' for Active; 'I' for Inactive)
REMARK    1  A    between atoms: C_8  and  C_9 
REMARK    2  A    between atoms: C_9  and  N_10 
REMARK    3  A    between atoms: N_13  and  C_15 
REMARK    4  A    between atoms: C_15  and  C_16 
REMARK    5  A    between atoms: C_19  and  C_20 
ROOT
HETATM    1  N   UNL     1      25.715  46.100  49.897  1.00  0.00    -0.405 N 
HETATM    2  C   UNL     1      26.561  45.744  51.044  1.00  0.00     0.150 C 
HETATM    3  C   UNL     1      26.131  44.605  52.016  1.00  0.00     0.206 C 
HETATM    4  N   UNL     1      26.472  43.212  51.489  1.00  0.00    -0.059 N 
HETATM    5  H   UNL     1      26.189  42.582  52.253  1.00  0.00     0.280 HD
HETATM    6  C   UNL     1      25.661  42.784  50.293  1.00  0.00     0.242 C 
HETATM    7  C   UNL     1      24.551  43.781  49.955  1.00  0.00     0.029 C 
HETATM    8  C   UNL     1      25.092  44.993  49.170  1.00  0.00     0.123 C 
HETATM    9  C   UNL     1      24.640  44.611  52.363  1.00  0.00     0.035 C 
HETATM   10  C   UNL     1      23.751  44.175  51.199  1.00  0.00     0.010 C 
ENDROOT
BRANCH   4  11
HETATM   11  C   UNL     1      27.960  42.898  51.313  1.00  0.00     0.302 C 
BRANCH  11  12
HETATM   12  C   UNL     1      28.751  43.068  52.547  1.00  0.00     0.107 A 
HETATM   13  O   UNL     1      29.957  42.449  52.552  1.00  0.00    -0.216 OA
HETATM   14  N   UNL     1      30.645  42.788  53.687  1.00  0.00    -0.128 NA
HETATM   15  C   UNL     1      29.828  43.562  54.422  1.00  0.00     0.097 A 
HETATM   16  C   UNL     1      28.600  43.758  53.724  1.00  0.00     0.071 A 
BRANCH  15  17
HETATM   17  C   UNL     1      30.238  44.117  55.711  1.00  0.00    -0.005 A 
HETATM   18  C   UNL     1      29.671  45.314  56.181  1.00  0.00     0.014 A 
HETATM   19  C   UNL     1      30.035  45.836  57.424  1.00  0.00     0.001 A 
HETATM   20  C   UNL     1      30.975  45.172  58.210  1.00  0.00     0.000 A 
HETATM   21  C   UNL     1      31.554  43.991  57.752  1.00  0.00     0.001 A 
HETATM   22  C   UNL     1      31.187  43.464  56.511  1.00  0.00     0.014 A 
ENDBRANCH  15  17
ENDBRANCH  11  12
ENDBRANCH   4  11
BRANCH   1  23
HETATM   23  C   UNL     1      24.813  47.247  50.133  1.00  0.00     0.176 C 
BRANCH  23  24
HETATM   24  C   UNL     1      25.085  48.407  49.223  1.00  0.00     0.050 A 
HETATM   25  C   UNL     1      26.263  49.011  48.816  1.00  0.00     0.030 A 
HETATM   26  C   UNL     1      27.675  48.721  49.128  1.00  0.00     0.070 C 
HETATM   27  N   UNL     1      25.880  50.059  47.988  1.00  0.00    -0.354 N 
HETATM   28  H   UNL     1      26.522  50.708  47.534  1.00  0.00     0.166 HD
HETATM   29  C   UNL     1      24.553  50.134  47.879  1.00  0.00     0.180 A 
HETATM   30  N   UNL     1      24.066  49.133  48.611  1.00  0.00    -0.353 N 
HETATM   31  H   UNL     1      23.077  48.923  48.736  1.00  0.00     0.166 HD
ENDBRANCH  23  24
ENDBRANCH   1  23
TORSDOF 5
ENDMDL
MODEL 2
REMARK VINA RESULT:      -9.0      3.841      9.549
REMARK  5 active torsions:
REMARK  status: ('A' for Active; 'I' for Inactive)
REMARK    1  A    between atoms: C_8  and  C_9 
REMARK    2  A    between atoms: C_9  and  N_10 
REMARK    3  A    between atoms: N_13  and  C_15 
REMARK    4  A    between atoms: C_15  and  C_16 
REMARK    5  A    between atoms: C_19  and  C_20 
ROOT
HETATM    1  N   UNL     1      25.594  43.097  49.820  1.00  0.00    -0.405 N 
HETATM    2  C   UNL     1      24.332  43.850  49.829  1.00  0.00     0.150 C 
HETATM    3  C   UNL     1      24.135  45.045  50.808  1.00  0.00     0.206 C 
HETATM    4  N   UNL     1      24.763  46.342  50.299  1.00  0.00    -0.059 N 
HETATM    5  H   UNL     1      24.502  47.039  51.011  1.00  0.00     0.280 HD
HETATM    6  C   UNL     1      26.270  46.337  50.277  1.00  0.00     0.242 C 
HETATM    7  C   UNL     1      26.857  45.079  50.921  1.00  0.00     0.029 C 
HETATM    8  C   UNL     1      26.826  43.876  49.957  1.00  0.00     0.123 C 
HETATM    9  C   UNL     1      24.681  44.794  52.216  1.00  0.00     0.035 C 
HETATM   10  C   UNL     1      26.208  44.786  52.276  1.00  0.00     0.010 C 
ENDROOT
BRANCH   4  11
HETATM   11  C   UNL     1      24.174  46.922  49.011  1.00  0.00     0.302 C 
BRANCH  11  12
HETATM   12  C   UNL     1      23.274  48.069  49.236  1.00  0.00     0.107 A 
HETATM   13  O   UNL     1      23.877  49.204  49.669  1.00  0.00    -0.216 OA
HETATM   14  N   UNL     1      22.965  50.224  49.712  1.00  0.00    -0.128 NA
HETATM   15  C   UNL     1      21.774  49.698  49.375  1.00  0.00     0.097 A 
HETATM   16  C   UNL     1      21.933  48.314  49.068  1.00  0.00     0.071 A 
BRANCH  15  17
HETATM   17  C   UNL     1      20.559  50.508  49.310  1.00  0.00    -0.005 A 
HETATM   18  C   UNL     1      19.437  50.167  50.084  1.00  0.00     0.014 A 
HETATM   19  C   UNL     1      18.282  50.951  50.050  1.00  0.00     0.001 A 
HETATM   20  C   UNL     1      18.231  52.082  49.238  1.00  0.00     0.000 A 
HETATM   21  C   UNL     1      19.332  52.427  48.457  1.00  0.00     0.001 A 
HETATM   22  C   UNL     1      20.490  51.646  48.493  1.00  0.00     0.014 A 
ENDBRANCH  15  17
ENDBRANCH  11  12
ENDBRANCH   4  11
BRANCH   1  23
HETATM   23  C   UNL     1      25.574  41.857  50.625  1.00  0.00     0.176 C 
BRANCH  23  24
HETATM   24  C   UNL     1      26.941  41.397  51.032  1.00  0.00     0.050 A 
HETATM   25  C   UNL     1      27.990  40.852  50.309  1.00  0.00     0.030 A 
HETATM   26  C   UNL     1      28.138  40.537  48.876  1.00  0.00     0.070 C 
HETATM   27  N   UNL     1      28.993  40.602  51.237  1.00  0.00    -0.354 N 
HETATM   28  H   UNL     1      29.899  40.187  51.020  1.00  0.00     0.166 HD
HETATM   29  C   UNL     1      28.616  40.948  52.469  1.00  0.00     0.180 A 
HETATM   30  N   UNL     1      27.384  41.441  52.351  1.00  0.00    -0.353 N 
HETATM   31  H   UNL     1      26.814  41.789  53.121  1.00  0.00     0.166 HD
ENDBRANCH  23  24
ENDBRANCH   1  23
TORSDOF 5
ENDMDL
MODEL 3
REMARK VINA RESULT:      -8.7     12.147     13.950
REMARK  5 active torsions:
REMARK  status: ('A' for Active; 'I' for Inactive)
REMARK    1  A    between atoms: C_8  and  C_9 
REMARK    2  A    between atoms: C_9  and  N_10 
REMARK    3  A    between atoms: N_13  and  C_15 
REMARK    4  A    between atoms: C_15  and  C_16 
REMARK    5  A    between atoms: C_19  and  C_20 
ROOT
HETATM    1  N   UNL     1      31.048  51.268  40.600  1.00  0.00    -0.405 N 
HETATM    2  C   UNL     1      32.123  51.983  41.300  1.00  0.00     0.150 C 
HETATM    3  C   UNL     1      32.901  51.294  42.460  1.00  0.00     0.206 C 
HETATM    4  N   UNL     1      34.009  50.364  41.965  1.00  0.00    -0.059 N 
HETATM    5  H   UNL     1      34.463  50.037  42.829  1.00  0.00     0.280 HD
HETATM    6  C   UNL     1      33.513  49.119  41.276  1.00  0.00     0.242 C 
HETATM    7  C   UNL     1      31.992  48.973  41.359  1.00  0.00     0.029 C 
HETATM    8  C   UNL     1      31.277  49.851  40.312  1.00  0.00     0.123 C 
HETATM    9  C   UNL     1      32.015  50.484  43.410  1.00  0.00     0.035 C 
HETATM   10  C   UNL     1      31.483  49.196  42.785  1.00  0.00     0.010 C 
ENDROOT
BRANCH   4  11
HETATM   11  C   UNL     1      35.156  51.024  41.197  1.00  0.00     0.302 C 
BRANCH  11  12
HETATM   12  C   UNL     1      35.960  51.951  42.016  1.00  0.00     0.107 A 
HETATM   13  O   UNL     1      36.244  53.143  41.433  1.00  0.00    -0.216 OA
HETATM   14  N   UNL     1      36.876  53.958  42.335  1.00  0.00    -0.128 NA
HETATM   15  C   UNL     1      37.049  53.239  43.457  1.00  0.00     0.097 A 
HETATM   16  C   UNL     1      36.479  51.943  43.287  1.00  0.00     0.071 A 
BRANCH  15  17
HETATM   17  C   UNL     1      37.693  53.799  44.645  1.00  0.00    -0.005 A 
HETATM   18  C   UNL     1      37.901  53.001  45.782  1.00  0.00     0.014 A 
HETATM   19  C   UNL     1      38.541  53.519  46.910  1.00  0.00     0.001 A 
HETATM   20  C   UNL     1      38.975  54.843  46.918  1.00  0.00     0.000 A 
HETATM   21  C   UNL     1      38.766  55.649  45.802  1.00  0.00     0.001 A 
HETATM   22  C   UNL     1      38.130  55.131  44.671  1.00  0.00     0.014 A 
ENDBRANCH  15  17
ENDBRANCH  11  12
ENDBRANCH   4  11
BRANCH   1  23
HETATM   23  C   UNL     1      29.688  51.568  41.096  1.00  0.00     0.176 C 
BRANCH  23  24
HETATM   24  C   UNL     1      28.612  51.228  40.108  1.00  0.00     0.050 A 
HETATM   25  C   UNL     1      28.248  51.799  38.900  1.00  0.00     0.030 A 
HETATM   26  C   UNL     1      28.794  52.944  38.148  1.00  0.00     0.070 C 
HETATM   27  N   UNL     1      27.157  51.063  38.452  1.00  0.00    -0.354 N 
HETATM   28  H   UNL     1      26.647  51.243  37.588  1.00  0.00     0.166 HD
HETATM   29  C   UNL     1      26.834  50.097  39.314  1.00  0.00     0.180 A 
HETATM   30  N   UNL     1      27.716  50.181  40.309  1.00  0.00    -0.353 N 
HETATM   31  H   UNL     1      27.733  49.581  41.132  1.00  0.00     0.166 HD
ENDBRANCH  23  24
ENDBRANCH   1  23
TORSDOF 5
ENDMDL
MODEL 4
REMARK VINA RESULT:      -8.5      2.718      5.638
REMARK  5 active torsions:
REMARK  status: ('A' for Active; 'I' for Inactive)
REMARK    1  A    between atoms: C_8  and  C_9 
REMARK    2  A    between atoms: C_9  and  N_10 
REMARK    3  A    between atoms: N_13  and  C_15 
REMARK    4  A    between atoms: C_15  and  C_16 
REMARK    5  A    between atoms: C_19  and  C_20 
ROOT
HETATM    1  N   UNL     1      26.780  43.074  49.989  1.00  0.00    -0.405 N 
HETATM    2  C   UNL     1      26.504  44.442  49.530  1.00  0.00     0.150 C 
HETATM    3  C   UNL     1      25.036  44.932  49.355  1.00  0.00     0.206 C 
HETATM    4  N   UNL     1      24.395  45.374  50.670  1.00  0.00    -0.059 N 
HETATM    5  H   UNL     1      23.467  45.722  50.388  1.00  0.00     0.280 HD
HETATM    6  C   UNL     1      24.125  44.252  51.639  1.00  0.00     0.242 C 
HETATM    7  C   UNL     1      24.412  42.877  51.032  1.00  0.00     0.029 C 
HETATM    8  C   UNL     1      25.918  42.548  51.049  1.00  0.00     0.123 C 
HETATM    9  C   UNL     1      24.105  43.897  48.717  1.00  0.00     0.035 C 
HETATM   10  C   UNL     1      23.776  42.730  49.648  1.00  0.00     0.010 C 
ENDROOT
BRANCH   4  11
HETATM   11  C   UNL     1      25.025  46.587  51.359  1.00  0.00     0.302 C 
BRANCH  11  12
HETATM   12  C   UNL     1      25.956  46.232  52.446  1.00  0.00     0.107 A 
HETATM   13  O   UNL     1      25.503  46.477  53.701  1.00  0.00    -0.216 OA
HETATM   14  N   UNL     1      26.396  45.987  54.617  1.00  0.00    -0.128 NA
HETATM   15  C   UNL     1      27.442  45.504  53.924  1.00  0.00     0.097 A 
HETATM   16  C   UNL     1      27.197  45.650  52.526  1.00  0.00     0.071 A 
BRANCH  15  17
HETATM   17  C   UNL     1      28.594  44.892  54.585  1.00  0.00    -0.005 A 
HETATM   18  C   UNL     1      29.250  45.562  55.631  1.00  0.00     0.014 A 
HETATM   19  C   UNL     1      30.333  44.973  56.286  1.00  0.00     0.001 A 
HETATM   20  C   UNL     1      30.778  43.710  55.901  1.00  0.00     0.000 A 
HETATM   21  C   UNL     1      30.144  43.039  54.859  1.00  0.00     0.001 A 
HETATM   22  C   UNL     1      29.057  43.625  54.204  1.00  0.00     0.014 A 
ENDBRANCH  15  17
ENDBRANCH  11  12
ENDBRANCH   4  11
BRANCH   1  23
HETATM   23  C   UNL     1      27.057  42.108  48.905  1.00  0.00     0.176 C 
BRANCH  23  24
HETATM   24  C   UNL     1      27.554  40.785  49.407  1.00  0.00     0.050 A 
HETATM   25  C   UNL     1      27.171  39.484  49.128  1.00  0.00     0.030 A 
HETATM   26  C   UNL     1      26.140  38.933  48.229  1.00  0.00     0.070 C 
HETATM   27  N   UNL     1      27.981  38.678  49.918  1.00  0.00    -0.354 N 
HETATM   28  H   UNL     1      27.937  37.659  49.951  1.00  0.00     0.166 HD
HETATM   29  C   UNL     1      28.816  39.405  50.662  1.00  0.00     0.180 A 
HETATM   30  N   UNL     1      28.573  40.678  50.349  1.00  0.00    -0.353 N 
HETATM   31  H   UNL     1      29.047  41.483  50.755  1.00  0.00     0.166 HD
ENDBRANCH  23  24
ENDBRANCH   1  23
TORSDOF 5
ENDMDL
MODEL 5
REMARK VINA RESULT:      -8.4      5.315      7.999
REMARK  5 active torsions:
REMARK  status: ('A' for Active; 'I' for Inactive)
REMARK    1  A    between atoms: C_8  and  C_9 
REMARK    2  A    between atoms: C_9  and  N_10 
REMARK    3  A    between atoms: N_13  and  C_15 
REMARK    4  A    between atoms: C_15  and  C_16 
REMARK    5  A    between atoms: C_19  and  C_20 
ROOT
HETATM    1  N   UNL     1      19.647  50.951  47.706  1.00  0.00    -0.405 N 
HETATM    2  C   UNL     1      21.026  50.840  48.201  1.00  0.00     0.150 C 
HETATM    3  C   UNL     1      21.317  50.168  49.575  1.00  0.00     0.206 C 
HETATM    4  N   UNL     1      21.352  48.642  49.496  1.00  0.00    -0.059 N 
HETATM    5  H   UNL     1      21.610  48.350  50.450  1.00  0.00     0.280 HD
HETATM    6  C   UNL     1      20.014  48.002  49.230  1.00  0.00     0.242 C 
HETATM    7  C   UNL     1      18.869  49.016  49.250  1.00  0.00     0.029 C 
HETATM    8  C   UNL     1      18.774  49.797  47.924  1.00  0.00     0.123 C 
HETATM    9  C   UNL     1      20.323  50.546  50.677  1.00  0.00     0.035 C 
HETATM   10  C   UNL     1      18.942  49.922  50.481  1.00  0.00     0.010 C 
ENDROOT
BRANCH   4  11
HETATM   11  C   UNL     1      22.460  48.032  48.634  1.00  0.00     0.302 C 
BRANCH  11  12
HETATM   12  C   UNL     1      23.636  47.591  49.407  1.00  0.00     0.107 A 
HETATM   13  O   UNL     1      24.468  48.581  49.814  1.00  0.00    -0.216 OA
HETATM   14  N   UNL     1      25.441  48.062  50.627  1.00  0.00    -0.128 NA
HETATM   15  C   UNL     1      25.252  46.732  50.662  1.00  0.00     0.097 A 
HETATM   16  C   UNL     1      24.105  46.392  49.885  1.00  0.00     0.071 A 
BRANCH  15  17
HETATM   17  C   UNL     1      26.112  45.846  51.445  1.00  0.00    -0.005 A 
HETATM   18  C   UNL     1      26.823  44.809  50.817  1.00  0.00     0.014 A 
HETATM   19  C   UNL     1      27.669  43.977  51.553  1.00  0.00     0.001 A 
HETATM   20  C   UNL     1      27.811  44.167  52.926  1.00  0.00     0.000 A 
HETATM   21  C   UNL     1      27.105  45.184  53.564  1.00  0.00     0.001 A 
HETATM   22  C   UNL     1      26.261  46.020  52.829  1.00  0.00     0.014 A 
ENDBRANCH  15  17
ENDBRANCH  11  12
ENDBRANCH   4  11
BRANCH   1  23
HETATM   23  C   UNL     1      19.001  52.253  47.978  1.00  0.00     0.176 C 
BRANCH  23  24
HETATM   24  C   UNL     1      17.586  52.322  47.489  1.00  0.00     0.050 A 
HETATM   25  C   UNL     1      16.371  52.215  48.145  1.00  0.00     0.030 A 
HETATM   26  C   UNL     1      16.036  52.002  49.565  1.00  0.00     0.070 C 
HETATM   27  N   UNL     1      15.400  52.336  47.159  1.00  0.00    -0.354 N 
HETATM   28  H   UNL     1      14.395  52.288  47.320  1.00  0.00     0.166 HD
HETATM   29  C   UNL     1      15.948  52.498  45.953  1.00  0.00     0.180 A 
HETATM   30  N   UNL     1      17.266  52.504  46.145  1.00  0.00    -0.353 N 
HETATM   31  H   UNL     1      17.967  52.603  45.412  1.00  0.00     0.166 HD
ENDBRANCH  23  24
ENDBRANCH   1  23
TORSDOF 5
ENDMDL
MODEL 6
REMARK VINA RESULT:      -8.4      2.815      5.360
REMARK  5 active torsions:
REMARK  status: ('A' for Active; 'I' for Inactive)
REMARK    1  A    between atoms: C_8  and  C_9 
REMARK    2  A    between atoms: C_9  and  N_10 
REMARK    3  A    between atoms: N_13  and  C_15 
REMARK    4  A    between atoms: C_15  and  C_16 
REMARK    5  A    between atoms: C_19  and  C_20 
ROOT
HETATM    1  N   UNL     1      27.277  43.639  51.265  1.00  0.00    -0.405 N 
HETATM    2  C   UNL     1      27.095  45.033  50.836  1.00  0.00     0.150 C 
HETATM    3  C   UNL     1      25.692  45.704  50.918  1.00  0.00     0.206 C 
HETATM    4  N   UNL     1      25.358  46.219  52.317  1.00  0.00    -0.059 N 
HETATM    5  H   UNL     1      24.445  46.681  52.200  1.00  0.00     0.280 HD
HETATM    6  C   UNL     1      25.131  45.136  53.341  1.00  0.00     0.242 C 
HETATM    7  C   UNL     1      25.130  43.738  52.719  1.00  0.00     0.029 C 
HETATM    8  C   UNL     1      26.562  43.222  52.472  1.00  0.00     0.123 C 
HETATM    9  C   UNL     1      24.540  44.796  50.477  1.00  0.00     0.035 C 
HETATM   10  C   UNL     1      24.242  43.677  51.474  1.00  0.00     0.010 C 
ENDROOT
BRANCH   4  11
HETATM   11  C   UNL     1      26.247  47.340  52.858  1.00  0.00     0.302 C 
BRANCH  11  12
HETATM   12  C   UNL     1      27.158  46.907  53.934  1.00  0.00     0.107 A 
HETATM   13  O   UNL     1      26.882  47.405  55.165  1.00  0.00    -0.216 OA
HETATM   14  N   UNL     1      27.709  46.830  56.093  1.00  0.00    -0.128 NA
HETATM   15  C   UNL     1      28.551  46.027  55.420  1.00  0.00     0.097 A 
HETATM   16  C   UNL     1      28.231  46.055  54.030  1.00  0.00     0.071 A 
BRANCH  15  17
HETATM   17  C   UNL     1      29.580  45.240  56.098  1.00  0.00    -0.005 A 
HETATM   18  C   UNL     1      30.026  45.608  57.379  1.00  0.00     0.014 A 
HETATM   19  C   UNL     1      30.988  44.846  58.046  1.00  0.00     0.001 A 
HETATM   20  C   UNL     1      31.521  43.711  57.439  1.00  0.00     0.000 A 
HETATM   21  C   UNL     1      31.097  43.340  56.165  1.00  0.00     0.001 A 
HETATM   22  C   UNL     1      30.131  44.098  55.498  1.00  0.00     0.014 A 
ENDBRANCH  15  17
ENDBRANCH  11  12
ENDBRANCH   4  11
BRANCH   1  23
HETATM   23  C   UNL     1      27.232  42.650  50.167  1.00  0.00     0.176 C 
BRANCH  23  24
HETATM   24  C   UNL     1      27.890  41.350  50.519  1.00  0.00     0.050 A 
HETATM   25  C   UNL     1      28.793  41.005  51.511  1.00  0.00     0.030 A 
HETATM   26  C   UNL     1      29.424  41.796  52.584  1.00  0.00     0.070 C 
HETATM   27  N   UNL     1      29.062  39.656  51.321  1.00  0.00    -0.354 N 
HETATM   28  H   UNL     1      29.704  39.102  51.888  1.00  0.00     0.166 HD
HETATM   29  C   UNL     1      28.392  39.168  50.275  1.00  0.00     0.180 A 
HETATM   30  N   UNL     1      27.672  40.181  49.794  1.00  0.00    -0.353 N 
HETATM   31  H   UNL     1      27.054  40.130  48.986  1.00  0.00     0.166 HD
ENDBRANCH  23  24
ENDBRANCH   1  23
TORSDOF 5
ENDMDL
MODEL 7
REMARK VINA RESULT:      -8.3      2.995      9.397
REMARK  5 active torsions:
REMARK  status: ('A' for Active; 'I' for Inactive)
REMARK    1  A    between atoms: C_8  and  C_9 
REMARK    2  A    between atoms: C_9  and  N_10 
REMARK    3  A    between atoms: N_13  and  C_15 
REMARK    4  A    between atoms: C_15  and  C_16 
REMARK    5  A    between atoms: C_19  and  C_20 
ROOT
HETATM    1  N   UNL     1      26.448  44.748  52.460  1.00  0.00    -0.405 N 
HETATM    2  C   UNL     1      27.128  45.458  51.368  1.00  0.00     0.150 C 
HETATM    3  C   UNL     1      26.595  45.353  49.908  1.00  0.00     0.206 C 
HETATM    4  N   UNL     1      25.426  46.298  49.632  1.00  0.00    -0.059 N 
HETATM    5  H   UNL     1      25.228  46.160  48.630  1.00  0.00     0.280 HD
HETATM    6  C   UNL     1      24.150  45.936  50.347  1.00  0.00     0.242 C 
HETATM    7  C   UNL     1      24.254  44.599  51.082  1.00  0.00     0.029 C 
HETATM    8  C   UNL     1      24.985  44.744  52.432  1.00  0.00     0.123 C 
HETATM    9  C   UNL     1      26.148  43.944  49.508  1.00  0.00     0.035 C 
HETATM   10  C   UNL     1      24.849  43.510  50.187  1.00  0.00     0.010 C 
ENDROOT
BRANCH   4  11
HETATM   11  C   UNL     1      25.729  47.795  49.723  1.00  0.00     0.302 C 
BRANCH  11  12
HETATM   12  C   UNL     1      24.667  48.649  49.157  1.00  0.00     0.107 A 
HETATM   13  O   UNL     1      25.038  49.411  48.098  1.00  0.00    -0.216 OA
HETATM   14  N   UNL     1      23.943  50.053  47.585  1.00  0.00    -0.128 NA
HETATM   15  C   UNL     1      22.902  49.743  48.377  1.00  0.00     0.097 A 
HETATM   16  C   UNL     1      23.331  48.848  49.402  1.00  0.00     0.071 A 
BRANCH  15  17
HETATM   17  C   UNL     1      21.555  50.254  48.124  1.00  0.00    -0.005 A 
HETATM   18  C   UNL     1      21.106  51.420  48.766  1.00  0.00     0.014 A 
HETATM   19  C   UNL     1      19.832  51.931  48.508  1.00  0.00     0.001 A 
HETATM   20  C   UNL     1      18.989  51.279  47.610  1.00  0.00     0.000 A 
HETATM   21  C   UNL     1      19.416  50.116  46.975  1.00  0.00     0.001 A 
HETATM   22  C   UNL     1      20.692  49.606  47.228  1.00  0.00     0.014 A 
ENDBRANCH  15  17
ENDBRANCH  11  12
ENDBRANCH   4  11
BRANCH   1  23
HETATM   23  C   UNL     1      27.046  43.442  52.808  1.00  0.00     0.176 C 
BRANCH  23  24
HETATM   24  C   UNL     1      28.311  43.566  53.604  1.00  0.00     0.050 A 
HETATM   25  C   UNL     1      28.681  44.418  54.631  1.00  0.00     0.030 A 
HETATM   26  C   UNL     1      27.958  45.506  55.315  1.00  0.00     0.070 C 
HETATM   27  N   UNL     1      29.988  44.072  54.952  1.00  0.00    -0.354 N 
HETATM   28  H   UNL     1      30.553  44.527  55.668  1.00  0.00     0.166 HD
HETATM   29  C   UNL     1      30.432  43.078  54.181  1.00  0.00     0.180 A 
HETATM   30  N   UNL     1      29.422  42.758  53.374  1.00  0.00    -0.353 N 
HETATM   31  H   UNL     1      29.448  42.034  52.658  1.00  0.00     0.166 HD
ENDBRANCH  23  24
ENDBRANCH   1  23
TORSDOF 5
ENDMDL
MODEL 8
REMARK VINA RESULT:      -8.3      2.203      2.986
REMARK  5 active torsions:
REMARK  status: ('A' for Active; 'I' for Inactive)
REMARK    1  A    between atoms: C_8  and  C_9 
REMARK    2  A    between atoms: C_9  and  N_10 
REMARK    3  A    between atoms: N_13  and  C_15 
REMARK    4  A    between atoms: C_15  and  C_16 
REMARK    5  A    between atoms: C_19  and  C_20 
ROOT
HETATM    1  N   UNL     1      23.563  45.065  48.573  1.00  0.00    -0.405 N 
HETATM    2  C   UNL     1      24.321  45.173  49.828  1.00  0.00     0.150 C 
HETATM    3  C   UNL     1      24.582  43.909  50.700  1.00  0.00     0.206 C 
HETATM    4  N   UNL     1      25.760  43.074  50.202  1.00  0.00    -0.059 N 
HETATM    5  H   UNL     1      25.845  42.323  50.902  1.00  0.00     0.280 HD
HETATM    6  C   UNL     1      25.516  42.375  48.890  1.00  0.00     0.242 C 
HETATM    7  C   UNL     1      24.072  42.526  48.409  1.00  0.00     0.029 C 
HETATM    8  C   UNL     1      23.834  43.894  47.738  1.00  0.00     0.123 C 
HETATM    9  C   UNL     1      23.375  42.974  50.819  1.00  0.00     0.035 C 
HETATM   10  C   UNL     1      23.072  42.218  49.526  1.00  0.00     0.010 C 
ENDROOT
BRANCH   4  11
HETATM   11  C   UNL     1      27.135  43.746  50.246  1.00  0.00     0.302 C 
BRANCH  11  12
HETATM   12  C   UNL     1      27.839  43.570  51.530  1.00  0.00     0.107 A 
HETATM   13  O   UNL     1      28.451  42.371  51.697  1.00  0.00    -0.216 OA
HETATM   14  N   UNL     1      29.174  42.379  52.860  1.00  0.00    -0.128 NA
HETATM   15  C   UNL     1      28.948  43.565  53.451  1.00  0.00     0.097 A 
HETATM   16  C   UNL     1      28.090  44.354  52.629  1.00  0.00     0.071 A 
BRANCH  15  17
HETATM   17  C   UNL     1      29.569  43.928  54.725  1.00  0.00    -0.005 A 
HETATM   18  C   UNL     1      30.546  43.098  55.300  1.00  0.00     0.014 A 
HETATM   19  C   UNL     1      31.165  43.450  56.500  1.00  0.00     0.001 A 
HETATM   20  C   UNL     1      30.811  44.634  57.145  1.00  0.00     0.000 A 
HETATM   21  C   UNL     1      29.836  45.461  56.593  1.00  0.00     0.001 A 
HETATM   22  C   UNL     1      29.219  45.112  55.389  1.00  0.00     0.014 A 
ENDBRANCH  15  17
ENDBRANCH  11  12
ENDBRANCH   4  11
BRANCH   1  23
HETATM   23  C   UNL     1      22.127  45.399  48.694  1.00  0.00     0.176 C 
BRANCH  23  24
HETATM   24  C   UNL     1      21.843  46.858  48.501  1.00  0.00     0.050 A 
HETATM   25  C   UNL     1      21.095  47.540  47.556  1.00  0.00     0.030 A 
HETATM   26  C   UNL     1      20.303  47.072  46.403  1.00  0.00     0.070 C 
HETATM   27  N   UNL     1      21.224  48.886  47.876  1.00  0.00    -0.354 N 
HETATM   28  H   UNL     1      20.797  49.653  47.358  1.00  0.00     0.166 HD
HETATM   29  C   UNL     1      22.007  49.060  48.942  1.00  0.00     0.180 A 
HETATM   30  N   UNL     1      22.374  47.840  49.333  1.00  0.00    -0.353 N 
HETATM   31  H   UNL     1      22.983  47.635  50.123  1.00  0.00     0.166 HD
ENDBRANCH  23  24
ENDBRANCH   1  23
TORSDOF 5
ENDMDL
MODEL 9
REMARK VINA RESULT:      -8.2      5.306      9.107
REMARK  5 active torsions:
REMARK  status: ('A' for Active; 'I' for Inactive)
REMARK    1  A    between atoms: C_8  and  C_9 
REMARK    2  A    between atoms: C_9  and  N_10 
REMARK    3  A    between atoms: N_13  and  C_15 
REMARK    4  A    between atoms: C_15  and  C_16 
REMARK    5  A    between atoms: C_19  and  C_20 
ROOT
HETATM    1  N   UNL     1      19.046  48.875  48.658  1.00  0.00    -0.405 N 
HETATM    2  C   UNL     1      19.734  49.545  47.546  1.00  0.00     0.150 C 
HETATM    3  C   UNL     1      20.249  51.007  47.705  1.00  0.00     0.206 C 
HETATM    4  N   UNL     1      21.594  51.089  48.426  1.00  0.00    -0.059 N 
HETATM    5  H   UNL     1      21.827  52.092  48.401  1.00  0.00     0.280 HD
HETATM    6  C   UNL     1      21.539  50.727  49.888  1.00  0.00     0.242 C 
HETATM    7  C   UNL     1      20.107  50.502  50.379  1.00  0.00     0.029 C 
HETATM    8  C   UNL     1      19.587  49.101  49.999  1.00  0.00     0.123 C 
HETATM    9  C   UNL     1      19.277  51.933  48.441  1.00  0.00     0.035 C 
HETATM   10  C   UNL     1      19.177  51.634  49.936  1.00  0.00     0.010 C 
ENDROOT
BRANCH   4  11
HETATM   11  C   UNL     1      22.784  50.438  47.720  1.00  0.00     0.302 C 
BRANCH  11  12
HETATM   12  C   UNL     1      23.307  49.248  48.416  1.00  0.00     0.107 A 
HETATM   13  O   UNL     1      24.317  49.484  49.291  1.00  0.00    -0.216 OA
HETATM   14  N   UNL     1      24.623  48.331  49.965  1.00  0.00    -0.128 NA
HETATM   15  C   UNL     1      23.848  47.360  49.450  1.00  0.00     0.097 A 
HETATM   16  C   UNL     1      22.994  47.911  48.448  1.00  0.00     0.071 A 
BRANCH  15  17
HETATM   17  C   UNL     1      23.904  45.983  49.938  1.00  0.00    -0.005 A 
HETATM   18  C   UNL     1      23.158  44.975  49.305  1.00  0.00     0.014 A 
HETATM   19  C   UNL     1      23.227  43.652  49.747  1.00  0.00     0.001 A 
HETATM   20  C   UNL     1      24.038  43.321  50.830  1.00  0.00     0.000 A 
HETATM   21  C   UNL     1      24.776  44.312  51.474  1.00  0.00     0.001 A 
HETATM   22  C   UNL     1      24.711  45.635  51.031  1.00  0.00     0.014 A 
ENDBRANCH  15  17
ENDBRANCH  11  12
ENDBRANCH   4  11
BRANCH   1  23
HETATM   23  C   UNL     1      17.570  48.931  48.588  1.00  0.00     0.176 C 
BRANCH  23  24
HETATM   24  C   UNL     1      17.004  48.131  47.454  1.00  0.00     0.050 A 
HETATM   25  C   UNL     1      17.081  46.784  47.138  1.00  0.00     0.030 A 
HETATM   26  C   UNL     1      17.745  45.653  47.813  1.00  0.00     0.070 C 
HETATM   27  N   UNL     1      16.376  46.636  45.951  1.00  0.00    -0.354 N 
HETATM   28  H   UNL     1      16.256  45.757  45.448  1.00  0.00     0.166 HD
HETATM   29  C   UNL     1      15.889  47.803  45.525  1.00  0.00     0.180 A 
HETATM   30  N   UNL     1      16.252  48.708  46.433  1.00  0.00    -0.353 N 
HETATM   31  H   UNL     1      16.036  49.702  46.391  1.00  0.00     0.166 HD
ENDBRANCH  23  24
ENDBRANCH   1  23
TORSDOF 5
ENDMDL
MODEL 10
REMARK VINA RESULT:      -8.2      4.884      7.058
REMARK  5 active torsions:
REMARK  status: ('A' for Active; 'I' for Inactive)
REMARK    1  A    between atoms: C_8  and  C_9 
REMARK    2  A    between atoms: C_9  and  N_10 
REMARK    3  A    between atoms: N_13  and  C_15 
REMARK    4  A    between atoms: C_15  and  C_16 
REMARK    5  A    between atoms: C_19  and  C_20 
ROOT
HETATM    1  N   UNL     1      26.831  39.703  47.126  1.00  0.00    -0.405 N 
HETATM    2  C   UNL     1      25.955  39.517  48.291  1.00  0.00     0.150 C 
HETATM    3  C   UNL     1      26.497  38.836  49.582  1.00  0.00     0.206 C 
HETATM    4  N   UNL     1      27.281  39.794  50.478  1.00  0.00    -0.059 N 
HETATM    5  H   UNL     1      27.517  39.225  51.303  1.00  0.00     0.280 HD
HETATM    6  C   UNL     1      28.603  40.239  49.906  1.00  0.00     0.242 C 
HETATM    7  C   UNL     1      28.952  39.507  48.609  1.00  0.00     0.029 C 
HETATM    8  C   UNL     1      28.211  40.108  47.397  1.00  0.00     0.123 C 
HETATM    9  C   UNL     1      27.392  37.621  49.318  1.00  0.00     0.035 C 
HETATM   10  C   UNL     1      28.759  37.995  48.746  1.00  0.00     0.010 C 
ENDROOT
BRANCH   4  11
HETATM   11  C   UNL     1      26.494  40.962  51.075  1.00  0.00     0.302 C 
BRANCH  11  12
HETATM   12  C   UNL     1      27.323  41.894  51.863  1.00  0.00     0.107 A 
HETATM   13  O   UNL     1      27.402  43.156  51.375  1.00  0.00    -0.216 OA
HETATM   14  N   UNL     1      28.084  43.951  52.257  1.00  0.00    -0.128 NA
HETATM   15  C   UNL     1      28.492  43.157  53.263  1.00  0.00     0.097 A 
HETATM   16  C   UNL     1      28.027  41.827  53.040  1.00  0.00     0.071 A 
BRANCH  15  17
HETATM   17  C   UNL     1      29.254  43.674  54.399  1.00  0.00    -0.005 A 
HETATM   18  C   UNL     1      30.271  42.900  54.982  1.00  0.00     0.014 A 
HETATM   19  C   UNL     1      31.023  43.398  56.049  1.00  0.00     0.001 A 
HETATM   20  C   UNL     1      30.763  44.672  56.550  1.00  0.00     0.000 A 
HETATM   21  C   UNL     1      29.751  45.446  55.989  1.00  0.00     0.001 A 
HETATM   22  C   UNL     1      29.001  44.952  54.918  1.00  0.00     0.014 A 
ENDBRANCH  15  17
ENDBRANCH  11  12
ENDBRANCH   4  11
BRANCH   1  23
HETATM   23  C   UNL     1      26.705  38.654  46.091  1.00  0.00     0.176 C 
BRANCH  23  24
HETATM   24  C   UNL     1      27.713  38.789  44.990  1.00  0.00     0.050 A 
HETATM   25  C   UNL     1      28.845  38.055  44.674  1.00  0.00     0.030 A 
HETATM   26  C   UNL     1      29.458  36.872  45.305  1.00  0.00     0.070 C 
HETATM   27  N   UNL     1      29.392  38.674  43.556  1.00  0.00    -0.354 N 
HETATM   28  H   UNL     1      30.245  38.377  43.083  1.00  0.00     0.166 HD
HETATM   29  C   UNL     1      28.673  39.735  43.186  1.00  0.00     0.180 A 
HETATM   30  N   UNL     1      27.651  39.803  44.038  1.00  0.00    -0.353 N 
HETATM   31  H   UNL     1      26.921  40.514  44.025  1.00  0.00     0.166 HD
ENDBRANCH  23  24
ENDBRANCH   1  23
TORSDOF 5
ENDMDL
