MODEL 1
REMARK VINA RESULT:      -8.6      0.000      0.000
REMARK  8 active torsions:
REMARK  status: ('A' for Active; 'I' for Inactive)
REMARK    1  A    between atoms: O_2  and  C_3 
REMARK    2  A    between atoms: C_4  and  O_5 
REMARK    3  A    between atoms: O_5  and  C_6 
REMARK    4  A    between atoms: C_6  and  C_7 
REMARK       I    between atoms: C_7  and  N_8 
REMARK    5  A    between atoms: N_8  and  C_9 
REMARK    6  A    between atoms: C_9  and  N_10 
REMARK    7  A    between atoms: N_10  and  N_11 
REMARK       I    between atoms: N_11  and  C_12 
REMARK       I    between atoms: C_12  and  N_13 
REMARK    8  A    between atoms: N_13  and  C_14 
ROOT
HETATM    1  C   UNL     1      21.171  47.801  48.566  1.00  0.00     0.189 C 
HETATM    2  S   UNL     1      20.228  47.409  47.249  1.00  0.00    -0.039 SA
ENDROOT
BRANCH   1   3
HETATM    3  N   UNL     1      22.530  47.589  48.721  1.00  0.00    -0.301 N 
HETATM    4  C   UNL     1      23.438  48.260  49.546  1.00  0.00     0.248 C 
HETATM    5  O   UNL     1      23.396  49.458  49.807  1.00  0.00    -0.271 OA
HETATM    6  H   UNL     1      22.855  46.733  48.305  1.00  0.00     0.171 HD
BRANCH   4   7
HETATM    7  C   UNL     1      24.556  47.329  50.036  1.00  0.00     0.278 C 
BRANCH   7   8
HETATM    8  O   UNL     1      24.981  47.666  51.345  1.00  0.00    -0.339 OA
BRANCH   8   9
HETATM    9  C   UNL     1      25.693  46.745  52.062  1.00  0.00     0.102 A 
HETATM   10  C   UNL     1      25.928  46.996  53.426  1.00  0.00     0.101 A 
HETATM   11  C   UNL     1      26.691  46.086  54.175  1.00  0.00     0.039 A 
HETATM   12  C   UNL     1      27.209  44.929  53.595  1.00  0.00     0.003 A 
HETATM   13  C   UNL     1      26.976  44.677  52.250  1.00  0.00     0.003 A 
HETATM   14  C   UNL     1      26.232  45.581  51.487  1.00  0.00     0.039 A 
BRANCH  10  15
HETATM   15  O   UNL     1      25.515  48.066  54.179  1.00  0.00    -0.353 OA
HETATM   16  C   UNL     1      26.270  48.419  55.330  1.00  0.00     0.210 C 
ENDBRANCH  10  15
ENDBRANCH   8   9
ENDBRANCH   7   8
ENDBRANCH   4   7
ENDBRANCH   1   3
BRANCH   1  17
HETATM   17  N   UNL     1      20.567  48.459  49.618  1.00  0.00    -0.289 N 
HETATM   18  H   UNL     1      20.717  49.467  49.686  1.00  0.00     0.183 HD
BRANCH  17  19
HETATM   19  N   UNL     1      19.503  47.913  50.366  1.00  0.00    -0.153 NA
HETATM   20  C   UNL     1      18.717  48.733  51.126  1.00  0.00     0.317 C 
HETATM   21  N   UNL     1      18.434  50.004  50.756  1.00  0.00    -0.312 N 
HETATM   22  O   UNL     1      18.347  48.323  52.228  1.00  0.00    -0.252 OA
HETATM   23  H   UNL     1      18.101  50.545  51.547  1.00  0.00     0.170 HD
HETATM   24  H   UNL     1      19.758  47.128  50.957  1.00  0.00     0.157 HD
BRANCH  21  25
HETATM   25  C   UNL     1      18.335  50.649  49.511  1.00  0.00     0.035 A 
HETATM   26  C   UNL     1      17.564  50.182  48.447  1.00  0.00     0.029 A 
HETATM   27  C   UNL     1      17.517  50.895  47.245  1.00  0.00     0.002 A 
HETATM   28  C   UNL     1      18.225  52.088  47.106  1.00  0.00     0.000 A 
HETATM   29  C   UNL     1      18.970  52.578  48.173  1.00  0.00     0.002 A 
HETATM   30  C   UNL     1      19.017  51.865  49.374  1.00  0.00     0.029 A 
ENDBRANCH  21  25
ENDBRANCH  17  19
ENDBRANCH   1  17
TORSDOF 8
ENDMDL
MODEL 2
REMARK VINA RESULT:      -8.4      2.439      3.497
REMARK  8 active torsions:
REMARK  status: ('A' for Active; 'I' for Inactive)
REMARK    1  A    between atoms: O_2  and  C_3 
REMARK    2  A    between atoms: C_4  and  O_5 
REMARK    3  A    between atoms: O_5  and  C_6 
REMARK    4  A    between atoms: C_6  and  C_7 
REMARK       I    between atoms: C_7  and  N_8 
REMARK    5  A    between atoms: N_8  and  C_9 
REMARK    6  A    between atoms: C_9  and  N_10 
REMARK    7  A    between atoms: N_10  and  N_11 
REMARK       I    between atoms: N_11  and  C_12 
REMARK       I    between atoms: C_12  and  N_13 
REMARK    8  A    between atoms: N_13  and  C_14 
ROOT
HETATM    1  C   UNL     1      20.842  47.255  48.564  1.00  0.00     0.189 C 
HETATM    2  S   UNL     1      20.352  47.238  46.972  1.00  0.00    -0.039 SA
ENDROOT
BRANCH   1   3
HETATM    3  N   UNL     1      21.849  46.501  49.143  1.00  0.00    -0.301 N 
HETATM    4  C   UNL     1      22.899  45.812  48.526  1.00  0.00     0.248 C 
HETATM    5  O   UNL     1      22.822  45.240  47.445  1.00  0.00    -0.271 OA
HETATM    6  H   UNL     1      21.914  46.611  50.140  1.00  0.00     0.171 HD
BRANCH   4   7
HETATM    7  C   UNL     1      24.156  45.788  49.406  1.00  0.00     0.278 C 
BRANCH   7   8
HETATM    8  O   UNL     1      24.322  47.005  50.112  1.00  0.00    -0.339 OA
BRANCH   8   9
HETATM    9  C   UNL     1      25.173  47.948  49.604  1.00  0.00     0.102 A 
HETATM   10  C   UNL     1      24.624  49.014  48.867  1.00  0.00     0.101 A 
HETATM   11  C   UNL     1      25.478  49.973  48.299  1.00  0.00     0.039 A 
HETATM   12  C   UNL     1      26.860  49.898  48.465  1.00  0.00     0.003 A 
HETATM   13  C   UNL     1      27.404  48.849  49.194  1.00  0.00     0.003 A 
HETATM   14  C   UNL     1      26.568  47.877  49.752  1.00  0.00     0.039 A 
BRANCH  10  15
HETATM   15  O   UNL     1      23.305  49.268  48.587  1.00  0.00    -0.353 OA
HETATM   16  C   UNL     1      22.962  50.512  47.994  1.00  0.00     0.210 C 
ENDBRANCH  10  15
ENDBRANCH   8   9
ENDBRANCH   7   8
ENDBRANCH   4   7
ENDBRANCH   1   3
BRANCH   1  17
HETATM   17  N   UNL     1      20.228  48.148  49.418  1.00  0.00    -0.289 N 
HETATM   18  H   UNL     1      20.322  49.142  49.200  1.00  0.00     0.183 HD
BRANCH  17  19
HETATM   19  N   UNL     1      19.215  47.781  50.329  1.00  0.00    -0.153 NA
HETATM   20  C   UNL     1      18.687  48.719  51.171  1.00  0.00     0.317 C 
HETATM   21  N   UNL     1      18.552  50.016  50.809  1.00  0.00    -0.312 N 
HETATM   22  O   UNL     1      18.426  48.378  52.327  1.00  0.00    -0.252 OA
HETATM   23  H   UNL     1      18.427  50.607  51.624  1.00  0.00     0.170 HD
HETATM   24  H   UNL     1      19.432  46.969  50.899  1.00  0.00     0.157 HD
BRANCH  21  25
HETATM   25  C   UNL     1      18.369  50.660  49.574  1.00  0.00     0.035 A 
HETATM   26  C   UNL     1      17.395  50.305  48.641  1.00  0.00     0.029 A 
HETATM   27  C   UNL     1      17.281  51.009  47.439  1.00  0.00     0.002 A 
HETATM   28  C   UNL     1      18.125  52.086  47.170  1.00  0.00     0.000 A 
HETATM   29  C   UNL     1      19.078  52.467  48.108  1.00  0.00     0.002 A 
HETATM   30  C   UNL     1      19.193  51.763  49.309  1.00  0.00     0.029 A 
ENDBRANCH  21  25
ENDBRANCH  17  19
ENDBRANCH   1  17
TORSDOF 8
ENDMDL
MODEL 3
REMARK VINA RESULT:      -8.4      2.726      4.005
REMARK  8 active torsions:
REMARK  status: ('A' for Active; 'I' for Inactive)
REMARK    1  A    between atoms: O_2  and  C_3 
REMARK    2  A    between atoms: C_4  and  O_5 
REMARK    3  A    between atoms: O_5  and  C_6 
REMARK    4  A    between atoms: C_6  and  C_7 
REMARK       I    between atoms: C_7  and  N_8 
REMARK    5  A    between atoms: N_8  and  C_9 
REMARK    6  A    between atoms: C_9  and  N_10 
REMARK    7  A    between atoms: N_10  and  N_11 
REMARK       I    between atoms: N_11  and  C_12 
REMARK       I    between atoms: C_12  and  N_13 
REMARK    8  A    between atoms: N_13  and  C_14 
ROOT
HETATM    1  C   UNL     1      23.701  46.945  49.448  1.00  0.00     0.189 C 
HETATM    2  S   UNL     1      22.603  46.225  48.422  1.00  0.00    -0.039 SA
ENDROOT
BRANCH   1   3
HETATM    3  N   UNL     1      24.813  46.363  50.033  1.00  0.00    -0.301 N 
HETATM    4  C   UNL     1      25.283  46.484  51.345  1.00  0.00     0.248 C 
HETATM    5  O   UNL     1      25.216  47.505  52.022  1.00  0.00    -0.271 OA
HETATM    6  H   UNL     1      25.228  45.635  49.477  1.00  0.00     0.171 HD
BRANCH   4   7
HETATM    7  C   UNL     1      25.971  45.198  51.822  1.00  0.00     0.278 C 
BRANCH   7   8
HETATM    8  O   UNL     1      26.715  45.414  53.009  1.00  0.00    -0.339 OA
BRANCH   8   9
HETATM    9  C   UNL     1      27.788  44.605  53.267  1.00  0.00     0.102 A 
HETATM   10  C   UNL     1      28.361  44.646  54.551  1.00  0.00     0.101 A 
HETATM   11  C   UNL     1      29.489  43.857  54.829  1.00  0.00     0.039 A 
HETATM   12  C   UNL     1      30.043  43.022  53.861  1.00  0.00     0.003 A 
HETATM   13  C   UNL     1      29.478  42.977  52.593  1.00  0.00     0.003 A 
HETATM   14  C   UNL     1      28.365  43.769  52.296  1.00  0.00     0.039 A 
BRANCH  10  15
HETATM   15  O   UNL     1      27.976  45.395  55.634  1.00  0.00    -0.353 OA
HETATM   16  C   UNL     1      28.972  46.087  56.373  1.00  0.00     0.210 C 
ENDBRANCH  10  15
ENDBRANCH   8   9
ENDBRANCH   7   8
ENDBRANCH   4   7
ENDBRANCH   1   3
BRANCH   1  17
HETATM   17  N   UNL     1      23.539  48.286  49.725  1.00  0.00    -0.289 N 
HETATM   18  H   UNL     1      22.907  48.532  50.489  1.00  0.00     0.183 HD
BRANCH  17  19
HETATM   19  N   UNL     1      24.432  49.284  49.280  1.00  0.00    -0.153 NA
HETATM   20  C   UNL     1      24.257  49.851  48.049  1.00  0.00     0.317 C 
HETATM   21  N   UNL     1      23.030  50.038  47.511  1.00  0.00    -0.312 N 
HETATM   22  O   UNL     1      25.262  50.099  47.378  1.00  0.00    -0.252 OA
HETATM   23  H   UNL     1      23.093  50.188  46.509  1.00  0.00     0.170 HD
HETATM   24  H   UNL     1      25.415  49.036  49.348  1.00  0.00     0.157 HD
BRANCH  21  25
HETATM   25  C   UNL     1      21.754  50.245  48.062  1.00  0.00     0.035 A 
HETATM   26  C   UNL     1      21.445  51.269  48.957  1.00  0.00     0.029 A 
HETATM   27  C   UNL     1      20.144  51.405  49.450  1.00  0.00     0.002 A 
HETATM   28  C   UNL     1      19.139  50.531  49.036  1.00  0.00     0.000 A 
HETATM   29  C   UNL     1      19.431  49.527  48.119  1.00  0.00     0.002 A 
HETATM   30  C   UNL     1      20.732  49.391  47.628  1.00  0.00     0.029 A 
ENDBRANCH  21  25
ENDBRANCH  17  19
ENDBRANCH   1  17
TORSDOF 8
ENDMDL
MODEL 4
REMARK VINA RESULT:      -8.3      4.578      9.860
REMARK  8 active torsions:
REMARK  status: ('A' for Active; 'I' for Inactive)
REMARK    1  A    between atoms: O_2  and  C_3 
REMARK    2  A    between atoms: C_4  and  O_5 
REMARK    3  A    between atoms: O_5  and  C_6 
REMARK    4  A    between atoms: C_6  and  C_7 
REMARK       I    between atoms: C_7  and  N_8 
REMARK    5  A    between atoms: N_8  and  C_9 
REMARK    6  A    between atoms: C_9  and  N_10 
REMARK    7  A    between atoms: N_10  and  N_11 
REMARK       I    between atoms: N_11  and  C_12 
REMARK       I    between atoms: C_12  and  N_13 
REMARK    8  A    between atoms: N_13  and  C_14 
ROOT
HETATM    1  C   UNL     1      25.996  42.633  51.178  1.00  0.00     0.189 C 
HETATM    2  S   UNL     1      25.738  41.434  50.050  1.00  0.00    -0.039 SA
ENDROOT
BRANCH   1   3
HETATM    3  N   UNL     1      25.567  43.948  51.122  1.00  0.00    -0.301 N 
HETATM    4  C   UNL     1      25.221  44.807  52.170  1.00  0.00     0.248 C 
HETATM    5  O   UNL     1      24.660  44.462  53.204  1.00  0.00    -0.271 OA
HETATM    6  H   UNL     1      25.683  44.373  50.218  1.00  0.00     0.171 HD
BRANCH   4   7
HETATM    7  C   UNL     1      25.562  46.268  51.842  1.00  0.00     0.278 C 
BRANCH   7   8
HETATM    8  O   UNL     1      24.855  46.725  50.703  1.00  0.00    -0.339 OA
BRANCH   8   9
HETATM    9  C   UNL     1      25.395  47.738  49.959  1.00  0.00     0.102 A 
HETATM   10  C   UNL     1      24.523  48.584  49.250  1.00  0.00     0.101 A 
HETATM   11  C   UNL     1      25.053  49.605  48.445  1.00  0.00     0.039 A 
HETATM   12  C   UNL     1      26.428  49.806  48.347  1.00  0.00     0.003 A 
HETATM   13  C   UNL     1      27.292  48.975  49.047  1.00  0.00     0.003 A 
HETATM   14  C   UNL     1      26.780  47.943  49.840  1.00  0.00     0.039 A 
BRANCH  10  15
HETATM   15  O   UNL     1      23.152  48.554  49.208  1.00  0.00    -0.353 OA
HETATM   16  C   UNL     1      22.437  49.764  49.417  1.00  0.00     0.210 C 
ENDBRANCH  10  15
ENDBRANCH   8   9
ENDBRANCH   7   8
ENDBRANCH   4   7
ENDBRANCH   1   3
BRANCH   1  17
HETATM   17  N   UNL     1      26.667  42.295  52.335  1.00  0.00    -0.289 N 
HETATM   18  H   UNL     1      26.457  42.839  53.173  1.00  0.00     0.183 HD
BRANCH  17  19
HETATM   19  N   UNL     1      27.329  41.062  52.517  1.00  0.00    -0.153 NA
HETATM   20  C   UNL     1      28.681  40.983  52.332  1.00  0.00     0.317 C 
HETATM   21  N   UNL     1      29.508  42.014  52.625  1.00  0.00    -0.312 N 
HETATM   22  O   UNL     1      29.133  39.975  51.785  1.00  0.00    -0.252 OA
HETATM   23  H   UNL     1      30.405  41.899  52.166  1.00  0.00     0.170 HD
HETATM   24  H   UNL     1      26.922  40.282  52.008  1.00  0.00     0.157 HD
BRANCH  21  25
HETATM   25  C   UNL     1      29.444  43.071  53.549  1.00  0.00     0.035 A 
HETATM   26  C   UNL     1      28.533  44.124  53.472  1.00  0.00     0.029 A 
HETATM   27  C   UNL     1      28.537  45.130  54.443  1.00  0.00     0.002 A 
HETATM   28  C   UNL     1      29.438  45.080  55.506  1.00  0.00     0.000 A 
HETATM   29  C   UNL     1      30.327  44.016  55.608  1.00  0.00     0.002 A 
HETATM   30  C   UNL     1      30.324  43.011  54.638  1.00  0.00     0.029 A 
ENDBRANCH  21  25
ENDBRANCH  17  19
ENDBRANCH   1  17
TORSDOF 8
ENDMDL
MODEL 5
REMARK VINA RESULT:      -8.1      2.702      4.286
REMARK  8 active torsions:
REMARK  status: ('A' for Active; 'I' for Inactive)
REMARK    1  A    between atoms: O_2  and  C_3 
REMARK    2  A    between atoms: C_4  and  O_5 
REMARK    3  A    between atoms: O_5  and  C_6 
REMARK    4  A    between atoms: C_6  and  C_7 
REMARK       I    between atoms: C_7  and  N_8 
REMARK    5  A    between atoms: N_8  and  C_9 
REMARK    6  A    between atoms: C_9  and  N_10 
REMARK    7  A    between atoms: N_10  and  N_11 
REMARK       I    between atoms: N_11  and  C_12 
REMARK       I    between atoms: C_12  and  N_13 
REMARK    8  A    between atoms: N_13  and  C_14 
ROOT
HETATM    1  C   UNL     1      23.877  46.815  49.636  1.00  0.00     0.189 C 
HETATM    2  S   UNL     1      22.854  45.883  48.708  1.00  0.00    -0.039 SA
ENDROOT
BRANCH   1   3
HETATM    3  N   UNL     1      25.112  46.455  50.148  1.00  0.00    -0.301 N 
HETATM    4  C   UNL     1      25.566  46.507  51.471  1.00  0.00     0.248 C 
HETATM    5  O   UNL     1      25.262  47.374  52.283  1.00  0.00    -0.271 OA
HETATM    6  H   UNL     1      25.683  45.937  49.502  1.00  0.00     0.171 HD
BRANCH   4   7
HETATM    7  C   UNL     1      26.563  45.380  51.773  1.00  0.00     0.278 C 
BRANCH   7   8
HETATM    8  O   UNL     1      26.455  44.932  53.113  1.00  0.00    -0.339 OA
BRANCH   8   9
HETATM    9  C   UNL     1      27.600  44.757  53.841  1.00  0.00     0.102 A 
HETATM   10  C   UNL     1      28.322  43.562  53.672  1.00  0.00     0.101 A 
HETATM   11  C   UNL     1      29.478  43.338  54.437  1.00  0.00     0.039 A 
HETATM   12  C   UNL     1      29.932  44.286  55.352  1.00  0.00     0.003 A 
HETATM   13  C   UNL     1      29.223  45.469  55.520  1.00  0.00     0.003 A 
HETATM   14  C   UNL     1      28.061  45.698  54.776  1.00  0.00     0.039 A 
BRANCH  10  15
HETATM   15  O   UNL     1      28.046  42.509  52.836  1.00  0.00    -0.353 OA
HETATM   16  C   UNL     1      28.115  41.190  53.357  1.00  0.00     0.210 C 
ENDBRANCH  10  15
ENDBRANCH   8   9
ENDBRANCH   7   8
ENDBRANCH   4   7
ENDBRANCH   1   3
BRANCH   1  17
HETATM   17  N   UNL     1      23.502  48.117  49.898  1.00  0.00    -0.289 N 
HETATM   18  H   UNL     1      22.940  48.282  50.734  1.00  0.00     0.183 HD
BRANCH  17  19
HETATM   19  N   UNL     1      24.125  49.238  49.309  1.00  0.00    -0.153 NA
HETATM   20  C   UNL     1      23.618  49.768  48.156  1.00  0.00     0.317 C 
HETATM   21  N   UNL     1      22.292  49.765  47.885  1.00  0.00    -0.312 N 
HETATM   22  O   UNL     1      24.413  50.164  47.301  1.00  0.00    -0.252 OA
HETATM   23  H   UNL     1      22.124  49.920  46.897  1.00  0.00     0.170 HD
HETATM   24  H   UNL     1      25.127  49.141  49.167  1.00  0.00     0.157 HD
BRANCH  21  25
HETATM   25  C   UNL     1      21.141  49.778  48.692  1.00  0.00     0.035 A 
HETATM   26  C   UNL     1      20.326  48.667  48.912  1.00  0.00     0.029 A 
HETATM   27  C   UNL     1      19.204  48.770  49.739  1.00  0.00     0.002 A 
HETATM   28  C   UNL     1      18.899  49.978  50.366  1.00  0.00     0.000 A 
HETATM   29  C   UNL     1      19.724  51.081  50.178  1.00  0.00     0.002 A 
HETATM   30  C   UNL     1      20.846  50.978  49.352  1.00  0.00     0.029 A 
ENDBRANCH  21  25
ENDBRANCH  17  19
ENDBRANCH   1  17
TORSDOF 8
ENDMDL
MODEL 6
REMARK VINA RESULT:      -8.1      8.634     11.330
REMARK  8 active torsions:
REMARK  status: ('A' for Active; 'I' for Inactive)
REMARK    1  A    between atoms: O_2  and  C_3 
REMARK    2  A    between atoms: C_4  and  O_5 
REMARK    3  A    between atoms: O_5  and  C_6 
REMARK    4  A    between atoms: C_6  and  C_7 
REMARK       I    between atoms: C_7  and  N_8 
REMARK    5  A    between atoms: N_8  and  C_9 
REMARK    6  A    between atoms: C_9  and  N_10 
REMARK    7  A    between atoms: N_10  and  N_11 
REMARK       I    between atoms: N_11  and  C_12 
REMARK       I    between atoms: C_12  and  N_13 
REMARK    8  A    between atoms: N_13  and  C_14 
ROOT
HETATM    1  C   UNL     1      27.274  40.770  50.579  1.00  0.00     0.189 C 
HETATM    2  S   UNL     1      26.931  41.398  49.074  1.00  0.00    -0.039 SA
ENDROOT
BRANCH   1   3
HETATM    3  N   UNL     1      26.999  41.339  51.811  1.00  0.00    -0.301 N 
HETATM    4  C   UNL     1      27.848  41.515  52.909  1.00  0.00     0.248 C 
HETATM    5  O   UNL     1      28.728  40.731  53.247  1.00  0.00    -0.271 OA
HETATM    6  H   UNL     1      26.124  41.832  51.842  1.00  0.00     0.171 HD
BRANCH   4   7
HETATM    7  C   UNL     1      27.498  42.782  53.700  1.00  0.00     0.278 C 
BRANCH   7   8
HETATM    8  O   UNL     1      28.494  43.779  53.557  1.00  0.00    -0.339 OA
BRANCH   8   9
HETATM    9  C   UNL     1      29.195  44.170  54.665  1.00  0.00     0.102 A 
HETATM   10  C   UNL     1      28.773  45.326  55.349  1.00  0.00     0.101 A 
HETATM   11  C   UNL     1      29.499  45.773  56.464  1.00  0.00     0.039 A 
HETATM   12  C   UNL     1      30.623  45.084  56.917  1.00  0.00     0.003 A 
HETATM   13  C   UNL     1      31.040  43.942  56.247  1.00  0.00     0.003 A 
HETATM   14  C   UNL     1      30.337  43.494  55.124  1.00  0.00     0.039 A 
BRANCH  10  15
HETATM   15  O   UNL     1      27.707  46.142  55.067  1.00  0.00    -0.353 OA
HETATM   16  C   UNL     1      27.940  47.534  54.902  1.00  0.00     0.210 C 
ENDBRANCH  10  15
ENDBRANCH   8   9
ENDBRANCH   7   8
ENDBRANCH   4   7
ENDBRANCH   1   3
BRANCH   1  17
HETATM   17  N   UNL     1      27.851  39.518  50.639  1.00  0.00    -0.289 N 
HETATM   18  H   UNL     1      27.229  38.712  50.558  1.00  0.00     0.183 HD
BRANCH  17  19
HETATM   19  N   UNL     1      29.230  39.289  50.447  1.00  0.00    -0.153 NA
HETATM   20  C   UNL     1      29.661  38.067  50.013  1.00  0.00     0.317 C 
HETATM   21  N   UNL     1      28.931  37.306  49.165  1.00  0.00    -0.312 N 
HETATM   22  O   UNL     1      30.700  37.614  50.499  1.00  0.00    -0.252 OA
HETATM   23  H   UNL     1      29.246  36.342  49.183  1.00  0.00     0.170 HD
HETATM   24  H   UNL     1      29.816  39.540  51.237  1.00  0.00     0.157 HD
BRANCH  21  25
HETATM   25  C   UNL     1      27.988  37.604  48.167  1.00  0.00     0.035 A 
HETATM   26  C   UNL     1      28.249  38.406  47.057  1.00  0.00     0.029 A 
HETATM   27  C   UNL     1      27.251  38.642  46.108  1.00  0.00     0.002 A 
HETATM   28  C   UNL     1      25.990  38.063  46.253  1.00  0.00     0.000 A 
HETATM   29  C   UNL     1      25.731  37.236  47.340  1.00  0.00     0.002 A 
HETATM   30  C   UNL     1      26.729  37.001  48.288  1.00  0.00     0.029 A 
ENDBRANCH  21  25
ENDBRANCH  17  19
ENDBRANCH   1  17
TORSDOF 8
ENDMDL
MODEL 7
REMARK VINA RESULT:      -8.0      0.819      1.929
REMARK  8 active torsions:
REMARK  status: ('A' for Active; 'I' for Inactive)
REMARK    1  A    between atoms: O_2  and  C_3 
REMARK    2  A    between atoms: C_4  and  O_5 
REMARK    3  A    between atoms: O_5  and  C_6 
REMARK    4  A    between atoms: C_6  and  C_7 
REMARK       I    between atoms: C_7  and  N_8 
REMARK    5  A    between atoms: N_8  and  C_9 
REMARK    6  A    between atoms: C_9  and  N_10 
REMARK    7  A    between atoms: N_10  and  N_11 
REMARK       I    between atoms: N_11  and  C_12 
REMARK       I    between atoms: C_12  and  N_13 
REMARK    8  A    between atoms: N_13  and  C_14 
ROOT
HETATM    1  C   UNL     1      21.076  47.742  48.563  1.00  0.00     0.189 C 
HETATM    2  S   UNL     1      20.155  47.532  47.191  1.00  0.00    -0.039 SA
ENDROOT
BRANCH   1   3
HETATM    3  N   UNL     1      22.389  47.350  48.763  1.00  0.00    -0.301 N 
HETATM    4  C   UNL     1      23.390  47.974  49.515  1.00  0.00     0.248 C 
HETATM    5  O   UNL     1      23.528  49.187  49.628  1.00  0.00    -0.271 OA
HETATM    6  H   UNL     1      22.581  46.411  48.458  1.00  0.00     0.171 HD
BRANCH   4   7
HETATM    7  C   UNL     1      24.358  46.953  50.130  1.00  0.00     0.278 C 
BRANCH   7   8
HETATM    8  O   UNL     1      25.272  47.571  51.019  1.00  0.00    -0.339 OA
BRANCH   8   9
HETATM    9  C   UNL     1      25.827  46.818  52.017  1.00  0.00     0.102 A 
HETATM   10  C   UNL     1      26.534  45.654  51.662  1.00  0.00     0.101 A 
HETATM   11  C   UNL     1      27.077  44.841  52.669  1.00  0.00     0.039 A 
HETATM   12  C   UNL     1      26.943  45.173  54.016  1.00  0.00     0.003 A 
HETATM   13  C   UNL     1      26.249  46.323  54.370  1.00  0.00     0.003 A 
HETATM   14  C   UNL     1      25.688  47.134  53.379  1.00  0.00     0.039 A 
BRANCH  10  15
HETATM   15  O   UNL     1      26.774  45.151  50.408  1.00  0.00    -0.353 OA
HETATM   16  C   UNL     1      26.872  43.743  50.246  1.00  0.00     0.210 C 
ENDBRANCH  10  15
ENDBRANCH   8   9
ENDBRANCH   7   8
ENDBRANCH   4   7
ENDBRANCH   1   3
BRANCH   1  17
HETATM   17  N   UNL     1      20.512  48.425  49.620  1.00  0.00    -0.289 N 
HETATM   18  H   UNL     1      20.676  49.432  49.666  1.00  0.00     0.183 HD
BRANCH  17  19
HETATM   19  N   UNL     1      19.464  47.906  50.409  1.00  0.00    -0.153 NA
HETATM   20  C   UNL     1      18.711  48.749  51.178  1.00  0.00     0.317 C 
HETATM   21  N   UNL     1      18.434  50.017  50.795  1.00  0.00    -0.312 N 
HETATM   22  O   UNL     1      18.370  48.362  52.298  1.00  0.00    -0.252 OA
HETATM   23  H   UNL     1      18.131  50.575  51.586  1.00  0.00     0.170 HD
HETATM   24  H   UNL     1      19.727  47.127  51.006  1.00  0.00     0.157 HD
BRANCH  21  25
HETATM   25  C   UNL     1      18.305  50.642  49.543  1.00  0.00     0.035 A 
HETATM   26  C   UNL     1      17.479  50.181  48.519  1.00  0.00     0.029 A 
HETATM   27  C   UNL     1      17.407  50.873  47.306  1.00  0.00     0.002 A 
HETATM   28  C   UNL     1      18.145  52.041  47.117  1.00  0.00     0.000 A 
HETATM   29  C   UNL     1      18.947  52.525  48.144  1.00  0.00     0.002 A 
HETATM   30  C   UNL     1      19.019  51.833  49.355  1.00  0.00     0.029 A 
ENDBRANCH  21  25
ENDBRANCH  17  19
ENDBRANCH   1  17
TORSDOF 8
ENDMDL
MODEL 8
REMARK VINA RESULT:      -7.8      5.061      6.717
REMARK  8 active torsions:
REMARK  status: ('A' for Active; 'I' for Inactive)
REMARK    1  A    between atoms: O_2  and  C_3 
REMARK    2  A    between atoms: C_4  and  O_5 
REMARK    3  A    between atoms: O_5  and  C_6 
REMARK    4  A    between atoms: C_6  and  C_7 
REMARK       I    between atoms: C_7  and  N_8 
REMARK    5  A    between atoms: N_8  and  C_9 
REMARK    6  A    between atoms: C_9  and  N_10 
REMARK    7  A    between atoms: N_10  and  N_11 
REMARK       I    between atoms: N_11  and  C_12 
REMARK       I    between atoms: C_12  and  N_13 
REMARK    8  A    between atoms: N_13  and  C_14 
ROOT
HETATM    1  C   UNL     1      26.561  43.048  49.493  1.00  0.00     0.189 C 
HETATM    2  S   UNL     1      26.991  41.687  48.632  1.00  0.00    -0.039 SA
ENDROOT
BRANCH   1   3
HETATM    3  N   UNL     1      27.076  43.473  50.706  1.00  0.00    -0.301 N 
HETATM    4  C   UNL     1      27.684  42.722  51.717  1.00  0.00     0.248 C 
HETATM    5  O   UNL     1      27.366  41.579  52.028  1.00  0.00    -0.271 OA
HETATM    6  H   UNL     1      27.164  44.472  50.779  1.00  0.00     0.171 HD
BRANCH   4   7
HETATM    7  C   UNL     1      28.759  43.529  52.456  1.00  0.00     0.278 C 
BRANCH   7   8
HETATM    8  O   UNL     1      28.265  44.073  53.667  1.00  0.00    -0.339 OA
BRANCH   8   9
HETATM    9  C   UNL     1      29.126  44.222  54.719  1.00  0.00     0.102 A 
HETATM   10  C   UNL     1      28.924  45.300  55.601  1.00  0.00     0.101 A 
HETATM   11  C   UNL     1      29.817  45.500  56.665  1.00  0.00     0.039 A 
HETATM   12  C   UNL     1      30.894  44.640  56.875  1.00  0.00     0.003 A 
HETATM   13  C   UNL     1      31.095  43.573  56.009  1.00  0.00     0.003 A 
HETATM   14  C   UNL     1      30.223  43.371  54.935  1.00  0.00     0.039 A 
BRANCH  10  15
HETATM   15  O   UNL     1      27.938  46.254  55.569  1.00  0.00    -0.353 OA
HETATM   16  C   UNL     1      28.162  47.440  54.819  1.00  0.00     0.210 C 
ENDBRANCH  10  15
ENDBRANCH   8   9
ENDBRANCH   7   8
ENDBRANCH   4   7
ENDBRANCH   1   3
BRANCH   1  17
HETATM   17  N   UNL     1      25.625  43.894  48.935  1.00  0.00    -0.289 N 
HETATM   18  H   UNL     1      25.939  44.503  48.178  1.00  0.00     0.183 HD
BRANCH  17  19
HETATM   19  N   UNL     1      24.233  43.721  49.089  1.00  0.00    -0.153 NA
HETATM   20  C   UNL     1      23.600  44.252  50.178  1.00  0.00     0.317 C 
HETATM   21  N   UNL     1      24.001  45.412  50.749  1.00  0.00    -0.312 N 
HETATM   22  O   UNL     1      22.705  43.590  50.707  1.00  0.00    -0.252 OA
HETATM   23  H   UNL     1      23.626  45.501  51.687  1.00  0.00     0.170 HD
HETATM   24  H   UNL     1      23.913  42.761  49.008  1.00  0.00     0.157 HD
BRANCH  21  25
HETATM   25  C   UNL     1      24.651  46.557  50.257  1.00  0.00     0.035 A 
HETATM   26  C   UNL     1      25.998  46.847  50.473  1.00  0.00     0.029 A 
HETATM   27  C   UNL     1      26.563  48.007  49.937  1.00  0.00     0.002 A 
HETATM   28  C   UNL     1      25.791  48.875  49.165  1.00  0.00     0.000 A 
HETATM   29  C   UNL     1      24.455  48.577  48.918  1.00  0.00     0.002 A 
HETATM   30  C   UNL     1      23.891  47.418  49.454  1.00  0.00     0.029 A 
ENDBRANCH  21  25
ENDBRANCH  17  19
ENDBRANCH   1  17
TORSDOF 8
ENDMDL
MODEL 9
REMARK VINA RESULT:      -7.8     12.897     14.485
REMARK  8 active torsions:
REMARK  status: ('A' for Active; 'I' for Inactive)
REMARK    1  A    between atoms: O_2  and  C_3 
REMARK    2  A    between atoms: C_4  and  O_5 
REMARK    3  A    between atoms: O_5  and  C_6 
REMARK    4  A    between atoms: C_6  and  C_7 
REMARK       I    between atoms: C_7  and  N_8 
REMARK    5  A    between atoms: N_8  and  C_9 
REMARK    6  A    between atoms: C_9  and  N_10 
REMARK    7  A    between atoms: N_10  and  N_11 
REMARK       I    between atoms: N_11  and  C_12 
REMARK       I    between atoms: C_12  and  N_13 
REMARK    8  A    between atoms: N_13  and  C_14 
ROOT
HETATM    1  C   UNL     1      32.143  50.957  39.033  1.00  0.00     0.189 C 
HETATM    2  S   UNL     1      30.988  49.797  38.724  1.00  0.00    -0.039 SA
ENDROOT
BRANCH   1   3
HETATM    3  N   UNL     1      33.503  50.764  39.207  1.00  0.00    -0.301 N 
HETATM    4  C   UNL     1      34.501  51.710  39.465  1.00  0.00     0.248 C 
HETATM    5  O   UNL     1      34.520  52.850  39.014  1.00  0.00    -0.271 OA
HETATM    6  H   UNL     1      33.763  49.800  39.324  1.00  0.00     0.171 HD
BRANCH   4   7
HETATM    7  C   UNL     1      35.626  51.126  40.331  1.00  0.00     0.278 C 
BRANCH   7   8
HETATM    8  O   UNL     1      35.119  50.271  41.340  1.00  0.00    -0.339 OA
BRANCH   8   9
HETATM    9  C   UNL     1      34.487  50.829  42.417  1.00  0.00     0.102 A 
HETATM   10  C   UNL     1      33.140  50.495  42.648  1.00  0.00     0.101 A 
HETATM   11  C   UNL     1      32.456  51.086  43.722  1.00  0.00     0.039 A 
HETATM   12  C   UNL     1      33.091  51.986  44.575  1.00  0.00     0.003 A 
HETATM   13  C   UNL     1      34.422  52.316  44.352  1.00  0.00     0.003 A 
HETATM   14  C   UNL     1      35.112  51.749  43.276  1.00  0.00     0.039 A 
BRANCH  10  15
HETATM   15  O   UNL     1      32.338  49.642  41.933  1.00  0.00    -0.353 OA
HETATM   16  C   UNL     1      31.499  48.741  42.642  1.00  0.00     0.210 C 
ENDBRANCH  10  15
ENDBRANCH   8   9
ENDBRANCH   7   8
ENDBRANCH   4   7
ENDBRANCH   1   3
BRANCH   1  17
HETATM   17  N   UNL     1      31.738  52.274  39.077  1.00  0.00    -0.289 N 
HETATM   18  H   UNL     1      31.132  52.602  38.323  1.00  0.00     0.183 HD
BRANCH  17  19
HETATM   19  N   UNL     1      31.805  53.069  40.242  1.00  0.00    -0.153 NA
HETATM   20  C   UNL     1      30.825  53.988  40.493  1.00  0.00     0.317 C 
HETATM   21  N   UNL     1      29.537  53.784  40.131  1.00  0.00    -0.312 N 
HETATM   22  O   UNL     1      31.160  55.074  40.973  1.00  0.00    -0.252 OA
HETATM   23  H   UNL     1      29.022  54.658  40.125  1.00  0.00     0.170 HD
HETATM   24  H   UNL     1      32.692  53.545  40.380  1.00  0.00     0.157 HD
BRANCH  21  25
HETATM   25  C   UNL     1      28.755  52.631  39.952  1.00  0.00     0.035 A 
HETATM   26  C   UNL     1      28.345  51.793  40.989  1.00  0.00     0.029 A 
HETATM   27  C   UNL     1      27.559  50.670  40.718  1.00  0.00     0.002 A 
HETATM   28  C   UNL     1      27.161  50.387  39.412  1.00  0.00     0.000 A 
HETATM   29  C   UNL     1      27.538  51.235  38.376  1.00  0.00     0.002 A 
HETATM   30  C   UNL     1      28.323  52.357  38.647  1.00  0.00     0.029 A 
ENDBRANCH  21  25
ENDBRANCH  17  19
ENDBRANCH   1  17
TORSDOF 8
ENDMDL
MODEL 10
REMARK VINA RESULT:      -7.7      9.299     11.421
REMARK  8 active torsions:
REMARK  status: ('A' for Active; 'I' for Inactive)
REMARK    1  A    between atoms: O_2  and  C_3 
REMARK    2  A    between atoms: C_4  and  O_5 
REMARK    3  A    between atoms: O_5  and  C_6 
REMARK    4  A    between atoms: C_6  and  C_7 
REMARK       I    between atoms: C_7  and  N_8 
REMARK    5  A    between atoms: N_8  and  C_9 
REMARK    6  A    between atoms: C_9  and  N_10 
REMARK    7  A    between atoms: N_10  and  N_11 
REMARK       I    between atoms: N_11  and  C_12 
REMARK       I    between atoms: C_12  and  N_13 
REMARK    8  A    between atoms: N_13  and  C_14 
ROOT
HETATM    1  C   UNL     1      27.335  40.887  50.644  1.00  0.00     0.189 C 
HETATM    2  S   UNL     1      26.967  41.372  49.092  1.00  0.00    -0.039 SA
ENDROOT
BRANCH   1   3
HETATM    3  N   UNL     1      27.226  41.631  51.806  1.00  0.00    -0.301 N 
HETATM    4  C   UNL     1      28.200  41.905  52.772  1.00  0.00     0.248 C 
HETATM    5  O   UNL     1      29.080  41.125  53.120  1.00  0.00    -0.271 OA
HETATM    6  H   UNL     1      26.380  42.173  51.861  1.00  0.00     0.171 HD
BRANCH   4   7
HETATM    7  C   UNL     1      27.994  43.285  53.412  1.00  0.00     0.278 C 
BRANCH   7   8
HETATM    8  O   UNL     1      29.219  43.848  53.845  1.00  0.00    -0.339 OA
BRANCH   8   9
HETATM    9  C   UNL     1      29.220  44.642  54.958  1.00  0.00     0.102 A 
HETATM   10  C   UNL     1      30.171  44.384  55.963  1.00  0.00     0.101 A 
HETATM   11  C   UNL     1      30.166  45.157  57.134  1.00  0.00     0.039 A 
HETATM   12  C   UNL     1      29.245  46.187  57.316  1.00  0.00     0.003 A 
HETATM   13  C   UNL     1      28.307  46.447  56.325  1.00  0.00     0.003 A 
HETATM   14  C   UNL     1      28.288  45.675  55.160  1.00  0.00     0.039 A 
BRANCH  10  15
HETATM   15  O   UNL     1      31.151  43.424  55.982  1.00  0.00    -0.353 OA
HETATM   16  C   UNL     1      31.983  43.324  57.130  1.00  0.00     0.210 C 
ENDBRANCH  10  15
ENDBRANCH   8   9
ENDBRANCH   7   8
ENDBRANCH   4   7
ENDBRANCH   1   3
BRANCH   1  17
HETATM   17  N   UNL     1      27.751  39.585  50.830  1.00  0.00    -0.289 N 
HETATM   18  H   UNL     1      27.045  38.852  50.742  1.00  0.00     0.183 HD
BRANCH  17  19
HETATM   19  N   UNL     1      29.104  39.187  50.776  1.00  0.00    -0.153 NA
HETATM   20  C   UNL     1      29.420  37.905  50.426  1.00  0.00     0.317 C 
HETATM   21  N   UNL     1      28.682  37.198  49.539  1.00  0.00    -0.312 N 
HETATM   22  O   UNL     1      30.349  37.354  51.022  1.00  0.00    -0.252 OA
HETATM   23  H   UNL     1      28.875  36.205  49.618  1.00  0.00     0.170 HD
HETATM   24  H   UNL     1      29.643  39.401  51.610  1.00  0.00     0.157 HD
BRANCH  21  25
HETATM   25  C   UNL     1      27.875  37.561  48.447  1.00  0.00     0.035 A 
HETATM   26  C   UNL     1      26.500  37.335  48.380  1.00  0.00     0.029 A 
HETATM   27  C   UNL     1      25.775  37.739  47.256  1.00  0.00     0.002 A 
HETATM   28  C   UNL     1      26.414  38.389  46.200  1.00  0.00     0.000 A 
HETATM   29  C   UNL     1      27.779  38.647  46.274  1.00  0.00     0.002 A 
HETATM   30  C   UNL     1      28.504  38.243  47.397  1.00  0.00     0.029 A 
ENDBRANCH  21  25
ENDBRANCH  17  19
ENDBRANCH   1  17
TORSDOF 8
ENDMDL
