MODEL 1
REMARK VINA RESULT:      -9.6      0.000      0.000
REMARK  8 active torsions:
REMARK  status: ('A' for Active; 'I' for Inactive)
REMARK    1  A    between atoms: C_5  and  C_6 
REMARK    2  A    between atoms: C_6  and  N_7 
REMARK       I    between atoms: N_7  and  C_8 
REMARK    3  A    between atoms: C_8  and  C_9 
REMARK    4  A    between atoms: N_12  and  C_13 
REMARK    5  A    between atoms: C_13  and  C_14 
REMARK       I    between atoms: C_14  and  N_15 
REMARK    6  A    between atoms: N_15  and  C_16 
REMARK    7  A    between atoms: C_20  and  O_21 
REMARK    8  A    between atoms: C_26  and  N_27 
ROOT
HETATM    1  C   UNL     1      26.065  46.667  50.216  1.00  0.00     0.186 A 
HETATM    2  N   UNL     1      24.765  46.775  50.667  1.00  0.00    -0.150 NA
HETATM    3  N   UNL     1      24.275  47.936  50.259  1.00  0.00     0.007 NA
HETATM    4  N   UNL     1      25.246  48.557  49.553  1.00  0.00    -0.248 N 
HETATM    5  C   UNL     1      26.395  47.811  49.507  1.00  0.00     0.151 A 
ENDROOT
BRANCH   4   6
HETATM    6  C   UNL     1      24.917  49.756  48.820  1.00  0.00     0.251 C 
BRANCH   6   7
HETATM    7  C   UNL     1      23.461  49.729  48.400  1.00  0.00     0.241 C 
HETATM    8  N   UNL     1      22.608  50.317  49.325  1.00  0.00    -0.326 N 
HETATM    9  H   UNL     1      23.040  50.660  50.182  1.00  0.00     0.169 HD
HETATM   10  O   UNL     1      23.138  49.258  47.314  1.00  0.00    -0.271 OA
BRANCH   8  11
HETATM   11  C   UNL     1      21.203  50.408  49.276  1.00  0.00     0.036 A 
HETATM   12  C   UNL     1      20.335  49.366  49.590  1.00  0.00     0.056 A 
HETATM   13  C   UNL     1      18.949  49.561  49.525  1.00  0.00     0.069 A 
HETATM   14 CL   UNL     1      17.925  48.227  49.940  1.00  0.00    -0.081 Cl
HETATM   15  C   UNL     1      18.407  50.795  49.135  1.00  0.00     0.090 A 
HETATM   16  C   UNL     1      19.282  51.839  48.828  1.00  0.00     0.041 A 
HETATM   17  C   UNL     1      20.666  51.645  48.899  1.00  0.00     0.032 A 
BRANCH  15  18
HETATM   18  O   UNL     1      17.042  50.897  49.098  1.00  0.00    -0.354 OA
HETATM   19  C   UNL     1      16.449  52.027  49.724  1.00  0.00     0.210 C 
ENDBRANCH  15  18
ENDBRANCH   8  11
ENDBRANCH   6   7
ENDBRANCH   4   6
BRANCH   5  20
HETATM   20  N   UNL     1      27.519  48.189  48.856  1.00  0.00    -0.382 N 
HETATM   21  H   UNL     1      27.550  48.904  48.132  1.00  0.00     0.157 HD
HETATM   22  H   UNL     1      28.295  47.524  48.790  1.00  0.00     0.157 HD
ENDBRANCH   5  20
BRANCH   1  23
HETATM   23  C   UNL     1      26.882  45.479  50.422  1.00  0.00     0.275 C 
HETATM   24  N   UNL     1      26.705  44.896  51.657  1.00  0.00    -0.351 N 
HETATM   25  H   UNL     1      26.002  45.297  52.267  1.00  0.00     0.163 HD
HETATM   26  O   UNL     1      27.624  45.021  49.557  1.00  0.00    -0.266 OA
BRANCH  24  27
HETATM   27  C   UNL     1      27.267  43.612  51.995  1.00  0.00     0.161 C 
BRANCH  27  28
HETATM   28  C   UNL     1      28.287  43.735  53.100  1.00  0.00    -0.041 A 
HETATM   29  C   UNL     1      28.111  44.664  54.136  1.00  0.00     0.009 A 
HETATM   30  C   UNL     1      29.047  44.770  55.167  1.00  0.00     0.007 A 
HETATM   31  C   UNL     1      30.179  43.948  55.184  1.00  0.00    -0.062 A 
HETATM   32  C   UNL     1      31.169  44.029  56.307  1.00  0.00     0.048 C 
HETATM   33  C   UNL     1      30.350  43.008  54.161  1.00  0.00     0.007 A 
HETATM   34  C   UNL     1      29.415  42.905  53.127  1.00  0.00     0.009 A 
ENDBRANCH  27  28
ENDBRANCH  24  27
ENDBRANCH   1  23
TORSDOF 8
ENDMDL
MODEL 2
REMARK VINA RESULT:      -9.5      3.490     10.751
REMARK  8 active torsions:
REMARK  status: ('A' for Active; 'I' for Inactive)
REMARK    1  A    between atoms: C_5  and  C_6 
REMARK    2  A    between atoms: C_6  and  N_7 
REMARK       I    between atoms: N_7  and  C_8 
REMARK    3  A    between atoms: C_8  and  C_9 
REMARK    4  A    between atoms: N_12  and  C_13 
REMARK    5  A    between atoms: C_13  and  C_14 
REMARK       I    between atoms: C_14  and  N_15 
REMARK    6  A    between atoms: N_15  and  C_16 
REMARK    7  A    between atoms: C_20  and  O_21 
REMARK    8  A    between atoms: C_26  and  N_27 
ROOT
HETATM    1  C   UNL     1      23.659  47.577  49.652  1.00  0.00     0.186 A 
HETATM    2  N   UNL     1      24.646  47.977  50.531  1.00  0.00    -0.150 NA
HETATM    3  N   UNL     1      25.117  46.903  51.146  1.00  0.00     0.007 NA
HETATM    4  N   UNL     1      24.447  45.834  50.662  1.00  0.00    -0.248 N 
HETATM    5  C   UNL     1      23.510  46.202  49.732  1.00  0.00     0.151 A 
ENDROOT
BRANCH   4   6
HETATM    6  C   UNL     1      24.900  44.509  51.014  1.00  0.00     0.251 C 
BRANCH   6   7
HETATM    7  C   UNL     1      25.497  44.513  52.407  1.00  0.00     0.241 C 
HETATM    8  N   UNL     1      26.814  44.951  52.444  1.00  0.00    -0.326 N 
HETATM    9  H   UNL     1      27.237  45.181  51.546  1.00  0.00     0.169 HD
HETATM   10  O   UNL     1      24.814  44.189  53.374  1.00  0.00    -0.271 OA
BRANCH   8  11
HETATM   11  C   UNL     1      27.675  45.022  53.556  1.00  0.00     0.036 A 
HETATM   12  C   UNL     1      28.684  44.102  53.830  1.00  0.00     0.056 A 
HETATM   13  C   UNL     1      29.501  44.269  54.956  1.00  0.00     0.069 A 
HETATM   14 CL   UNL     1      30.745  43.096  55.233  1.00  0.00    -0.081 Cl
HETATM   15  C   UNL     1      29.317  45.349  55.834  1.00  0.00     0.090 A 
HETATM   16  C   UNL     1      28.308  46.272  55.550  1.00  0.00     0.041 A 
HETATM   17  C   UNL     1      27.497  46.108  54.422  1.00  0.00     0.032 A 
BRANCH  15  18
HETATM   18  O   UNL     1      30.160  45.432  56.910  1.00  0.00    -0.354 OA
HETATM   19  C   UNL     1      29.633  45.966  58.118  1.00  0.00     0.210 C 
ENDBRANCH  15  18
ENDBRANCH   8  11
ENDBRANCH   6   7
ENDBRANCH   4   6
BRANCH   5  20
HETATM   20  N   UNL     1      22.709  45.331  49.079  1.00  0.00    -0.382 N 
HETATM   21  H   UNL     1      21.712  45.470  48.927  1.00  0.00     0.157 HD
HETATM   22  H   UNL     1      22.980  44.344  49.046  1.00  0.00     0.157 HD
ENDBRANCH   5  20
BRANCH   1  23
HETATM   23  C   UNL     1      22.975  48.497  48.753  1.00  0.00     0.275 C 
HETATM   24  N   UNL     1      22.716  49.727  49.317  1.00  0.00    -0.351 N 
HETATM   25  H   UNL     1      23.066  49.896  50.252  1.00  0.00     0.163 HD
HETATM   26  O   UNL     1      22.697  48.212  47.592  1.00  0.00    -0.266 OA
BRANCH  24  27
HETATM   27  C   UNL     1      22.222  50.842  48.548  1.00  0.00     0.161 C 
BRANCH  27  28
HETATM   28  C   UNL     1      20.793  51.165  48.909  1.00  0.00    -0.041 A 
HETATM   29  C   UNL     1      20.076  52.132  48.190  1.00  0.00     0.009 A 
HETATM   30  C   UNL     1      18.748  52.423  48.514  1.00  0.00     0.007 A 
HETATM   31  C   UNL     1      18.111  51.753  49.563  1.00  0.00    -0.062 A 
HETATM   32  C   UNL     1      16.675  52.032  49.893  1.00  0.00     0.048 C 
HETATM   33  C   UNL     1      18.818  50.775  50.272  1.00  0.00     0.007 A 
HETATM   34  C   UNL     1      20.148  50.487  49.950  1.00  0.00     0.009 A 
ENDBRANCH  27  28
ENDBRANCH  24  27
ENDBRANCH   1  23
TORSDOF 8
ENDMDL
MODEL 3
REMARK VINA RESULT:      -9.0      3.429     10.904
REMARK  8 active torsions:
REMARK  status: ('A' for Active; 'I' for Inactive)
REMARK    1  A    between atoms: C_5  and  C_6 
REMARK    2  A    between atoms: C_6  and  N_7 
REMARK       I    between atoms: N_7  and  C_8 
REMARK    3  A    between atoms: C_8  and  C_9 
REMARK    4  A    between atoms: N_12  and  C_13 
REMARK    5  A    between atoms: C_13  and  C_14 
REMARK       I    between atoms: C_14  and  N_15 
REMARK    6  A    between atoms: N_15  and  C_16 
REMARK    7  A    between atoms: C_20  and  O_21 
REMARK    8  A    between atoms: C_26  and  N_27 
ROOT
HETATM    1  C   UNL     1      24.755  47.305  50.252  1.00  0.00     0.186 A 
HETATM    2  N   UNL     1      25.107  47.572  51.560  1.00  0.00    -0.150 NA
HETATM    3  N   UNL     1      25.209  46.422  52.209  1.00  0.00     0.007 NA
HETATM    4  N   UNL     1      24.933  45.436  51.328  1.00  0.00    -0.248 N 
HETATM    5  C   UNL     1      24.628  45.935  50.088  1.00  0.00     0.151 A 
ENDROOT
BRANCH   4   6
HETATM    6  C   UNL     1      25.168  44.066  51.718  1.00  0.00     0.251 C 
BRANCH   6   7
HETATM    7  C   UNL     1      26.605  43.888  52.165  1.00  0.00     0.241 C 
HETATM    8  N   UNL     1      26.811  44.201  53.502  1.00  0.00    -0.326 N 
HETATM    9  H   UNL     1      25.999  44.544  54.015  1.00  0.00     0.169 HD
HETATM   10  O   UNL     1      27.449  43.463  51.382  1.00  0.00    -0.271 OA
BRANCH   8  11
HETATM   11  C   UNL     1      28.024  44.202  54.217  1.00  0.00     0.036 A 
HETATM   12  C   UNL     1      28.332  45.092  55.243  1.00  0.00     0.056 A 
HETATM   13  C   UNL     1      29.563  45.001  55.906  1.00  0.00     0.069 A 
HETATM   14 CL   UNL     1      29.879  46.131  57.181  1.00  0.00    -0.081 Cl
HETATM   15  C   UNL     1      30.512  44.031  55.548  1.00  0.00     0.090 A 
HETATM   16  C   UNL     1      30.195  43.137  54.523  1.00  0.00     0.041 A 
HETATM   17  C   UNL     1      28.962  43.224  53.866  1.00  0.00     0.032 A 
BRANCH  15  18
HETATM   18  O   UNL     1      31.689  44.016  56.248  1.00  0.00    -0.354 OA
HETATM   19  C   UNL     1      31.817  43.069  57.301  1.00  0.00     0.210 C 
ENDBRANCH  15  18
ENDBRANCH   8  11
ENDBRANCH   6   7
ENDBRANCH   4   6
BRANCH   5  20
HETATM   20  N   UNL     1      24.325  45.168  49.016  1.00  0.00    -0.382 N 
HETATM   21  H   UNL     1      23.417  45.154  48.557  1.00  0.00     0.157 HD
HETATM   22  H   UNL     1      24.860  44.309  48.861  1.00  0.00     0.157 HD
ENDBRANCH   5  20
BRANCH   1  23
HETATM   23  C   UNL     1      24.629  48.340  49.235  1.00  0.00     0.275 C 
HETATM   24  N   UNL     1      23.340  48.516  48.785  1.00  0.00    -0.351 N 
HETATM   25  H   UNL     1      22.611  47.971  49.230  1.00  0.00     0.163 HD
HETATM   26  O   UNL     1      25.579  49.018  48.852  1.00  0.00    -0.266 OA
BRANCH  24  27
HETATM   27  C   UNL     1      22.962  49.610  47.926  1.00  0.00     0.161 C 
BRANCH  27  28
HETATM   28  C   UNL     1      21.700  50.278  48.413  1.00  0.00    -0.041 A 
HETATM   29  C   UNL     1      21.544  50.611  49.766  1.00  0.00     0.009 A 
HETATM   30  C   UNL     1      20.382  51.241  50.217  1.00  0.00     0.007 A 
HETATM   31  C   UNL     1      19.352  51.553  49.324  1.00  0.00    -0.062 A 
HETATM   32  C   UNL     1      18.117  52.264  49.791  1.00  0.00     0.048 C 
HETATM   33  C   UNL     1      19.511  51.238  47.969  1.00  0.00     0.007 A 
HETATM   34  C   UNL     1      20.673  50.603  47.518  1.00  0.00     0.009 A 
ENDBRANCH  27  28
ENDBRANCH  24  27
ENDBRANCH   1  23
TORSDOF 8
ENDMDL
MODEL 4
REMARK VINA RESULT:      -8.9      5.640      8.764
REMARK  8 active torsions:
REMARK  status: ('A' for Active; 'I' for Inactive)
REMARK    1  A    between atoms: C_5  and  C_6 
REMARK    2  A    between atoms: C_6  and  N_7 
REMARK       I    between atoms: N_7  and  C_8 
REMARK    3  A    between atoms: C_8  and  C_9 
REMARK    4  A    between atoms: N_12  and  C_13 
REMARK    5  A    between atoms: C_13  and  C_14 
REMARK       I    between atoms: C_14  and  N_15 
REMARK    6  A    between atoms: N_15  and  C_16 
REMARK    7  A    between atoms: C_20  and  O_21 
REMARK    8  A    between atoms: C_26  and  N_27 
ROOT
HETATM    1  C   UNL     1      25.365  45.830  52.670  1.00  0.00     0.186 A 
HETATM    2  N   UNL     1      24.861  44.573  52.943  1.00  0.00    -0.150 NA
HETATM    3  N   UNL     1      24.434  44.039  51.809  1.00  0.00     0.007 NA
HETATM    4  N   UNL     1      24.667  44.937  50.827  1.00  0.00    -0.248 N 
HETATM    5  C   UNL     1      25.237  46.085  51.314  1.00  0.00     0.151 A 
ENDROOT
BRANCH   4   6
HETATM    6  C   UNL     1      24.482  44.532  49.453  1.00  0.00     0.251 C 
BRANCH   6   7
HETATM    7  C   UNL     1      24.962  43.108  49.259  1.00  0.00     0.241 C 
HETATM    8  N   UNL     1      26.306  42.932  49.557  1.00  0.00    -0.326 N 
HETATM    9  H   UNL     1      26.821  43.768  49.831  1.00  0.00     0.169 HD
HETATM   10  O   UNL     1      24.176  42.232  48.912  1.00  0.00    -0.271 OA
BRANCH   8  11
HETATM   11  C   UNL     1      27.078  41.760  49.430  1.00  0.00     0.036 A 
HETATM   12  C   UNL     1      27.266  41.067  48.237  1.00  0.00     0.056 A 
HETATM   13  C   UNL     1      28.067  39.918  48.210  1.00  0.00     0.069 A 
HETATM   14 CL   UNL     1      28.269  39.109  46.692  1.00  0.00    -0.081 Cl
HETATM   15  C   UNL     1      28.683  39.434  49.375  1.00  0.00     0.090 A 
HETATM   16  C   UNL     1      28.497  40.137  50.567  1.00  0.00     0.041 A 
HETATM   17  C   UNL     1      27.702  41.289  50.591  1.00  0.00     0.032 A 
BRANCH  15  18
HETATM   18  O   UNL     1      29.447  38.303  49.257  1.00  0.00    -0.354 OA
HETATM   19  C   UNL     1      29.600  37.490  50.413  1.00  0.00     0.210 C 
ENDBRANCH  15  18
ENDBRANCH   8  11
ENDBRANCH   6   7
ENDBRANCH   4   6
BRANCH   5  20
HETATM   20  N   UNL     1      25.587  47.142  50.547  1.00  0.00    -0.382 N 
HETATM   21  H   UNL     1      24.927  47.802  50.142  1.00  0.00     0.157 HD
HETATM   22  H   UNL     1      26.474  47.104  50.036  1.00  0.00     0.157 HD
ENDBRANCH   5  20
BRANCH   1  23
HETATM   23  C   UNL     1      25.988  46.673  53.681  1.00  0.00     0.275 C 
HETATM   24  N   UNL     1      26.815  45.984  54.540  1.00  0.00    -0.351 N 
HETATM   25  H   UNL     1      26.958  44.997  54.360  1.00  0.00     0.163 HD
HETATM   26  O   UNL     1      25.822  47.889  53.731  1.00  0.00    -0.266 OA
BRANCH  24  27
HETATM   27  C   UNL     1      27.675  46.649  55.487  1.00  0.00     0.161 C 
BRANCH  27  28
HETATM   28  C   UNL     1      28.830  45.766  55.890  1.00  0.00    -0.041 A 
HETATM   29  C   UNL     1      29.505  45.980  57.101  1.00  0.00     0.009 A 
HETATM   30  C   UNL     1      30.566  45.155  57.483  1.00  0.00     0.007 A 
HETATM   31  C   UNL     1      30.973  44.099  56.662  1.00  0.00    -0.062 A 
HETATM   32  C   UNL     1      32.086  43.185  57.081  1.00  0.00     0.048 C 
HETATM   33  C   UNL     1      30.292  43.871  55.461  1.00  0.00     0.007 A 
HETATM   34  C   UNL     1      29.232  44.699  55.077  1.00  0.00     0.009 A 
ENDBRANCH  27  28
ENDBRANCH  24  27
ENDBRANCH   1  23
TORSDOF 8
ENDMDL
MODEL 5
REMARK VINA RESULT:      -8.8      3.240      4.987
REMARK  8 active torsions:
REMARK  status: ('A' for Active; 'I' for Inactive)
REMARK    1  A    between atoms: C_5  and  C_6 
REMARK    2  A    between atoms: C_6  and  N_7 
REMARK       I    between atoms: N_7  and  C_8 
REMARK    3  A    between atoms: C_8  and  C_9 
REMARK    4  A    between atoms: N_12  and  C_13 
REMARK    5  A    between atoms: C_13  and  C_14 
REMARK       I    between atoms: C_14  and  N_15 
REMARK    6  A    between atoms: N_15  and  C_16 
REMARK    7  A    between atoms: C_20  and  O_21 
REMARK    8  A    between atoms: C_26  and  N_27 
ROOT
HETATM    1  C   UNL     1      27.657  42.207  51.316  1.00  0.00     0.186 A 
HETATM    2  N   UNL     1      27.610  43.483  50.790  1.00  0.00    -0.150 NA
HETATM    3  N   UNL     1      26.508  43.596  50.064  1.00  0.00     0.007 NA
HETATM    4  N   UNL     1      25.858  42.413  50.131  1.00  0.00    -0.248 N 
HETATM    5  C   UNL     1      26.542  41.501  50.892  1.00  0.00     0.151 A 
ENDROOT
BRANCH   4   6
HETATM    6  C   UNL     1      24.521  42.319  49.594  1.00  0.00     0.251 C 
BRANCH   6   7
HETATM    7  C   UNL     1      23.749  43.589  49.889  1.00  0.00     0.241 C 
HETATM    8  N   UNL     1      24.007  44.615  48.990  1.00  0.00    -0.326 N 
HETATM    9  H   UNL     1      24.700  44.419  48.269  1.00  0.00     0.169 HD
HETATM   10  O   UNL     1      22.954  43.628  50.824  1.00  0.00    -0.271 OA
BRANCH   8  11
HETATM   11  C   UNL     1      23.508  45.932  49.008  1.00  0.00     0.036 A 
HETATM   12  C   UNL     1      22.294  46.322  48.448  1.00  0.00     0.056 A 
HETATM   13  C   UNL     1      21.877  47.657  48.532  1.00  0.00     0.069 A 
HETATM   14 CL   UNL     1      20.351  48.073  47.825  1.00  0.00    -0.081 Cl
HETATM   15  C   UNL     1      22.669  48.627  49.165  1.00  0.00     0.090 A 
HETATM   16  C   UNL     1      23.882  48.229  49.731  1.00  0.00     0.041 A 
HETATM   17  C   UNL     1      24.295  46.895  49.652  1.00  0.00     0.032 A 
BRANCH  15  18
HETATM   18  O   UNL     1      22.184  49.907  49.199  1.00  0.00    -0.354 OA
HETATM   19  C   UNL     1      23.005  50.936  48.659  1.00  0.00     0.210 C 
ENDBRANCH  15  18
ENDBRANCH   8  11
ENDBRANCH   6   7
ENDBRANCH   4   6
BRANCH   5  20
HETATM   20  N   UNL     1      26.112  40.243  51.137  1.00  0.00    -0.382 N 
HETATM   21  H   UNL     1      25.142  39.943  51.067  1.00  0.00     0.157 HD
HETATM   22  H   UNL     1      26.666  39.647  51.759  1.00  0.00     0.157 HD
ENDBRANCH   5  20
BRANCH   1  23
HETATM   23  C   UNL     1      28.701  41.762  52.229  1.00  0.00     0.275 C 
HETATM   24  N   UNL     1      29.633  42.734  52.517  1.00  0.00    -0.351 N 
HETATM   25  H   UNL     1      29.479  43.658  52.130  1.00  0.00     0.163 HD
HETATM   26  O   UNL     1      28.719  40.639  52.724  1.00  0.00    -0.266 OA
BRANCH  24  27
HETATM   27  C   UNL     1      30.635  42.567  53.539  1.00  0.00     0.161 C 
BRANCH  27  28
HETATM   28  C   UNL     1      30.398  43.507  54.696  1.00  0.00    -0.041 A 
HETATM   29  C   UNL     1      29.338  44.425  54.666  1.00  0.00     0.009 A 
HETATM   30  C   UNL     1      29.109  45.286  55.742  1.00  0.00     0.007 A 
HETATM   31  C   UNL     1      29.934  45.246  56.870  1.00  0.00    -0.062 A 
HETATM   32  C   UNL     1      29.673  46.140  58.045  1.00  0.00     0.048 C 
HETATM   33  C   UNL     1      30.982  44.320  56.911  1.00  0.00     0.007 A 
HETATM   34  C   UNL     1      31.215  43.461  55.833  1.00  0.00     0.009 A 
ENDBRANCH  27  28
ENDBRANCH  24  27
ENDBRANCH   1  23
TORSDOF 8
ENDMDL
MODEL 6
REMARK VINA RESULT:      -8.4      4.065     10.592
REMARK  8 active torsions:
REMARK  status: ('A' for Active; 'I' for Inactive)
REMARK    1  A    between atoms: C_5  and  C_6 
REMARK    2  A    between atoms: C_6  and  N_7 
REMARK       I    between atoms: N_7  and  C_8 
REMARK    3  A    between atoms: C_8  and  C_9 
REMARK    4  A    between atoms: N_12  and  C_13 
REMARK    5  A    between atoms: C_13  and  C_14 
REMARK       I    between atoms: C_14  and  N_15 
REMARK    6  A    between atoms: N_15  and  C_16 
REMARK    7  A    between atoms: C_20  and  O_21 
REMARK    8  A    between atoms: C_26  and  N_27 
ROOT
HETATM    1  C   UNL     1      23.063  43.326  49.723  1.00  0.00     0.186 A 
HETATM    2  N   UNL     1      23.382  43.952  50.912  1.00  0.00    -0.150 NA
HETATM    3  N   UNL     1      24.428  43.336  51.440  1.00  0.00     0.007 NA
HETATM    4  N   UNL     1      24.776  42.337  50.599  1.00  0.00    -0.248 N 
HETATM    5  C   UNL     1      23.943  42.277  49.512  1.00  0.00     0.151 A 
ENDROOT
BRANCH   4   6
HETATM    6  C   UNL     1      26.013  41.629  50.830  1.00  0.00     0.251 C 
BRANCH   6   7
HETATM    7  C   UNL     1      27.044  42.560  51.434  1.00  0.00     0.241 C 
HETATM    8  N   UNL     1      27.210  42.389  52.802  1.00  0.00    -0.326 N 
HETATM    9  H   UNL     1      26.607  41.698  53.246  1.00  0.00     0.169 HD
HETATM   10  O   UNL     1      27.670  43.338  50.720  1.00  0.00    -0.271 OA
BRANCH   8  11
HETATM   11  C   UNL     1      28.036  43.123  53.676  1.00  0.00     0.036 A 
HETATM   12  C   UNL     1      27.769  44.419  54.109  1.00  0.00     0.056 A 
HETATM   13  C   UNL     1      28.647  45.060  54.993  1.00  0.00     0.069 A 
HETATM   14 CL   UNL     1      28.250  46.667  55.503  1.00  0.00    -0.081 Cl
HETATM   15  C   UNL     1      29.812  44.423  55.449  1.00  0.00     0.090 A 
HETATM   16  C   UNL     1      30.071  43.121  55.017  1.00  0.00     0.041 A 
HETATM   17  C   UNL     1      29.190  42.480  54.139  1.00  0.00     0.032 A 
BRANCH  15  18
HETATM   18  O   UNL     1      30.613  45.125  56.310  1.00  0.00    -0.354 OA
HETATM   19  C   UNL     1      31.203  44.411  57.389  1.00  0.00     0.210 C 
ENDBRANCH  15  18
ENDBRANCH   8  11
ENDBRANCH   6   7
ENDBRANCH   4   6
BRANCH   5  20
HETATM   20  N   UNL     1      24.072  41.382  48.507  1.00  0.00    -0.382 N 
HETATM   21  H   UNL     1      24.140  41.629  47.522  1.00  0.00     0.157 HD
HETATM   22  H   UNL     1      23.729  40.428  48.653  1.00  0.00     0.157 HD
ENDBRANCH   5  20
BRANCH   1  23
HETATM   23  C   UNL     1      22.004  43.793  48.838  1.00  0.00     0.275 C 
HETATM   24  N   UNL     1      21.284  44.849  49.351  1.00  0.00    -0.351 N 
HETATM   25  H   UNL     1      21.584  45.233  50.239  1.00  0.00     0.163 HD
HETATM   26  O   UNL     1      21.805  43.315  47.725  1.00  0.00    -0.266 OA
BRANCH  24  27
HETATM   27  C   UNL     1      20.323  45.584  48.566  1.00  0.00     0.161 C 
BRANCH  27  28
HETATM   28  C   UNL     1      20.606  47.066  48.603  1.00  0.00    -0.041 A 
HETATM   29  C   UNL     1      21.841  47.569  48.167  1.00  0.00     0.009 A 
HETATM   30  C   UNL     1      22.100  48.941  48.187  1.00  0.00     0.007 A 
HETATM   31  C   UNL     1      21.130  49.840  48.642  1.00  0.00    -0.062 A 
HETATM   32  C   UNL     1      21.385  51.317  48.632  1.00  0.00     0.048 C 
HETATM   33  C   UNL     1      19.890  49.343  49.062  1.00  0.00     0.007 A 
HETATM   34  C   UNL     1      19.632  47.969  49.046  1.00  0.00     0.009 A 
ENDBRANCH  27  28
ENDBRANCH  24  27
ENDBRANCH   1  23
TORSDOF 8
ENDMDL
MODEL 7
REMARK VINA RESULT:      -8.3      2.993      3.882
REMARK  8 active torsions:
REMARK  status: ('A' for Active; 'I' for Inactive)
REMARK    1  A    between atoms: C_5  and  C_6 
REMARK    2  A    between atoms: C_6  and  N_7 
REMARK       I    between atoms: N_7  and  C_8 
REMARK    3  A    between atoms: C_8  and  C_9 
REMARK    4  A    between atoms: N_12  and  C_13 
REMARK    5  A    between atoms: C_13  and  C_14 
REMARK       I    between atoms: C_14  and  N_15 
REMARK    6  A    between atoms: N_15  and  C_16 
REMARK    7  A    between atoms: C_20  and  O_21 
REMARK    8  A    between atoms: C_26  and  N_27 
ROOT
HETATM    1  C   UNL     1      25.079  42.702  50.453  1.00  0.00     0.186 A 
HETATM    2  N   UNL     1      24.124  43.283  51.263  1.00  0.00    -0.150 NA
HETATM    3  N   UNL     1      23.112  43.674  50.503  1.00  0.00     0.007 NA
HETATM    4  N   UNL     1      23.414  43.341  49.228  1.00  0.00    -0.248 N 
HETATM    5  C   UNL     1      24.643  42.742  49.138  1.00  0.00     0.151 A 
ENDROOT
BRANCH   4   6
HETATM    6  C   UNL     1      22.395  43.471  48.214  1.00  0.00     0.251 C 
BRANCH   6   7
HETATM    7  C   UNL     1      21.615  44.754  48.416  1.00  0.00     0.241 C 
HETATM    8  N   UNL     1      22.310  45.891  48.025  1.00  0.00    -0.326 N 
HETATM    9  H   UNL     1      23.261  45.744  47.687  1.00  0.00     0.169 HD
HETATM   10  O   UNL     1      20.467  44.720  48.848  1.00  0.00    -0.271 OA
BRANCH   8  11
HETATM   11  C   UNL     1      21.906  47.236  48.131  1.00  0.00     0.036 A 
HETATM   12  C   UNL     1      20.876  47.810  47.388  1.00  0.00     0.056 A 
HETATM   13  C   UNL     1      20.538  49.156  47.578  1.00  0.00     0.069 A 
HETATM   14 CL   UNL     1      19.240  49.804  46.632  1.00  0.00    -0.081 Cl
HETATM   15  C   UNL     1      21.229  49.955  48.502  1.00  0.00     0.090 A 
HETATM   16  C   UNL     1      22.256  49.373  49.248  1.00  0.00     0.041 A 
HETATM   17  C   UNL     1      22.588  48.027  49.063  1.00  0.00     0.032 A 
BRANCH  15  18
HETATM   18  O   UNL     1      20.833  51.261  48.621  1.00  0.00    -0.354 OA
HETATM   19  C   UNL     1      19.804  51.553  49.558  1.00  0.00     0.210 C 
ENDBRANCH  15  18
ENDBRANCH   8  11
ENDBRANCH   6   7
ENDBRANCH   4   6
BRANCH   5  20
HETATM   20  N   UNL     1      25.186  42.296  47.983  1.00  0.00    -0.382 N 
HETATM   21  H   UNL     1      24.839  41.499  47.454  1.00  0.00     0.157 HD
HETATM   22  H   UNL     1      26.174  42.496  47.796  1.00  0.00     0.157 HD
ENDBRANCH   5  20
BRANCH   1  23
HETATM   23  C   UNL     1      26.297  42.093  50.971  1.00  0.00     0.275 C 
HETATM   24  N   UNL     1      26.654  42.551  52.219  1.00  0.00    -0.351 N 
HETATM   25  H   UNL     1      26.026  43.203  52.675  1.00  0.00     0.163 HD
HETATM   26  O   UNL     1      26.917  41.223  50.365  1.00  0.00    -0.266 OA
BRANCH  24  27
HETATM   27  C   UNL     1      27.710  41.946  52.993  1.00  0.00     0.161 C 
BRANCH  27  28
HETATM   28  C   UNL     1      28.371  42.956  53.898  1.00  0.00    -0.041 A 
HETATM   29  C   UNL     1      29.684  42.760  54.350  1.00  0.00     0.009 A 
HETATM   30  C   UNL     1      30.303  43.700  55.177  1.00  0.00     0.007 A 
HETATM   31  C   UNL     1      29.621  44.857  55.569  1.00  0.00    -0.062 A 
HETATM   32  C   UNL     1      30.290  45.889  56.426  1.00  0.00     0.048 C 
HETATM   33  C   UNL     1      28.317  45.065  55.107  1.00  0.00     0.007 A 
HETATM   34  C   UNL     1      27.696  44.121  54.283  1.00  0.00     0.009 A 
ENDBRANCH  27  28
ENDBRANCH  24  27
ENDBRANCH   1  23
TORSDOF 8
ENDMDL
MODEL 8
REMARK VINA RESULT:      -8.2      3.773      4.618
REMARK  8 active torsions:
REMARK  status: ('A' for Active; 'I' for Inactive)
REMARK    1  A    between atoms: C_5  and  C_6 
REMARK    2  A    between atoms: C_6  and  N_7 
REMARK       I    between atoms: N_7  and  C_8 
REMARK    3  A    between atoms: C_8  and  C_9 
REMARK    4  A    between atoms: N_12  and  C_13 
REMARK    5  A    between atoms: C_13  and  C_14 
REMARK       I    between atoms: C_14  and  N_15 
REMARK    6  A    between atoms: N_15  and  C_16 
REMARK    7  A    between atoms: C_20  and  O_21 
REMARK    8  A    between atoms: C_26  and  N_27 
ROOT
HETATM    1  C   UNL     1      25.241  45.923  52.581  1.00  0.00     0.186 A 
HETATM    2  N   UNL     1      24.698  44.669  52.781  1.00  0.00    -0.150 NA
HETATM    3  N   UNL     1      24.299  44.195  51.610  1.00  0.00     0.007 NA
HETATM    4  N   UNL     1      24.589  45.128  50.677  1.00  0.00    -0.248 N 
HETATM    5  C   UNL     1      25.169  46.239  51.233  1.00  0.00     0.151 A 
ENDROOT
BRANCH   4   6
HETATM    6  C   UNL     1      24.445  44.788  49.281  1.00  0.00     0.251 C 
BRANCH   6   7
HETATM    7  C   UNL     1      23.167  45.385  48.727  1.00  0.00     0.241 C 
HETATM    8  N   UNL     1      22.207  44.435  48.404  1.00  0.00    -0.326 N 
HETATM    9  H   UNL     1      22.475  43.461  48.536  1.00  0.00     0.169 HD
HETATM   10  O   UNL     1      23.040  46.603  48.639  1.00  0.00    -0.271 OA
BRANCH   8  11
HETATM   11  C   UNL     1      20.943  44.642  47.818  1.00  0.00     0.036 A 
HETATM   12  C   UNL     1      19.890  45.315  48.434  1.00  0.00     0.056 A 
HETATM   13  C   UNL     1      18.673  45.483  47.760  1.00  0.00     0.069 A 
HETATM   14 CL   UNL     1      17.409  46.339  48.578  1.00  0.00    -0.081 Cl
HETATM   15  C   UNL     1      18.482  44.972  46.467  1.00  0.00     0.090 A 
HETATM   16  C   UNL     1      19.543  44.305  45.852  1.00  0.00     0.041 A 
HETATM   17  C   UNL     1      20.761  44.143  46.522  1.00  0.00     0.032 A 
BRANCH  15  18
HETATM   18  O   UNL     1      17.260  45.181  45.885  1.00  0.00    -0.354 OA
HETATM   19  C   UNL     1      16.737  44.145  45.064  1.00  0.00     0.210 C 
ENDBRANCH  15  18
ENDBRANCH   8  11
ENDBRANCH   6   7
ENDBRANCH   4   6
BRANCH   5  20
HETATM   20  N   UNL     1      25.572  47.318  50.526  1.00  0.00    -0.382 N 
HETATM   21  H   UNL     1      25.775  48.229  50.933  1.00  0.00     0.157 HD
HETATM   22  H   UNL     1      25.326  47.374  49.533  1.00  0.00     0.157 HD
ENDBRANCH   5  20
BRANCH   1  23
HETATM   23  C   UNL     1      25.848  46.705  53.649  1.00  0.00     0.275 C 
HETATM   24  N   UNL     1      26.934  46.093  54.232  1.00  0.00    -0.351 N 
HETATM   25  H   UNL     1      27.240  45.210  53.838  1.00  0.00     0.163 HD
HETATM   26  O   UNL     1      25.450  47.823  53.965  1.00  0.00    -0.266 OA
BRANCH  24  27
HETATM   27  C   UNL     1      27.793  46.770  55.171  1.00  0.00     0.161 C 
BRANCH  27  28
HETATM   28  C   UNL     1      28.880  45.853  55.677  1.00  0.00    -0.041 A 
HETATM   29  C   UNL     1      29.490  46.084  56.919  1.00  0.00     0.009 A 
HETATM   30  C   UNL     1      30.486  45.229  57.395  1.00  0.00     0.007 A 
HETATM   31  C   UNL     1      30.894  44.125  56.640  1.00  0.00    -0.062 A 
HETATM   32  C   UNL     1      31.936  43.181  57.159  1.00  0.00     0.048 C 
HETATM   33  C   UNL     1      30.276  43.881  55.407  1.00  0.00     0.007 A 
HETATM   34  C   UNL     1      29.281  44.739  54.929  1.00  0.00     0.009 A 
ENDBRANCH  27  28
ENDBRANCH  24  27
ENDBRANCH   1  23
TORSDOF 8
ENDMDL
MODEL 9
REMARK VINA RESULT:      -8.2      7.401     10.645
REMARK  8 active torsions:
REMARK  status: ('A' for Active; 'I' for Inactive)
REMARK    1  A    between atoms: C_5  and  C_6 
REMARK    2  A    between atoms: C_6  and  N_7 
REMARK       I    between atoms: N_7  and  C_8 
REMARK    3  A    between atoms: C_8  and  C_9 
REMARK    4  A    between atoms: N_12  and  C_13 
REMARK    5  A    between atoms: C_13  and  C_14 
REMARK       I    between atoms: C_14  and  N_15 
REMARK    6  A    between atoms: N_15  and  C_16 
REMARK    7  A    between atoms: C_20  and  O_21 
REMARK    8  A    between atoms: C_26  and  N_27 
ROOT
HETATM    1  C   UNL     1      26.707  42.656  50.598  1.00  0.00     0.186 A 
HETATM    2  N   UNL     1      26.995  43.099  49.322  1.00  0.00    -0.150 NA
HETATM    3  N   UNL     1      27.039  42.050  48.515  1.00  0.00     0.007 NA
HETATM    4  N   UNL     1      26.776  40.955  49.262  1.00  0.00    -0.248 N 
HETATM    5  C   UNL     1      26.575  41.277  50.579  1.00  0.00     0.151 A 
ENDROOT
BRANCH   4   6
HETATM    6  C   UNL     1      26.561  39.692  48.597  1.00  0.00     0.251 C 
BRANCH   6   7
HETATM    7  C   UNL     1      27.673  39.430  47.600  1.00  0.00     0.241 C 
HETATM    8  N   UNL     1      27.321  39.726  46.290  1.00  0.00    -0.326 N 
HETATM    9  H   UNL     1      26.364  40.044  46.141  1.00  0.00     0.169 HD
HETATM   10  O   UNL     1      28.769  39.035  47.985  1.00  0.00    -0.271 OA
BRANCH   8  11
HETATM   11  C   UNL     1      28.089  39.545  45.123  1.00  0.00     0.036 A 
HETATM   12  C   UNL     1      28.339  38.311  44.528  1.00  0.00     0.056 A 
HETATM   13  C   UNL     1      29.102  38.237  43.356  1.00  0.00     0.069 A 
HETATM   14 CL   UNL     1      29.366  36.673  42.661  1.00  0.00    -0.081 Cl
HETATM   15  C   UNL     1      29.640  39.391  42.765  1.00  0.00     0.090 A 
HETATM   16  C   UNL     1      29.381  40.626  43.362  1.00  0.00     0.041 A 
HETATM   17  C   UNL     1      28.612  40.700  44.529  1.00  0.00     0.032 A 
BRANCH  15  18
HETATM   18  O   UNL     1      30.376  39.226  41.622  1.00  0.00    -0.354 OA
HETATM   19  C   UNL     1      31.784  39.087  41.761  1.00  0.00     0.210 C 
ENDBRANCH  15  18
ENDBRANCH   8  11
ENDBRANCH   6   7
ENDBRANCH   4   6
BRANCH   5  20
HETATM   20  N   UNL     1      26.281  40.375  51.543  1.00  0.00    -0.382 N 
HETATM   21  H   UNL     1      26.285  40.578  52.540  1.00  0.00     0.157 HD
HETATM   22  H   UNL     1      26.413  39.380  51.341  1.00  0.00     0.157 HD
ENDBRANCH   5  20
BRANCH   1  23
HETATM   23  C   UNL     1      26.511  43.556  51.726  1.00  0.00     0.275 C 
HETATM   24  N   UNL     1      27.659  43.792  52.449  1.00  0.00    -0.351 N 
HETATM   25  H   UNL     1      28.520  43.382  52.106  1.00  0.00     0.163 HD
HETATM   26  O   UNL     1      25.431  44.084  51.978  1.00  0.00    -0.266 OA
BRANCH  24  27
HETATM   27  C   UNL     1      27.731  44.794  53.482  1.00  0.00     0.161 C 
BRANCH  27  28
HETATM   28  C   UNL     1      28.827  44.483  54.471  1.00  0.00    -0.041 A 
HETATM   29  C   UNL     1      29.540  43.278  54.392  1.00  0.00     0.009 A 
HETATM   30  C   UNL     1      30.565  42.994  55.298  1.00  0.00     0.007 A 
HETATM   31  C   UNL     1      30.897  43.909  56.302  1.00  0.00    -0.062 A 
HETATM   32  C   UNL     1      32.020  43.629  57.256  1.00  0.00     0.048 C 
HETATM   33  C   UNL     1      30.199  45.120  56.374  1.00  0.00     0.007 A 
HETATM   34  C   UNL     1      29.171  45.403  55.470  1.00  0.00     0.009 A 
ENDBRANCH  27  28
ENDBRANCH  24  27
ENDBRANCH   1  23
TORSDOF 8
ENDMDL
MODEL 10
REMARK VINA RESULT:      -8.2      2.174      2.697
REMARK  8 active torsions:
REMARK  status: ('A' for Active; 'I' for Inactive)
REMARK    1  A    between atoms: C_5  and  C_6 
REMARK    2  A    between atoms: C_6  and  N_7 
REMARK       I    between atoms: N_7  and  C_8 
REMARK    3  A    between atoms: C_8  and  C_9 
REMARK    4  A    between atoms: N_12  and  C_13 
REMARK    5  A    between atoms: C_13  and  C_14 
REMARK       I    between atoms: C_14  and  N_15 
REMARK    6  A    between atoms: N_15  and  C_16 
REMARK    7  A    between atoms: C_20  and  O_21 
REMARK    8  A    between atoms: C_26  and  N_27 
ROOT
HETATM    1  C   UNL     1      25.500  45.183  49.826  1.00  0.00     0.186 A 
HETATM    2  N   UNL     1      24.890  46.365  50.198  1.00  0.00    -0.150 NA
HETATM    3  N   UNL     1      23.713  46.436  49.595  1.00  0.00     0.007 NA
HETATM    4  N   UNL     1      23.570  45.314  48.855  1.00  0.00    -0.248 N 
HETATM    5  C   UNL     1      24.669  44.500  48.953  1.00  0.00     0.151 A 
ENDROOT
BRANCH   4   6
HETATM    6  C   UNL     1      22.290  45.034  48.250  1.00  0.00     0.251 C 
BRANCH   6   7
HETATM    7  C   UNL     1      21.580  46.329  47.908  1.00  0.00     0.241 C 
HETATM    8  N   UNL     1      20.740  46.783  48.916  1.00  0.00    -0.326 N 
HETATM    9  H   UNL     1      20.666  46.190  49.742  1.00  0.00     0.169 HD
HETATM   10  O   UNL     1      21.804  46.895  46.842  1.00  0.00    -0.271 OA
BRANCH   8  11
HETATM   11  C   UNL     1      19.896  47.910  48.902  1.00  0.00     0.036 A 
HETATM   12  C   UNL     1      20.343  49.229  48.867  1.00  0.00     0.056 A 
HETATM   13  C   UNL     1      19.422  50.283  48.839  1.00  0.00     0.069 A 
HETATM   14 CL   UNL     1      20.044  51.899  48.785  1.00  0.00    -0.081 Cl
HETATM   15  C   UNL     1      18.040  50.041  48.859  1.00  0.00     0.090 A 
HETATM   16  C   UNL     1      17.597  48.717  48.887  1.00  0.00     0.041 A 
HETATM   17  C   UNL     1      18.518  47.664  48.908  1.00  0.00     0.032 A 
BRANCH  15  18
HETATM   18  O   UNL     1      17.212  51.132  48.831  1.00  0.00    -0.354 OA
HETATM   19  C   UNL     1      16.579  51.446  47.597  1.00  0.00     0.210 C 
ENDBRANCH  15  18
ENDBRANCH   8  11
ENDBRANCH   6   7
ENDBRANCH   4   6
BRANCH   5  20
HETATM   20  N   UNL     1      24.787  43.307  48.326  1.00  0.00    -0.382 N 
HETATM   21  H   UNL     1      24.046  42.611  48.272  1.00  0.00     0.157 HD
HETATM   22  H   UNL     1      25.721  42.901  48.215  1.00  0.00     0.157 HD
ENDBRANCH   5  20
BRANCH   1  23
HETATM   23  C   UNL     1      26.781  44.747  50.364  1.00  0.00     0.275 C 
HETATM   24  N   UNL     1      26.666  43.907  51.449  1.00  0.00    -0.351 N 
HETATM   25  H   UNL     1      25.732  43.629  51.728  1.00  0.00     0.163 HD
HETATM   26  O   UNL     1      27.857  45.067  49.866  1.00  0.00    -0.266 OA
BRANCH  24  27
HETATM   27  C   UNL     1      27.796  43.210  52.012  1.00  0.00     0.161 C 
BRANCH  27  28
HETATM   28  C   UNL     1      28.295  43.896  53.260  1.00  0.00    -0.041 A 
HETATM   29  C   UNL     1      27.600  44.987  53.803  1.00  0.00     0.009 A 
HETATM   30  C   UNL     1      28.053  45.615  54.965  1.00  0.00     0.007 A 
HETATM   31  C   UNL     1      29.210  45.164  55.610  1.00  0.00    -0.062 A 
HETATM   32  C   UNL     1      29.682  45.807  56.879  1.00  0.00     0.048 C 
HETATM   33  C   UNL     1      29.896  44.065  55.081  1.00  0.00     0.007 A 
HETATM   34  C   UNL     1      29.445  43.439  53.915  1.00  0.00     0.009 A 
ENDBRANCH  27  28
ENDBRANCH  24  27
ENDBRANCH   1  23
TORSDOF 8
ENDMDL
