MODEL 1
REMARK VINA RESULT:      -9.4      0.000      0.000
REMARK  5 active torsions:
REMARK  status: ('A' for Active; 'I' for Inactive)
REMARK    1  A    between atoms: C_5  and  N_6 
REMARK    2  A    between atoms: N_6  and  C_7 
REMARK    3  A    between atoms: C_7  and  C_8 
REMARK       I    between atoms: C_8  and  N_9 
REMARK    4  A    between atoms: N_9  and  N_10 
REMARK    5  A    between atoms: C_11  and  C_12 
ROOT
HETATM    1  C   UNL     1      25.960  46.758  53.674  1.00  0.00     0.250 C 
HETATM    2  N   UNL     1      25.923  46.499  52.310  1.00  0.00    -0.246 N 
HETATM    3  O   UNL     1      25.582  47.799  54.208  1.00  0.00    -0.270 OA
HETATM    4  H   UNL     1      26.203  45.589  51.959  1.00  0.00     0.192 HD
ENDROOT
BRANCH   2   5
HETATM    5  N   UNL     1      25.515  47.488  51.462  1.00  0.00    -0.184 NA
HETATM    6  C   UNL     1      25.990  47.473  50.261  1.00  0.00     0.152 C 
BRANCH   6   7
HETATM    7  C   UNL     1      25.603  48.526  49.342  1.00  0.00     0.011 A 
HETATM    8  C   UNL     1      24.281  48.947  48.984  1.00  0.00     0.004 A 
HETATM    9  C   UNL     1      24.410  49.979  48.049  1.00  0.00     0.043 A 
HETATM   10  C   UNL     1      22.982  48.546  49.360  1.00  0.00     0.014 A 
HETATM   11  C   UNL     1      23.309  50.625  47.473  1.00  0.00     0.030 A 
HETATM   12  N   UNL     1      25.753  50.184  47.852  1.00  0.00    -0.364 N 
HETATM   13  C   UNL     1      22.035  50.208  47.863  1.00  0.00     0.002 A 
HETATM   14  C   UNL     1      21.870  49.184  48.794  1.00  0.00     0.001 A 
HETATM   15  H   UNL     1      26.145  50.875  47.225  1.00  0.00     0.165 HD
HETATM   16  C   UNL     1      26.480  49.319  48.622  1.00  0.00     0.102 A 
ENDBRANCH   6   7
ENDBRANCH   2   5
BRANCH   1  17
HETATM   17  C   UNL     1      26.563  45.617  54.493  1.00  0.00     0.197 C 
BRANCH  17  18
HETATM   18  N   UNL     1      27.670  44.967  53.777  1.00  0.00    -0.284 NA
HETATM   19  H   UNL     1      27.348  44.189  53.198  1.00  0.00     0.128 HD
BRANCH  18  20
HETATM   20  C   UNL     1      28.802  44.575  54.515  1.00  0.00     0.008 A 
HETATM   21  C   UNL     1      29.449  43.342  54.366  1.00  0.00     0.024 A 
HETATM   22  C   UNL     1      30.519  42.975  55.194  1.00  0.00     0.008 A 
HETATM   23  C   UNL     1      30.948  43.819  56.220  1.00  0.00    -0.062 A 
HETATM   24  C   UNL     1      32.046  43.407  57.154  1.00  0.00     0.048 C 
HETATM   25  C   UNL     1      30.294  45.041  56.395  1.00  0.00     0.008 A 
HETATM   26  C   UNL     1      29.235  45.407  55.556  1.00  0.00     0.024 A 
ENDBRANCH  18  20
ENDBRANCH  17  18
ENDBRANCH   1  17
TORSDOF 5
ENDMDL
MODEL 2
REMARK VINA RESULT:      -8.9      2.205      9.900
REMARK  5 active torsions:
REMARK  status: ('A' for Active; 'I' for Inactive)
REMARK    1  A    between atoms: C_5  and  N_6 
REMARK    2  A    between atoms: N_6  and  C_7 
REMARK    3  A    between atoms: C_7  and  C_8 
REMARK       I    between atoms: C_8  and  N_9 
REMARK    4  A    between atoms: N_9  and  N_10 
REMARK    5  A    between atoms: C_11  and  C_12 
ROOT
HETATM    1  C   UNL     1      24.318  48.001  49.724  1.00  0.00     0.250 C 
HETATM    2  N   UNL     1      24.353  47.143  50.816  1.00  0.00    -0.246 N 
HETATM    3  O   UNL     1      25.110  48.920  49.519  1.00  0.00    -0.270 OA
HETATM    4  H   UNL     1      23.694  46.374  50.878  1.00  0.00     0.192 HD
ENDROOT
BRANCH   2   5
HETATM    5  N   UNL     1      25.278  47.362  51.797  1.00  0.00    -0.184 NA
HETATM    6  C   UNL     1      25.350  46.490  52.748  1.00  0.00     0.152 C 
BRANCH   6   7
HETATM    7  C   UNL     1      26.299  46.706  53.823  1.00  0.00     0.011 A 
HETATM    8  C   UNL     1      27.397  45.872  54.215  1.00  0.00     0.004 A 
HETATM    9  C   UNL     1      28.010  46.480  55.316  1.00  0.00     0.043 A 
HETATM   10  C   UNL     1      27.928  44.654  53.744  1.00  0.00     0.014 A 
HETATM   11  C   UNL     1      29.121  45.929  55.967  1.00  0.00     0.030 A 
HETATM   12  N   UNL     1      27.320  47.637  55.578  1.00  0.00    -0.364 N 
HETATM   13  C   UNL     1      29.626  44.721  55.479  1.00  0.00     0.002 A 
HETATM   14  C   UNL     1      29.041  44.091  54.382  1.00  0.00     0.001 A 
HETATM   15  H   UNL     1      27.542  48.284  56.324  1.00  0.00     0.165 HD
HETATM   16  C   UNL     1      26.291  47.784  54.690  1.00  0.00     0.102 A 
ENDBRANCH   6   7
ENDBRANCH   2   5
BRANCH   1  17
HETATM   17  C   UNL     1      23.153  47.728  48.774  1.00  0.00     0.197 C 
BRANCH  17  18
HETATM   18  N   UNL     1      21.857  47.919  49.442  1.00  0.00    -0.284 NA
HETATM   19  H   UNL     1      21.265  47.089  49.375  1.00  0.00     0.128 HD
BRANCH  18  20
HETATM   20  C   UNL     1      21.107  49.066  49.125  1.00  0.00     0.008 A 
HETATM   21  C   UNL     1      21.664  50.277  48.697  1.00  0.00     0.024 A 
HETATM   22  C   UNL     1      20.869  51.411  48.481  1.00  0.00     0.008 A 
HETATM   23  C   UNL     1      19.494  51.373  48.724  1.00  0.00    -0.062 A 
HETATM   24  C   UNL     1      18.645  52.598  48.562  1.00  0.00     0.048 C 
HETATM   25  C   UNL     1      18.929  50.178  49.176  1.00  0.00     0.008 A 
HETATM   26  C   UNL     1      19.728  49.046  49.376  1.00  0.00     0.024 A 
ENDBRANCH  18  20
ENDBRANCH  17  18
ENDBRANCH   1  17
TORSDOF 5
ENDMDL
MODEL 3
REMARK VINA RESULT:      -8.9      2.163      2.535
REMARK  5 active torsions:
REMARK  status: ('A' for Active; 'I' for Inactive)
REMARK    1  A    between atoms: C_5  and  N_6 
REMARK    2  A    between atoms: N_6  and  C_7 
REMARK    3  A    between atoms: C_7  and  C_8 
REMARK       I    between atoms: C_8  and  N_9 
REMARK    4  A    between atoms: N_9  and  N_10 
REMARK    5  A    between atoms: C_11  and  C_12 
ROOT
HETATM    1  C   UNL     1      26.856  43.618  50.373  1.00  0.00     0.250 C 
HETATM    2  N   UNL     1      26.616  44.891  50.876  1.00  0.00    -0.246 N 
HETATM    3  O   UNL     1      26.962  43.335  49.181  1.00  0.00    -0.270 OA
HETATM    4  H   UNL     1      26.600  45.045  51.879  1.00  0.00     0.192 HD
ENDROOT
BRANCH   2   5
HETATM    5  N   UNL     1      26.397  45.915  49.999  1.00  0.00    -0.184 NA
HETATM    6  C   UNL     1      26.340  47.110  50.488  1.00  0.00     0.152 C 
BRANCH   6   7
HETATM    7  C   UNL     1      26.077  48.219  49.591  1.00  0.00     0.011 A 
HETATM    8  C   UNL     1      24.807  48.730  49.164  1.00  0.00     0.004 A 
HETATM    9  C   UNL     1      25.058  49.789  48.285  1.00  0.00     0.043 A 
HETATM   10  C   UNL     1      23.466  48.392  49.435  1.00  0.00     0.014 A 
HETATM   11  C   UNL     1      24.037  50.520  47.665  1.00  0.00     0.030 A 
HETATM   12  N   UNL     1      26.421  49.922  48.187  1.00  0.00    -0.364 N 
HETATM   13  C   UNL     1      22.718  50.163  47.952  1.00  0.00     0.002 A 
HETATM   14  C   UNL     1      22.432  49.115  48.825  1.00  0.00     0.001 A 
HETATM   15  H   UNL     1      26.893  50.613  47.617  1.00  0.00     0.165 HD
HETATM   16  C   UNL     1      27.044  48.986  48.965  1.00  0.00     0.102 A 
ENDBRANCH   6   7
ENDBRANCH   2   5
BRANCH   1  17
HETATM   17  C   UNL     1      26.948  42.544  51.456  1.00  0.00     0.197 C 
BRANCH  17  18
HETATM   18  N   UNL     1      26.599  43.083  52.779  1.00  0.00    -0.284 NA
HETATM   19  H   UNL     1      25.954  43.873  52.714  1.00  0.00     0.128 HD
BRANCH  18  20
HETATM   20  C   UNL     1      27.643  43.394  53.669  1.00  0.00     0.008 A 
HETATM   21  C   UNL     1      27.730  44.590  54.392  1.00  0.00     0.024 A 
HETATM   22  C   UNL     1      28.842  44.877  55.195  1.00  0.00     0.008 A 
HETATM   23  C   UNL     1      29.917  43.989  55.268  1.00  0.00    -0.062 A 
HETATM   24  C   UNL     1      31.141  44.317  56.071  1.00  0.00     0.048 C 
HETATM   25  C   UNL     1      29.854  42.803  54.532  1.00  0.00     0.008 A 
HETATM   26  C   UNL     1      28.734  42.517  53.742  1.00  0.00     0.024 A 
ENDBRANCH  18  20
ENDBRANCH  17  18
ENDBRANCH   1  17
TORSDOF 5
ENDMDL
MODEL 4
REMARK VINA RESULT:      -8.6      1.683      9.756
REMARK  5 active torsions:
REMARK  status: ('A' for Active; 'I' for Inactive)
REMARK    1  A    between atoms: C_5  and  N_6 
REMARK    2  A    between atoms: N_6  and  C_7 
REMARK    3  A    between atoms: C_7  and  C_8 
REMARK       I    between atoms: C_8  and  N_9 
REMARK    4  A    between atoms: N_9  and  N_10 
REMARK    5  A    between atoms: C_11  and  C_12 
ROOT
HETATM    1  C   UNL     1      25.507  46.666  50.836  1.00  0.00     0.250 C 
HETATM    2  N   UNL     1      25.458  46.893  52.206  1.00  0.00    -0.246 N 
HETATM    3  O   UNL     1      26.477  46.219  50.226  1.00  0.00    -0.270 OA
HETATM    4  H   UNL     1      24.596  47.210  52.637  1.00  0.00     0.192 HD
ENDROOT
BRANCH   2   5
HETATM    5  N   UNL     1      26.586  46.689  52.948  1.00  0.00    -0.184 NA
HETATM    6  C   UNL     1      26.434  46.196  54.133  1.00  0.00     0.152 C 
BRANCH   6   7
HETATM    7  C   UNL     1      27.607  45.996  54.963  1.00  0.00     0.011 A 
HETATM    8  C   UNL     1      28.609  44.978  54.848  1.00  0.00     0.004 A 
HETATM    9  C   UNL     1      29.528  45.179  55.883  1.00  0.00     0.043 A 
HETATM   10  C   UNL     1      28.823  43.899  53.966  1.00  0.00     0.014 A 
HETATM   11  C   UNL     1      30.643  44.354  56.080  1.00  0.00     0.030 A 
HETATM   12  N   UNL     1      29.108  46.276  56.593  1.00  0.00    -0.364 N 
HETATM   13  C   UNL     1      30.830  43.294  55.191  1.00  0.00     0.002 A 
HETATM   14  C   UNL     1      29.936  43.067  54.147  1.00  0.00     0.001 A 
HETATM   15  H   UNL     1      29.582  46.655  57.403  1.00  0.00     0.165 HD
HETATM   16  C   UNL     1      27.956  46.775  56.052  1.00  0.00     0.102 A 
ENDBRANCH   6   7
ENDBRANCH   2   5
BRANCH   1  17
HETATM   17  C   UNL     1      24.222  47.061  50.109  1.00  0.00     0.197 C 
BRANCH  17  18
HETATM   18  N   UNL     1      24.463  48.142  49.141  1.00  0.00    -0.284 NA
HETATM   19  H   UNL     1      25.332  48.643  49.334  1.00  0.00     0.128 HD
BRANCH  18  20
HETATM   20  C   UNL     1      23.427  49.063  48.901  1.00  0.00     0.008 A 
HETATM   21  C   UNL     1      23.628  50.429  48.668  1.00  0.00     0.024 A 
HETATM   22  C   UNL     1      22.547  51.311  48.523  1.00  0.00     0.008 A 
HETATM   23  C   UNL     1      21.233  50.853  48.644  1.00  0.00    -0.062 A 
HETATM   24  C   UNL     1      20.073  51.799  48.558  1.00  0.00     0.048 C 
HETATM   25  C   UNL     1      21.020  49.497  48.901  1.00  0.00     0.008 A 
HETATM   26  C   UNL     1      22.103  48.620  49.032  1.00  0.00     0.024 A 
ENDBRANCH  18  20
ENDBRANCH  17  18
ENDBRANCH   1  17
TORSDOF 5
ENDMDL
MODEL 5
REMARK VINA RESULT:      -8.6      2.698      9.874
REMARK  5 active torsions:
REMARK  status: ('A' for Active; 'I' for Inactive)
REMARK    1  A    between atoms: C_5  and  N_6 
REMARK    2  A    between atoms: N_6  and  C_7 
REMARK    3  A    between atoms: C_7  and  C_8 
REMARK       I    between atoms: C_8  and  N_9 
REMARK    4  A    between atoms: N_9  and  N_10 
REMARK    5  A    between atoms: C_11  and  C_12 
ROOT
HETATM    1  C   UNL     1      24.050  48.308  49.314  1.00  0.00     0.250 C 
HETATM    2  N   UNL     1      23.948  47.093  49.979  1.00  0.00    -0.246 N 
HETATM    3  O   UNL     1      25.057  49.013  49.278  1.00  0.00    -0.270 OA
HETATM    4  H   UNL     1      23.096  46.546  49.909  1.00  0.00     0.192 HD
ENDROOT
BRANCH   2   5
HETATM    5  N   UNL     1      25.005  46.659  50.727  1.00  0.00    -0.184 NA
HETATM    6  C   UNL     1      24.795  45.674  51.536  1.00  0.00     0.152 C 
BRANCH   6   7
HETATM    7  C   UNL     1      25.886  45.208  52.369  1.00  0.00     0.011 A 
HETATM    8  C   UNL     1      26.595  45.930  53.385  1.00  0.00     0.004 A 
HETATM    9  C   UNL     1      27.575  45.074  53.897  1.00  0.00     0.043 A 
HETATM   10  C   UNL     1      26.502  47.232  53.916  1.00  0.00     0.014 A 
HETATM   11  C   UNL     1      28.465  45.458  54.909  1.00  0.00     0.030 A 
HETATM   12  N   UNL     1      27.464  43.881  53.229  1.00  0.00    -0.364 N 
HETATM   13  C   UNL     1      28.350  46.754  55.417  1.00  0.00     0.002 A 
HETATM   14  C   UNL     1      27.383  47.631  54.931  1.00  0.00     0.001 A 
HETATM   15  H   UNL     1      28.049  43.071  53.393  1.00  0.00     0.165 HD
HETATM   16  C   UNL     1      26.455  43.948  52.309  1.00  0.00     0.102 A 
ENDBRANCH   6   7
ENDBRANCH   2   5
BRANCH   1  17
HETATM   17  C   UNL     1      22.753  48.737  48.629  1.00  0.00     0.197 C 
BRANCH  17  18
HETATM   18  N   UNL     1      21.616  48.704  49.561  1.00  0.00    -0.284 NA
HETATM   19  H   UNL     1      21.182  47.780  49.604  1.00  0.00     0.128 HD
BRANCH  18  20
HETATM   20  C   UNL     1      20.622  49.691  49.434  1.00  0.00     0.008 A 
HETATM   21  C   UNL     1      20.802  50.906  48.764  1.00  0.00     0.024 A 
HETATM   22  C   UNL     1      19.800  51.887  48.749  1.00  0.00     0.008 A 
HETATM   23  C   UNL     1      18.601  51.690  49.437  1.00  0.00    -0.062 A 
HETATM   24  C   UNL     1      17.550  52.759  49.483  1.00  0.00     0.048 C 
HETATM   25  C   UNL     1      18.418  50.492  50.130  1.00  0.00     0.008 A 
HETATM   26  C   UNL     1      19.418  49.511  50.130  1.00  0.00     0.024 A 
ENDBRANCH  18  20
ENDBRANCH  17  18
ENDBRANCH   1  17
TORSDOF 5
ENDMDL
MODEL 6
REMARK VINA RESULT:      -8.5      1.979     10.120
REMARK  5 active torsions:
REMARK  status: ('A' for Active; 'I' for Inactive)
REMARK    1  A    between atoms: C_5  and  N_6 
REMARK    2  A    between atoms: N_6  and  C_7 
REMARK    3  A    between atoms: C_7  and  C_8 
REMARK       I    between atoms: C_8  and  N_9 
REMARK    4  A    between atoms: N_9  and  N_10 
REMARK    5  A    between atoms: C_11  and  C_12 
ROOT
HETATM    1  C   UNL     1      24.746  46.750  50.260  1.00  0.00     0.250 C 
HETATM    2  N   UNL     1      25.351  46.779  51.511  1.00  0.00    -0.246 N 
HETATM    3  O   UNL     1      24.774  45.799  49.481  1.00  0.00    -0.270 OA
HETATM    4  H   UNL     1      25.229  47.585  52.115  1.00  0.00     0.192 HD
ENDROOT
BRANCH   2   5
HETATM    5  N   UNL     1      26.110  45.712  51.900  1.00  0.00    -0.184 NA
HETATM    6  C   UNL     1      26.687  45.786  53.054  1.00  0.00     0.152 C 
BRANCH   6   7
HETATM    7  C   UNL     1      27.528  44.686  53.486  1.00  0.00     0.011 A 
HETATM    8  C   UNL     1      28.599  44.712  54.439  1.00  0.00     0.004 A 
HETATM    9  C   UNL     1      29.126  43.418  54.509  1.00  0.00     0.043 A 
HETATM   10  C   UNL     1      29.177  45.713  55.246  1.00  0.00     0.014 A 
HETATM   11  C   UNL     1      30.200  43.080  55.342  1.00  0.00     0.030 A 
HETATM   12  N   UNL     1      28.403  42.637  53.643  1.00  0.00    -0.364 N 
HETATM   13  C   UNL     1      30.753  44.091  56.131  1.00  0.00     0.002 A 
HETATM   14  C   UNL     1      30.250  45.390  56.087  1.00  0.00     0.001 A 
HETATM   15  H   UNL     1      28.563  41.650  53.486  1.00  0.00     0.165 HD
HETATM   16  C   UNL     1      27.441  43.385  53.023  1.00  0.00     0.102 A 
ENDBRANCH   6   7
ENDBRANCH   2   5
BRANCH   1  17
HETATM   17  C   UNL     1      24.041  48.056  49.896  1.00  0.00     0.197 C 
BRANCH  17  18
HETATM   18  N   UNL     1      22.659  47.817  49.456  1.00  0.00    -0.284 NA
HETATM   19  H   UNL     1      22.608  47.118  48.713  1.00  0.00     0.128 HD
BRANCH  18  20
HETATM   20  C   UNL     1      21.865  48.929  49.118  1.00  0.00     0.008 A 
HETATM   21  C   UNL     1      22.375  50.202  48.839  1.00  0.00     0.024 A 
HETATM   22  C   UNL     1      21.526  51.291  48.596  1.00  0.00     0.008 A 
HETATM   23  C   UNL     1      20.139  51.141  48.662  1.00  0.00    -0.062 A 
HETATM   24  C   UNL     1      19.224  52.313  48.471  1.00  0.00     0.048 C 
HETATM   25  C   UNL     1      19.618  49.882  48.965  1.00  0.00     0.008 A 
HETATM   26  C   UNL     1      20.472  48.796  49.194  1.00  0.00     0.024 A 
ENDBRANCH  18  20
ENDBRANCH  17  18
ENDBRANCH   1  17
TORSDOF 5
ENDMDL
MODEL 7
REMARK VINA RESULT:      -8.4      1.870      2.342
REMARK  5 active torsions:
REMARK  status: ('A' for Active; 'I' for Inactive)
REMARK    1  A    between atoms: C_5  and  N_6 
REMARK    2  A    between atoms: N_6  and  C_7 
REMARK    3  A    between atoms: C_7  and  C_8 
REMARK       I    between atoms: C_8  and  N_9 
REMARK    4  A    between atoms: N_9  and  N_10 
REMARK    5  A    between atoms: C_11  and  C_12 
ROOT
HETATM    1  C   UNL     1      25.634  44.727  52.016  1.00  0.00     0.250 C 
HETATM    2  N   UNL     1      25.781  45.916  51.313  1.00  0.00    -0.246 N 
HETATM    3  O   UNL     1      24.571  44.130  52.185  1.00  0.00    -0.270 OA
HETATM    4  H   UNL     1      26.705  46.312  51.173  1.00  0.00     0.192 HD
ENDROOT
BRANCH   2   5
HETATM    5  N   UNL     1      24.665  46.537  50.828  1.00  0.00    -0.184 NA
HETATM    6  C   UNL     1      24.415  46.404  49.567  1.00  0.00     0.152 C 
BRANCH   6   7
HETATM    7  C   UNL     1      23.257  47.076  49.009  1.00  0.00     0.011 A 
HETATM    8  C   UNL     1      23.067  48.481  48.796  1.00  0.00     0.004 A 
HETATM    9  C   UNL     1      21.786  48.651  48.259  1.00  0.00     0.043 A 
HETATM   10  C   UNL     1      23.857  49.628  49.013  1.00  0.00     0.014 A 
HETATM   11  C   UNL     1      21.260  49.907  47.932  1.00  0.00     0.030 A 
HETATM   12  N   UNL     1      21.224  47.404  48.143  1.00  0.00    -0.364 N 
HETATM   13  C   UNL     1      22.065  51.026  48.157  1.00  0.00     0.002 A 
HETATM   14  C   UNL     1      23.346  50.892  48.688  1.00  0.00     0.001 A 
HETATM   15  H   UNL     1      20.297  47.221  47.781  1.00  0.00     0.165 HD
HETATM   16  C   UNL     1      22.096  46.450  48.590  1.00  0.00     0.102 A 
ENDBRANCH   6   7
ENDBRANCH   2   5
BRANCH   1  17
HETATM   17  C   UNL     1      26.940  44.212  52.618  1.00  0.00     0.197 C 
BRANCH  17  18
HETATM   18  N   UNL     1      27.478  45.147  53.618  1.00  0.00    -0.284 NA
HETATM   19  H   UNL     1      27.629  46.079  53.228  1.00  0.00     0.128 HD
BRANCH  18  20
HETATM   20  C   UNL     1      28.606  44.753  54.360  1.00  0.00     0.008 A 
HETATM   21  C   UNL     1      29.277  43.537  54.184  1.00  0.00     0.024 A 
HETATM   22  C   UNL     1      30.341  43.163  55.016  1.00  0.00     0.008 A 
HETATM   23  C   UNL     1      30.740  43.984  56.073  1.00  0.00    -0.062 A 
HETATM   24  C   UNL     1      31.833  43.564  57.011  1.00  0.00     0.048 C 
HETATM   25  C   UNL     1      30.063  45.189  56.276  1.00  0.00     0.008 A 
HETATM   26  C   UNL     1      29.009  45.561  55.432  1.00  0.00     0.024 A 
ENDBRANCH  18  20
ENDBRANCH  17  18
ENDBRANCH   1  17
TORSDOF 5
ENDMDL
MODEL 8
REMARK VINA RESULT:      -7.8      5.159      7.439
REMARK  5 active torsions:
REMARK  status: ('A' for Active; 'I' for Inactive)
REMARK    1  A    between atoms: C_5  and  N_6 
REMARK    2  A    between atoms: N_6  and  C_7 
REMARK    3  A    between atoms: C_7  and  C_8 
REMARK       I    between atoms: C_8  and  N_9 
REMARK    4  A    between atoms: N_9  and  N_10 
REMARK    5  A    between atoms: C_11  and  C_12 
ROOT
HETATM    1  C   UNL     1      25.869  43.953  52.791  1.00  0.00     0.250 C 
HETATM    2  N   UNL     1      26.849  43.226  52.127  1.00  0.00    -0.246 N 
HETATM    3  O   UNL     1      24.676  43.969  52.495  1.00  0.00    -0.270 OA
HETATM    4  H   UNL     1      27.803  43.224  52.474  1.00  0.00     0.192 HD
ENDROOT
BRANCH   2   5
HETATM    5  N   UNL     1      26.504  42.527  51.005  1.00  0.00    -0.184 NA
HETATM    6  C   UNL     1      26.804  41.271  50.975  1.00  0.00     0.152 C 
BRANCH   6   7
HETATM    7  C   UNL     1      26.482  40.504  49.787  1.00  0.00     0.011 A 
HETATM    8  C   UNL     1      27.282  39.512  49.131  1.00  0.00     0.004 A 
HETATM    9  C   UNL     1      26.563  39.068  48.016  1.00  0.00     0.043 A 
HETATM   10  C   UNL     1      28.552  38.949  49.373  1.00  0.00     0.014 A 
HETATM   11  C   UNL     1      27.053  38.096  47.134  1.00  0.00     0.030 A 
HETATM   12  N   UNL     1      25.375  39.754  47.997  1.00  0.00    -0.364 N 
HETATM   13  C   UNL     1      28.313  37.556  47.399  1.00  0.00     0.002 A 
HETATM   14  C   UNL     1      29.054  37.974  48.502  1.00  0.00     0.001 A 
HETATM   15  H   UNL     1      24.652  39.637  47.299  1.00  0.00     0.165 HD
HETATM   16  C   UNL     1      25.314  40.619  49.054  1.00  0.00     0.102 A 
ENDBRANCH   6   7
ENDBRANCH   2   5
BRANCH   1  17
HETATM   17  C   UNL     1      26.414  44.794  53.946  1.00  0.00     0.197 C 
BRANCH  17  18
HETATM   18  N   UNL     1      27.812  45.185  53.713  1.00  0.00    -0.284 NA
HETATM   19  H   UNL     1      28.122  44.957  52.766  1.00  0.00     0.128 HD
BRANCH  18  20
HETATM   20  C   UNL     1      28.783  44.771  54.643  1.00  0.00     0.008 A 
HETATM   21  C   UNL     1      29.266  45.573  55.684  1.00  0.00     0.024 A 
HETATM   22  C   UNL     1      30.299  45.134  56.524  1.00  0.00     0.008 A 
HETATM   23  C   UNL     1      30.902  43.891  56.322  1.00  0.00    -0.062 A 
HETATM   24  C   UNL     1      32.052  43.440  57.172  1.00  0.00     0.048 C 
HETATM   25  C   UNL     1      30.447  43.092  55.270  1.00  0.00     0.008 A 
HETATM   26  C   UNL     1      29.406  43.532  54.443  1.00  0.00     0.024 A 
ENDBRANCH  18  20
ENDBRANCH  17  18
ENDBRANCH   1  17
TORSDOF 5
ENDMDL
MODEL 9
REMARK VINA RESULT:      -7.7      3.522     10.048
REMARK  5 active torsions:
REMARK  status: ('A' for Active; 'I' for Inactive)
REMARK    1  A    between atoms: C_5  and  N_6 
REMARK    2  A    between atoms: N_6  and  C_7 
REMARK    3  A    between atoms: C_7  and  C_8 
REMARK       I    between atoms: C_8  and  N_9 
REMARK    4  A    between atoms: N_9  and  N_10 
REMARK    5  A    between atoms: C_11  and  C_12 
ROOT
HETATM    1  C   UNL     1      22.570  45.093  49.286  1.00  0.00     0.250 C 
HETATM    2  N   UNL     1      23.724  45.336  50.020  1.00  0.00    -0.246 N 
HETATM    3  O   UNL     1      21.996  44.008  49.206  1.00  0.00    -0.270 OA
HETATM    4  H   UNL     1      24.101  46.277  50.078  1.00  0.00     0.192 HD
ENDROOT
BRANCH   2   5
HETATM    5  N   UNL     1      24.337  44.290  50.650  1.00  0.00    -0.184 NA
HETATM    6  C   UNL     1      25.432  43.845  50.129  1.00  0.00     0.152 C 
BRANCH   6   7
HETATM    7  C   UNL     1      26.093  42.714  50.752  1.00  0.00     0.011 A 
HETATM    8  C   UNL     1      27.294  42.712  51.534  1.00  0.00     0.004 A 
HETATM    9  C   UNL     1      27.552  41.387  51.899  1.00  0.00     0.043 A 
HETATM   10  C   UNL     1      28.193  43.710  51.965  1.00  0.00     0.014 A 
HETATM   11  C   UNL     1      28.662  41.013  52.668  1.00  0.00     0.030 A 
HETATM   12  N   UNL     1      26.548  40.616  51.369  1.00  0.00    -0.364 N 
HETATM   13  C   UNL     1      29.535  42.021  53.081  1.00  0.00     0.002 A 
HETATM   14  C   UNL     1      29.306  43.352  52.737  1.00  0.00     0.001 A 
HETATM   15  H   UNL     1      26.476  39.612  51.473  1.00  0.00     0.165 HD
HETATM   16  C   UNL     1      25.666  41.400  50.678  1.00  0.00     0.102 A 
ENDBRANCH   6   7
ENDBRANCH   2   5
BRANCH   1  17
HETATM   17  C   UNL     1      22.066  46.318  48.524  1.00  0.00     0.197 C 
BRANCH  17  18
HETATM   18  N   UNL     1      22.567  47.566  49.120  1.00  0.00    -0.284 NA
HETATM   19  H   UNL     1      22.911  47.426  50.072  1.00  0.00     0.128 HD
BRANCH  18  20
HETATM   20  C   UNL     1      21.741  48.704  49.076  1.00  0.00     0.008 A 
HETATM   21  C   UNL     1      20.350  48.672  49.234  1.00  0.00     0.024 A 
HETATM   22  C   UNL     1      19.573  49.830  49.091  1.00  0.00     0.008 A 
HETATM   23  C   UNL     1      20.165  51.048  48.750  1.00  0.00    -0.062 A 
HETATM   24  C   UNL     1      19.336  52.277  48.528  1.00  0.00     0.048 C 
HETATM   25  C   UNL     1      21.549  51.088  48.565  1.00  0.00     0.008 A 
HETATM   26  C   UNL     1      22.321  49.930  48.722  1.00  0.00     0.024 A 
ENDBRANCH  18  20
ENDBRANCH  17  18
ENDBRANCH   1  17
TORSDOF 5
ENDMDL
MODEL 10
REMARK VINA RESULT:      -7.7      2.335      2.653
REMARK  5 active torsions:
REMARK  status: ('A' for Active; 'I' for Inactive)
REMARK    1  A    between atoms: C_5  and  N_6 
REMARK    2  A    between atoms: N_6  and  C_7 
REMARK    3  A    between atoms: C_7  and  C_8 
REMARK       I    between atoms: C_8  and  N_9 
REMARK    4  A    between atoms: N_9  and  N_10 
REMARK    5  A    between atoms: C_11  and  C_12 
ROOT
HETATM    1  C   UNL     1      25.642  43.992  51.829  1.00  0.00     0.250 C 
HETATM    2  N   UNL     1      26.117  44.989  50.987  1.00  0.00    -0.246 N 
HETATM    3  O   UNL     1      24.512  43.509  51.788  1.00  0.00    -0.270 OA
HETATM    4  H   UNL     1      27.085  45.291  51.052  1.00  0.00     0.192 HD
ENDROOT
BRANCH   2   5
HETATM    5  N   UNL     1      25.261  45.553  50.084  1.00  0.00    -0.184 NA
HETATM    6  C   UNL     1      24.756  46.704  50.386  1.00  0.00     0.152 C 
BRANCH   6   7
HETATM    7  C   UNL     1      23.818  47.318  49.467  1.00  0.00     0.011 A 
HETATM    8  C   UNL     1      22.745  46.695  48.749  1.00  0.00     0.004 A 
HETATM    9  C   UNL     1      22.134  47.684  47.971  1.00  0.00     0.043 A 
HETATM   10  C   UNL     1      22.237  45.382  48.679  1.00  0.00     0.014 A 
HETATM   11  C   UNL     1      21.045  47.423  47.130  1.00  0.00     0.030 A 
HETATM   12  N   UNL     1      22.800  48.860  48.211  1.00  0.00    -0.364 N 
HETATM   13  C   UNL     1      20.562  46.114  47.081  1.00  0.00     0.002 A 
HETATM   14  C   UNL     1      21.146  45.105  47.844  1.00  0.00     0.001 A 
HETATM   15  H   UNL     1      22.573  49.749  47.783  1.00  0.00     0.165 HD
HETATM   16  C   UNL     1      23.813  48.654  49.106  1.00  0.00     0.102 A 
ENDBRANCH   6   7
ENDBRANCH   2   5
BRANCH   1  17
HETATM   17  C   UNL     1      26.661  43.545  52.877  1.00  0.00     0.197 C 
BRANCH  17  18
HETATM   18  N   UNL     1      27.466  44.677  53.361  1.00  0.00    -0.284 NA
HETATM   19  H   UNL     1      27.721  45.317  52.607  1.00  0.00     0.128 HD
BRANCH  18  20
HETATM   20  C   UNL     1      28.596  44.400  54.153  1.00  0.00     0.008 A 
HETATM   21  C   UNL     1      29.339  43.216  54.075  1.00  0.00     0.024 A 
HETATM   22  C   UNL     1      30.401  42.962  54.954  1.00  0.00     0.008 A 
HETATM   23  C   UNL     1      30.726  43.874  55.960  1.00  0.00    -0.062 A 
HETATM   24  C   UNL     1      31.817  43.582  56.947  1.00  0.00     0.048 C 
HETATM   25  C   UNL     1      29.977  45.048  56.065  1.00  0.00     0.008 A 
HETATM   26  C   UNL     1      28.925  45.301  55.175  1.00  0.00     0.024 A 
ENDBRANCH  18  20
ENDBRANCH  17  18
ENDBRANCH   1  17
TORSDOF 5
ENDMDL
