MODEL 1
REMARK VINA RESULT:     -10.4      0.000      0.000
REMARK  4 active torsions:
REMARK  status: ('A' for Active; 'I' for Inactive)
REMARK    1  A    between atoms: C_10  and  C_11 
REMARK       I    between atoms: C_11  and  N_12 
REMARK    2  A    between atoms: N_12  and  C_13 
REMARK    3  A    between atoms: C_13  and  C_14 
REMARK    4  A    between atoms: C_16  and  C_17 
ROOT
HETATM    1  C   UNL     1      27.139  44.121  51.997  1.00  0.00     0.268 C 
HETATM    2  N   UNL     1      26.564  45.332  51.709  1.00  0.00    -0.351 N 
HETATM    3  O   UNL     1      26.897  43.100  51.360  1.00  0.00    -0.266 OA
HETATM    4  H   UNL     1      26.828  46.150  52.236  1.00  0.00     0.163 HD
ENDROOT
BRANCH   2   5
HETATM    5  C   UNL     1      25.643  45.512  50.611  1.00  0.00     0.161 C 
BRANCH   5   6
HETATM    6  C   UNL     1      25.829  46.862  49.967  1.00  0.00    -0.040 A 
HETATM    7  C   UNL     1      24.721  47.646  49.611  1.00  0.00     0.024 A 
HETATM    8  C   UNL     1      24.886  48.898  48.997  1.00  0.00     0.014 A 
HETATM    9  C   UNL     1      26.185  49.362  48.746  1.00  0.00     0.015 A 
HETATM   10  C   UNL     1      27.295  48.591  49.096  1.00  0.00     0.002 A 
HETATM   11  C   UNL     1      27.118  47.347  49.700  1.00  0.00     0.009 A 
BRANCH   8  12
HETATM   12  C   UNL     1      23.719  49.692  48.621  1.00  0.00     0.181 A 
HETATM   13  N   UNL     1      23.483  50.148  47.379  1.00  0.00    -0.152 NA
HETATM   14  N   UNL     1      22.318  50.792  47.532  1.00  0.00    -0.263 N 
HETATM   15  H   UNL     1      21.892  51.243  46.730  1.00  0.00     0.190 HD
HETATM   16  C   UNL     1      21.873  50.726  48.818  1.00  0.00     0.118 A 
HETATM   17  C   UNL     1      20.614  51.347  49.278  1.00  0.00     0.093 C 
HETATM   18  N   UNL     1      22.739  50.040  49.529  1.00  0.00    -0.212 NA
ENDBRANCH   8  12
ENDBRANCH   5   6
ENDBRANCH   2   5
BRANCH   1  19
HETATM   19  C   UNL     1      28.066  44.121  53.107  1.00  0.00     0.102 A 
HETATM   20  N   UNL     1      28.019  45.112  54.066  1.00  0.00    -0.351 N 
HETATM   21  C   UNL     1      28.980  44.919  55.028  1.00  0.00     0.043 A 
HETATM   22  H   UNL     1      27.354  45.873  54.048  1.00  0.00     0.166 HD
HETATM   23  C   UNL     1      29.278  45.670  56.172  1.00  0.00     0.037 A 
HETATM   24  C   UNL     1      29.678  43.767  54.678  1.00  0.00    -0.007 A 
HETATM   25  C   UNL     1      30.335  45.235  56.987  1.00  0.00    -0.060 A 
HETATM   26  C   UNL     1      30.686  45.989  58.237  1.00  0.00     0.048 C 
HETATM   27  C   UNL     1      31.045  44.076  56.654  1.00  0.00     0.007 A 
HETATM   28  C   UNL     1      30.732  43.337  55.506  1.00  0.00     0.014 A 
HETATM   29  C   UNL     1      29.098  43.275  53.474  1.00  0.00     0.049 A 
ENDBRANCH   1  19
TORSDOF 4
ENDMDL
MODEL 2
REMARK VINA RESULT:      -9.8      1.511      2.252
REMARK  4 active torsions:
REMARK  status: ('A' for Active; 'I' for Inactive)
REMARK    1  A    between atoms: C_10  and  C_11 
REMARK       I    between atoms: C_11  and  N_12 
REMARK    2  A    between atoms: N_12  and  C_13 
REMARK    3  A    between atoms: C_13  and  C_14 
REMARK    4  A    between atoms: C_16  and  C_17 
ROOT
HETATM    1  C   UNL     1      25.379  45.264  52.299  1.00  0.00     0.268 C 
HETATM    2  N   UNL     1      25.462  46.123  51.232  1.00  0.00    -0.351 N 
HETATM    3  O   UNL     1      24.438  44.494  52.463  1.00  0.00    -0.266 OA
HETATM    4  H   UNL     1      26.276  46.706  51.121  1.00  0.00     0.163 HD
ENDROOT
BRANCH   2   5
HETATM    5  C   UNL     1      24.456  46.171  50.197  1.00  0.00     0.161 C 
BRANCH   5   6
HETATM    6  C   UNL     1      24.370  47.549  49.594  1.00  0.00    -0.040 A 
HETATM    7  C   UNL     1      23.127  48.110  49.260  1.00  0.00     0.024 A 
HETATM    8  C   UNL     1      23.039  49.388  48.683  1.00  0.00     0.014 A 
HETATM    9  C   UNL     1      24.220  50.106  48.448  1.00  0.00     0.015 A 
HETATM   10  C   UNL     1      25.462  49.558  48.777  1.00  0.00     0.002 A 
HETATM   11  C   UNL     1      25.536  48.287  49.343  1.00  0.00     0.009 A 
BRANCH   8  12
HETATM   12  C   UNL     1      21.737  49.947  48.330  1.00  0.00     0.181 A 
HETATM   13  N   UNL     1      20.849  49.343  47.521  1.00  0.00    -0.152 NA
HETATM   14  N   UNL     1      19.834  50.217  47.515  1.00  0.00    -0.263 N 
HETATM   15  H   UNL     1      19.004  50.009  46.972  1.00  0.00     0.190 HD
HETATM   16  C   UNL     1      20.104  51.306  48.290  1.00  0.00     0.118 A 
HETATM   17  C   UNL     1      19.165  52.432  48.468  1.00  0.00     0.093 C 
HETATM   18  N   UNL     1      21.300  51.164  48.814  1.00  0.00    -0.212 NA
ENDBRANCH   8  12
ENDBRANCH   5   6
ENDBRANCH   2   5
BRANCH   1  19
HETATM   19  C   UNL     1      26.488  45.317  53.226  1.00  0.00     0.102 A 
HETATM   20  N   UNL     1      27.338  44.241  53.374  1.00  0.00    -0.351 N 
HETATM   21  C   UNL     1      28.320  44.504  54.296  1.00  0.00     0.043 A 
HETATM   22  H   UNL     1      27.236  43.377  52.857  1.00  0.00     0.166 HD
HETATM   23  C   UNL     1      29.380  43.706  54.742  1.00  0.00     0.037 A 
HETATM   24  C   UNL     1      28.096  45.794  54.769  1.00  0.00    -0.007 A 
HETATM   25  C   UNL     1      30.241  44.239  55.713  1.00  0.00    -0.060 A 
HETATM   26  C   UNL     1      31.408  43.436  56.214  1.00  0.00     0.048 C 
HETATM   27  C   UNL     1      30.036  45.535  56.197  1.00  0.00     0.007 A 
HETATM   28  C   UNL     1      28.970  46.320  55.738  1.00  0.00     0.014 A 
HETATM   29  C   UNL     1      26.946  46.295  54.092  1.00  0.00     0.049 A 
ENDBRANCH   1  19
TORSDOF 4
ENDMDL
MODEL 3
REMARK VINA RESULT:      -9.7      2.012      9.039
REMARK  4 active torsions:
REMARK  status: ('A' for Active; 'I' for Inactive)
REMARK    1  A    between atoms: C_10  and  C_11 
REMARK       I    between atoms: C_11  and  N_12 
REMARK    2  A    between atoms: N_12  and  C_13 
REMARK    3  A    between atoms: C_13  and  C_14 
REMARK    4  A    between atoms: C_16  and  C_17 
ROOT
HETATM    1  C   UNL     1      25.333  44.990  51.469  1.00  0.00     0.268 C 
HETATM    2  N   UNL     1      26.321  44.117  51.089  1.00  0.00    -0.351 N 
HETATM    3  O   UNL     1      24.583  44.775  52.416  1.00  0.00    -0.266 OA
HETATM    4  H   UNL     1      26.938  44.359  50.330  1.00  0.00     0.163 HD
ENDROOT
BRANCH   2   5
HETATM    5  C   UNL     1      26.577  42.882  51.792  1.00  0.00     0.161 C 
BRANCH   5   6
HETATM    6  C   UNL     1      27.848  42.973  52.596  1.00  0.00    -0.040 A 
HETATM    7  C   UNL     1      27.939  43.834  53.701  1.00  0.00     0.024 A 
HETATM    8  C   UNL     1      29.125  43.935  54.446  1.00  0.00     0.014 A 
HETATM    9  C   UNL     1      30.227  43.153  54.072  1.00  0.00     0.015 A 
HETATM   10  C   UNL     1      30.148  42.294  52.975  1.00  0.00     0.002 A 
HETATM   11  C   UNL     1      28.967  42.207  52.240  1.00  0.00     0.009 A 
BRANCH   8  12
HETATM   12  C   UNL     1      29.202  44.848  55.584  1.00  0.00     0.181 A 
HETATM   13  N   UNL     1      28.241  45.726  55.915  1.00  0.00    -0.152 NA
HETATM   14  N   UNL     1      28.755  46.309  57.006  1.00  0.00    -0.263 N 
HETATM   15  H   UNL     1      28.224  47.031  57.480  1.00  0.00     0.190 HD
HETATM   16  C   UNL     1      29.981  45.800  57.316  1.00  0.00     0.118 A 
HETATM   17  C   UNL     1      30.784  46.256  58.469  1.00  0.00     0.093 C 
HETATM   18  N   UNL     1      30.290  44.878  56.433  1.00  0.00    -0.212 NA
ENDBRANCH   8  12
ENDBRANCH   5   6
ENDBRANCH   2   5
BRANCH   1  19
HETATM   19  C   UNL     1      25.234  46.198  50.680  1.00  0.00     0.102 A 
HETATM   20  N   UNL     1      24.008  46.668  50.259  1.00  0.00    -0.351 N 
HETATM   21  C   UNL     1      24.141  47.825  49.531  1.00  0.00     0.043 A 
HETATM   22  H   UNL     1      23.132  46.207  50.471  1.00  0.00     0.166 HD
HETATM   23  C   UNL     1      23.168  48.631  48.929  1.00  0.00     0.037 A 
HETATM   24  C   UNL     1      25.501  48.112  49.473  1.00  0.00    -0.007 A 
HETATM   25  C   UNL     1      23.598  49.771  48.231  1.00  0.00    -0.060 A 
HETATM   26  C   UNL     1      22.598  50.684  47.583  1.00  0.00     0.048 C 
HETATM   27  C   UNL     1      24.961  50.079  48.165  1.00  0.00     0.007 A 
HETATM   28  C   UNL     1      25.920  49.260  48.776  1.00  0.00     0.014 A 
HETATM   29  C   UNL     1      26.177  47.087  50.195  1.00  0.00     0.049 A 
ENDBRANCH   1  19
TORSDOF 4
ENDMDL
MODEL 4
REMARK VINA RESULT:      -9.7      2.014      9.984
REMARK  4 active torsions:
REMARK  status: ('A' for Active; 'I' for Inactive)
REMARK    1  A    between atoms: C_10  and  C_11 
REMARK       I    between atoms: C_11  and  N_12 
REMARK    2  A    between atoms: N_12  and  C_13 
REMARK    3  A    between atoms: C_13  and  C_14 
REMARK    4  A    between atoms: C_16  and  C_17 
ROOT
HETATM    1  C   UNL     1      24.778  46.523  50.132  1.00  0.00     0.268 C 
HETATM    2  N   UNL     1      24.856  46.438  51.499  1.00  0.00    -0.351 N 
HETATM    3  O   UNL     1      25.262  45.679  49.384  1.00  0.00    -0.266 OA
HETATM    4  H   UNL     1      24.407  47.136  52.070  1.00  0.00     0.163 HD
ENDROOT
BRANCH   2   5
HETATM    5  C   UNL     1      25.493  45.330  52.172  1.00  0.00     0.161 C 
BRANCH   5   6
HETATM    6  C   UNL     1      26.469  45.819  53.210  1.00  0.00    -0.040 A 
HETATM    7  C   UNL     1      27.482  44.977  53.696  1.00  0.00     0.024 A 
HETATM    8  C   UNL     1      28.386  45.421  54.675  1.00  0.00     0.014 A 
HETATM    9  C   UNL     1      28.266  46.730  55.162  1.00  0.00     0.015 A 
HETATM   10  C   UNL     1      27.263  47.576  54.686  1.00  0.00     0.002 A 
HETATM   11  C   UNL     1      26.368  47.122  53.719  1.00  0.00     0.009 A 
BRANCH   8  12
HETATM   12  C   UNL     1      29.424  44.524  55.178  1.00  0.00     0.181 A 
HETATM   13  N   UNL     1      29.703  43.321  54.649  1.00  0.00    -0.152 NA
HETATM   14  N   UNL     1      30.710  42.899  55.425  1.00  0.00    -0.263 N 
HETATM   15  H   UNL     1      31.131  41.994  55.244  1.00  0.00     0.190 HD
HETATM   16  C   UNL     1      31.021  43.815  56.386  1.00  0.00     0.118 A 
HETATM   17  C   UNL     1      32.091  43.616  57.384  1.00  0.00     0.093 C 
HETATM   18  N   UNL     1      30.222  44.850  56.255  1.00  0.00    -0.212 NA
ENDBRANCH   8  12
ENDBRANCH   5   6
ENDBRANCH   2   5
BRANCH   1  19
HETATM   19  C   UNL     1      24.076  47.679  49.620  1.00  0.00     0.102 A 
HETATM   20  N   UNL     1      22.697  47.712  49.593  1.00  0.00    -0.351 N 
HETATM   21  C   UNL     1      22.238  48.899  49.077  1.00  0.00     0.043 A 
HETATM   22  H   UNL     1      22.115  46.952  49.920  1.00  0.00     0.166 HD
HETATM   23  C   UNL     1      20.928  49.352  48.877  1.00  0.00     0.037 A 
HETATM   24  C   UNL     1      23.358  49.659  48.751  1.00  0.00    -0.007 A 
HETATM   25  C   UNL     1      20.752  50.626  48.316  1.00  0.00    -0.060 A 
HETATM   26  C   UNL     1      19.370  51.173  48.098  1.00  0.00     0.048 C 
HETATM   27  C   UNL     1      21.865  51.407  47.987  1.00  0.00     0.007 A 
HETATM   28  C   UNL     1      23.168  50.938  48.195  1.00  0.00     0.014 A 
HETATM   29  C   UNL     1      24.503  48.886  49.095  1.00  0.00     0.049 A 
ENDBRANCH   1  19
TORSDOF 4
ENDMDL
MODEL 5
REMARK VINA RESULT:      -9.5      4.456      7.204
REMARK  4 active torsions:
REMARK  status: ('A' for Active; 'I' for Inactive)
REMARK    1  A    between atoms: C_10  and  C_11 
REMARK       I    between atoms: C_11  and  N_12 
REMARK    2  A    between atoms: N_12  and  C_13 
REMARK    3  A    between atoms: C_13  and  C_14 
REMARK    4  A    between atoms: C_16  and  C_17 
ROOT
HETATM    1  C   UNL     1      26.434  45.405  52.720  1.00  0.00     0.268 C 
HETATM    2  N   UNL     1      25.559  44.349  52.662  1.00  0.00    -0.351 N 
HETATM    3  O   UNL     1      26.415  46.330  51.914  1.00  0.00    -0.266 OA
HETATM    4  H   UNL     1      25.589  43.635  53.372  1.00  0.00     0.163 HD
ENDROOT
BRANCH   2   5
HETATM    5  C   UNL     1      24.524  44.254  51.659  1.00  0.00     0.161 C 
BRANCH   5   6
HETATM    6  C   UNL     1      24.763  43.078  50.748  1.00  0.00    -0.040 A 
HETATM    7  C   UNL     1      25.913  42.284  50.887  1.00  0.00     0.024 A 
HETATM    8  C   UNL     1      26.149  41.195  50.032  1.00  0.00     0.014 A 
HETATM    9  C   UNL     1      25.211  40.904  49.032  1.00  0.00     0.015 A 
HETATM   10  C   UNL     1      24.064  41.686  48.886  1.00  0.00     0.002 A 
HETATM   11  C   UNL     1      23.843  42.768  49.736  1.00  0.00     0.009 A 
BRANCH   8  12
HETATM   12  C   UNL     1      27.359  40.391  50.184  1.00  0.00     0.181 A 
HETATM   13  N   UNL     1      28.141  40.401  51.277  1.00  0.00    -0.152 NA
HETATM   14  N   UNL     1      29.092  39.515  50.952  1.00  0.00    -0.263 N 
HETATM   15  H   UNL     1      29.833  39.317  51.615  1.00  0.00     0.190 HD
HETATM   16  C   UNL     1      28.889  38.995  49.709  1.00  0.00     0.118 A 
HETATM   17  C   UNL     1      29.781  37.994  49.089  1.00  0.00     0.093 C 
HETATM   18  N   UNL     1      27.803  39.532  49.199  1.00  0.00    -0.212 NA
ENDBRANCH   8  12
ENDBRANCH   5   6
ENDBRANCH   2   5
BRANCH   1  19
HETATM   19  C   UNL     1      27.385  45.364  53.808  1.00  0.00     0.102 A 
HETATM   20  N   UNL     1      28.348  44.378  53.868  1.00  0.00    -0.351 N 
HETATM   21  C   UNL     1      29.147  44.528  54.975  1.00  0.00     0.043 A 
HETATM   22  H   UNL     1      28.439  43.647  53.175  1.00  0.00     0.166 HD
HETATM   23  C   UNL     1      30.235  43.766  55.415  1.00  0.00     0.037 A 
HETATM   24  C   UNL     1      28.682  45.648  55.660  1.00  0.00    -0.007 A 
HETATM   25  C   UNL     1      30.872  44.154  56.604  1.00  0.00    -0.060 A 
HETATM   26  C   UNL     1      32.058  43.386  57.113  1.00  0.00     0.048 C 
HETATM   27  C   UNL     1      30.423  45.279  57.304  1.00  0.00     0.007 A 
HETATM   28  C   UNL     1      29.332  46.030  56.848  1.00  0.00     0.014 A 
HETATM   29  C   UNL     1      27.579  46.163  54.921  1.00  0.00     0.049 A 
ENDBRANCH   1  19
TORSDOF 4
ENDMDL
MODEL 6
REMARK VINA RESULT:      -9.0      2.681     10.456
REMARK  4 active torsions:
REMARK  status: ('A' for Active; 'I' for Inactive)
REMARK    1  A    between atoms: C_10  and  C_11 
REMARK       I    between atoms: C_11  and  N_12 
REMARK    2  A    between atoms: N_12  and  C_13 
REMARK    3  A    between atoms: C_13  and  C_14 
REMARK    4  A    between atoms: C_16  and  C_17 
ROOT
HETATM    1  C   UNL     1      23.424  49.620  48.262  1.00  0.00     0.268 C 
HETATM    2  N   UNL     1      23.769  48.770  49.282  1.00  0.00    -0.351 N 
HETATM    3  O   UNL     1      24.192  49.914  47.351  1.00  0.00    -0.266 OA
HETATM    4  H   UNL     1      23.088  48.528  49.984  1.00  0.00     0.163 HD
ENDROOT
BRANCH   2   5
HETATM    5  C   UNL     1      25.062  48.129  49.353  1.00  0.00     0.161 C 
BRANCH   5   6
HETATM    6  C   UNL     1      25.095  47.105  50.457  1.00  0.00    -0.040 A 
HETATM    7  C   UNL     1      25.822  47.343  51.635  1.00  0.00     0.024 A 
HETATM    8  C   UNL     1      25.870  46.387  52.662  1.00  0.00     0.014 A 
HETATM    9  C   UNL     1      25.173  45.182  52.498  1.00  0.00     0.015 A 
HETATM   10  C   UNL     1      24.447  44.935  51.332  1.00  0.00     0.002 A 
HETATM   11  C   UNL     1      24.411  45.889  50.316  1.00  0.00     0.009 A 
BRANCH   8  12
HETATM   12  C   UNL     1      26.644  46.648  53.874  1.00  0.00     0.181 A 
HETATM   13  N   UNL     1      26.451  47.706  54.680  1.00  0.00    -0.152 NA
HETATM   14  N   UNL     1      27.369  47.503  55.635  1.00  0.00    -0.263 N 
HETATM   15  H   UNL     1      27.446  48.167  56.397  1.00  0.00     0.190 HD
HETATM   16  C   UNL     1      28.087  46.367  55.408  1.00  0.00     0.118 A 
HETATM   17  C   UNL     1      29.167  45.895  56.297  1.00  0.00     0.093 C 
HETATM   18  N   UNL     1      27.653  45.808  54.301  1.00  0.00    -0.212 NA
ENDBRANCH   8  12
ENDBRANCH   5   6
ENDBRANCH   2   5
BRANCH   1  19
HETATM   19  C   UNL     1      22.078  50.148  48.322  1.00  0.00     0.102 A 
HETATM   20  N   UNL     1      20.988  49.324  48.136  1.00  0.00    -0.351 N 
HETATM   21  C   UNL     1      19.811  50.025  48.239  1.00  0.00     0.043 A 
HETATM   22  H   UNL     1      21.064  48.332  47.951  1.00  0.00     0.166 HD
HETATM   23  C   UNL     1      18.486  49.588  48.128  1.00  0.00     0.037 A 
HETATM   24  C   UNL     1      20.151  51.351  48.494  1.00  0.00    -0.007 A 
HETATM   25  C   UNL     1      17.465  50.541  48.275  1.00  0.00    -0.060 A 
HETATM   26  C   UNL     1      16.024  50.126  48.187  1.00  0.00     0.048 C 
HETATM   27  C   UNL     1      17.786  51.877  48.537  1.00  0.00     0.007 A 
HETATM   28  C   UNL     1      19.119  52.295  48.646  1.00  0.00     0.014 A 
HETATM   29  C   UNL     1      21.573  51.417  48.544  1.00  0.00     0.049 A 
ENDBRANCH   1  19
TORSDOF 4
ENDMDL
MODEL 7
REMARK VINA RESULT:      -9.0      5.016      8.472
REMARK  4 active torsions:
REMARK  status: ('A' for Active; 'I' for Inactive)
REMARK    1  A    between atoms: C_10  and  C_11 
REMARK       I    between atoms: C_11  and  N_12 
REMARK    2  A    between atoms: N_12  and  C_13 
REMARK    3  A    between atoms: C_13  and  C_14 
REMARK    4  A    between atoms: C_16  and  C_17 
ROOT
HETATM    1  C   UNL     1      27.306  43.975  51.425  1.00  0.00     0.268 C 
HETATM    2  N   UNL     1      27.471  42.872  50.625  1.00  0.00    -0.351 N 
HETATM    3  O   UNL     1      26.502  44.867  51.172  1.00  0.00    -0.266 OA
HETATM    4  H   UNL     1      28.115  42.147  50.899  1.00  0.00     0.163 HD
ENDROOT
BRANCH   2   5
HETATM    5  C   UNL     1      26.690  42.658  49.429  1.00  0.00     0.161 C 
BRANCH   5   6
HETATM    6  C   UNL     1      27.079  41.368  48.755  1.00  0.00    -0.040 A 
HETATM    7  C   UNL     1      27.368  40.222  49.512  1.00  0.00     0.024 A 
HETATM    8  C   UNL     1      27.745  39.020  48.891  1.00  0.00     0.014 A 
HETATM    9  C   UNL     1      27.826  38.977  47.492  1.00  0.00     0.015 A 
HETATM   10  C   UNL     1      27.541  40.111  46.730  1.00  0.00     0.002 A 
HETATM   11  C   UNL     1      27.173  41.300  47.358  1.00  0.00     0.009 A 
BRANCH   8  12
HETATM   12  C   UNL     1      28.056  37.842  49.698  1.00  0.00     0.181 A 
HETATM   13  N   UNL     1      27.258  36.766  49.803  1.00  0.00    -0.152 NA
HETATM   14  N   UNL     1      27.962  35.971  50.620  1.00  0.00    -0.263 N 
HETATM   15  H   UNL     1      27.587  35.064  50.874  1.00  0.00     0.190 HD
HETATM   16  C   UNL     1      29.137  36.551  50.994  1.00  0.00     0.118 A 
HETATM   17  C   UNL     1      30.115  35.904  51.893  1.00  0.00     0.093 C 
HETATM   18  N   UNL     1      29.222  37.735  50.429  1.00  0.00    -0.212 NA
ENDBRANCH   8  12
ENDBRANCH   5   6
ENDBRANCH   2   5
BRANCH   1  19
HETATM   19  C   UNL     1      28.142  44.017  52.604  1.00  0.00     0.102 A 
HETATM   20  N   UNL     1      27.947  44.978  53.574  1.00  0.00    -0.351 N 
HETATM   21  C   UNL     1      28.842  44.834  54.605  1.00  0.00     0.043 A 
HETATM   22  H   UNL     1      27.228  45.688  53.517  1.00  0.00     0.166 HD
HETATM   23  C   UNL     1      28.993  45.577  55.782  1.00  0.00     0.037 A 
HETATM   24  C   UNL     1      29.651  43.746  54.290  1.00  0.00    -0.007 A 
HETATM   25  C   UNL     1      30.014  45.203  56.669  1.00  0.00    -0.060 A 
HETATM   26  C   UNL     1      30.211  45.950  57.957  1.00  0.00     0.048 C 
HETATM   27  C   UNL     1      30.834  44.108  56.372  1.00  0.00     0.007 A 
HETATM   28  C   UNL     1      30.667  43.376  55.190  1.00  0.00     0.014 A 
HETATM   29  C   UNL     1      29.204  43.242  53.035  1.00  0.00     0.049 A 
ENDBRANCH   1  19
TORSDOF 4
ENDMDL
MODEL 8
REMARK VINA RESULT:      -8.9      2.085      9.144
REMARK  4 active torsions:
REMARK  status: ('A' for Active; 'I' for Inactive)
REMARK    1  A    between atoms: C_10  and  C_11 
REMARK       I    between atoms: C_11  and  N_12 
REMARK    2  A    between atoms: N_12  and  C_13 
REMARK    3  A    between atoms: C_13  and  C_14 
REMARK    4  A    between atoms: C_16  and  C_17 
ROOT
HETATM    1  C   UNL     1      24.134  45.149  49.716  1.00  0.00     0.268 C 
HETATM    2  N   UNL     1      24.776  44.876  50.898  1.00  0.00    -0.351 N 
HETATM    3  O   UNL     1      23.803  44.274  48.921  1.00  0.00    -0.266 OA
HETATM    4  H   UNL     1      24.989  45.626  51.536  1.00  0.00     0.163 HD
ENDROOT
BRANCH   2   5
HETATM    5  C   UNL     1      25.094  43.531  51.315  1.00  0.00     0.161 C 
BRANCH   5   6
HETATM    6  C   UNL     1      26.458  43.472  51.952  1.00  0.00    -0.040 A 
HETATM    7  C   UNL     1      26.776  44.295  53.044  1.00  0.00     0.024 A 
HETATM    8  C   UNL     1      28.050  44.257  53.634  1.00  0.00     0.014 A 
HETATM    9  C   UNL     1      29.009  43.374  53.117  1.00  0.00     0.015 A 
HETATM   10  C   UNL     1      28.703  42.551  52.031  1.00  0.00     0.002 A 
HETATM   11  C   UNL     1      27.437  42.602  51.451  1.00  0.00     0.009 A 
BRANCH   8  12
HETATM   12  C   UNL     1      28.365  45.132  54.761  1.00  0.00     0.181 A 
HETATM   13  N   UNL     1      27.715  46.275  55.034  1.00  0.00    -0.152 NA
HETATM   14  N   UNL     1      28.343  46.699  56.139  1.00  0.00    -0.263 N 
HETATM   15  H   UNL     1      28.046  47.564  56.578  1.00  0.00     0.190 HD
HETATM   16  C   UNL     1      29.335  45.842  56.513  1.00  0.00     0.118 A 
HETATM   17  C   UNL     1      30.194  46.057  57.695  1.00  0.00     0.093 C 
HETATM   18  N   UNL     1      29.374  44.845  55.658  1.00  0.00    -0.212 NA
ENDBRANCH   8  12
ENDBRANCH   5   6
ENDBRANCH   2   5
BRANCH   1  19
HETATM   19  C   UNL     1      23.858  46.546  49.467  1.00  0.00     0.102 A 
HETATM   20  N   UNL     1      22.562  46.998  49.333  1.00  0.00    -0.351 N 
HETATM   21  C   UNL     1      22.527  48.352  49.107  1.00  0.00     0.043 A 
HETATM   22  H   UNL     1      21.753  46.394  49.398  1.00  0.00     0.166 HD
HETATM   23  C   UNL     1      21.437  49.210  48.922  1.00  0.00     0.037 A 
HETATM   24  C   UNL     1      23.847  48.793  49.087  1.00  0.00    -0.007 A 
HETATM   25  C   UNL     1      21.701  50.571  48.701  1.00  0.00    -0.060 A 
HETATM   26  C   UNL     1      20.570  51.542  48.517  1.00  0.00     0.048 C 
HETATM   27  C   UNL     1      23.021  51.034  48.682  1.00  0.00     0.007 A 
HETATM   28  C   UNL     1      24.099  50.160  48.870  1.00  0.00     0.014 A 
HETATM   29  C   UNL     1      24.673  47.655  49.314  1.00  0.00     0.049 A 
ENDBRANCH   1  19
TORSDOF 4
ENDMDL
MODEL 9
REMARK VINA RESULT:      -8.9      4.123      7.452
REMARK  4 active torsions:
REMARK  status: ('A' for Active; 'I' for Inactive)
REMARK    1  A    between atoms: C_10  and  C_11 
REMARK       I    between atoms: C_11  and  N_12 
REMARK    2  A    between atoms: N_12  and  C_13 
REMARK    3  A    between atoms: C_13  and  C_14 
REMARK    4  A    between atoms: C_16  and  C_17 
ROOT
HETATM    1  C   UNL     1      28.742  41.168  52.743  1.00  0.00     0.268 C 
HETATM    2  N   UNL     1      29.655  42.180  52.897  1.00  0.00    -0.351 N 
HETATM    3  O   UNL     1      28.135  40.669  53.686  1.00  0.00    -0.266 OA
HETATM    4  H   UNL     1      30.096  42.584  52.086  1.00  0.00     0.163 HD
ENDROOT
BRANCH   2   5
HETATM    5  C   UNL     1      29.957  42.762  54.184  1.00  0.00     0.161 C 
BRANCH   5   6
HETATM    6  C   UNL     1      29.183  44.037  54.394  1.00  0.00    -0.040 A 
HETATM    7  C   UNL     1      28.157  44.408  53.511  1.00  0.00     0.024 A 
HETATM    8  C   UNL     1      27.441  45.603  53.692  1.00  0.00     0.014 A 
HETATM    9  C   UNL     1      27.763  46.426  54.780  1.00  0.00     0.015 A 
HETATM   10  C   UNL     1      28.781  46.067  55.665  1.00  0.00     0.002 A 
HETATM   11  C   UNL     1      29.489  44.882  55.471  1.00  0.00     0.009 A 
BRANCH   8  12
HETATM   12  C   UNL     1      26.386  45.977  52.753  1.00  0.00     0.181 A 
HETATM   13  N   UNL     1      25.841  47.203  52.678  1.00  0.00    -0.152 NA
HETATM   14  N   UNL     1      24.953  47.056  51.685  1.00  0.00    -0.263 N 
HETATM   15  H   UNL     1      24.386  47.849  51.406  1.00  0.00     0.190 HD
HETATM   16  C   UNL     1      24.965  45.788  51.185  1.00  0.00     0.118 A 
HETATM   17  C   UNL     1      24.088  45.340  50.084  1.00  0.00     0.093 C 
HETATM   18  N   UNL     1      25.857  45.084  51.842  1.00  0.00    -0.212 NA
ENDBRANCH   8  12
ENDBRANCH   5   6
ENDBRANCH   2   5
BRANCH   1  19
HETATM   19  C   UNL     1      28.530  40.724  51.383  1.00  0.00     0.102 A 
HETATM   20  N   UNL     1      29.007  39.502  50.956  1.00  0.00    -0.351 N 
HETATM   21  C   UNL     1      28.692  39.277  49.639  1.00  0.00     0.043 A 
HETATM   22  H   UNL     1      29.520  38.866  51.553  1.00  0.00     0.166 HD
HETATM   23  C   UNL     1      28.971  38.179  48.817  1.00  0.00     0.037 A 
HETATM   24  C   UNL     1      27.992  40.395  49.194  1.00  0.00    -0.007 A 
HETATM   25  C   UNL     1      28.526  38.223  47.487  1.00  0.00    -0.060 A 
HETATM   26  C   UNL     1      28.778  37.064  46.565  1.00  0.00     0.048 C 
HETATM   27  C   UNL     1      27.816  39.335  47.022  1.00  0.00     0.007 A 
HETATM   28  C   UNL     1      27.545  40.425  47.859  1.00  0.00     0.014 A 
HETATM   29  C   UNL     1      27.896  41.295  50.294  1.00  0.00     0.049 A 
ENDBRANCH   1  19
TORSDOF 4
ENDMDL
MODEL 10
REMARK VINA RESULT:      -8.7      4.727      7.918
REMARK  4 active torsions:
REMARK  status: ('A' for Active; 'I' for Inactive)
REMARK    1  A    between atoms: C_10  and  C_11 
REMARK       I    between atoms: C_11  and  N_12 
REMARK    2  A    between atoms: N_12  and  C_13 
REMARK    3  A    between atoms: C_13  and  C_14 
REMARK    4  A    between atoms: C_16  and  C_17 
ROOT
HETATM    1  C   UNL     1      28.559  41.195  52.366  1.00  0.00     0.268 C 
HETATM    2  N   UNL     1      29.367  42.300  52.442  1.00  0.00    -0.351 N 
HETATM    3  O   UNL     1      28.742  40.188  53.044  1.00  0.00    -0.266 OA
HETATM    4  H   UNL     1      29.150  43.118  51.894  1.00  0.00     0.163 HD
ENDROOT
BRANCH   2   5
HETATM    5  C   UNL     1      30.489  42.380  53.348  1.00  0.00     0.161 C 
BRANCH   5   6
HETATM    6  C   UNL     1      30.240  43.403  54.426  1.00  0.00    -0.040 A 
HETATM    7  C   UNL     1      29.182  44.319  54.315  1.00  0.00     0.024 A 
HETATM    8  C   UNL     1      28.953  45.285  55.309  1.00  0.00     0.014 A 
HETATM    9  C   UNL     1      29.798  45.319  56.427  1.00  0.00     0.015 A 
HETATM   10  C   UNL     1      30.853  44.412  56.547  1.00  0.00     0.002 A 
HETATM   11  C   UNL     1      31.074  43.462  55.552  1.00  0.00     0.009 A 
BRANCH   8  12
HETATM   12  C   UNL     1      27.855  46.239  55.167  1.00  0.00     0.181 A 
HETATM   13  N   UNL     1      26.848  46.107  54.287  1.00  0.00    -0.152 NA
HETATM   14  N   UNL     1      26.108  47.194  54.541  1.00  0.00    -0.263 N 
HETATM   15  H   UNL     1      25.259  47.352  54.009  1.00  0.00     0.190 HD
HETATM   16  C   UNL     1      26.653  47.951  55.534  1.00  0.00     0.118 A 
HETATM   17  C   UNL     1      26.052  49.209  56.022  1.00  0.00     0.093 C 
HETATM   18  N   UNL     1      27.759  47.374  55.946  1.00  0.00    -0.212 NA
ENDBRANCH   8  12
ENDBRANCH   5   6
ENDBRANCH   2   5
BRANCH   1  19
HETATM   19  C   UNL     1      27.458  41.293  51.434  1.00  0.00     0.102 A 
HETATM   20  N   UNL     1      26.526  42.303  51.544  1.00  0.00    -0.351 N 
HETATM   21  C   UNL     1      25.574  42.213  50.559  1.00  0.00     0.043 A 
HETATM   22  H   UNL     1      26.557  43.013  52.265  1.00  0.00     0.166 HD
HETATM   23  C   UNL     1      24.465  43.025  50.296  1.00  0.00     0.037 A 
HETATM   24  C   UNL     1      25.897  41.102  49.785  1.00  0.00    -0.007 A 
HETATM   25  C   UNL     1      23.646  42.688  49.207  1.00  0.00    -0.060 A 
HETATM   26  C   UNL     1      22.454  43.535  48.865  1.00  0.00     0.048 C 
HETATM   27  C   UNL     1      23.956  41.577  48.415  1.00  0.00     0.007 A 
HETATM   28  C   UNL     1      25.072  40.777  48.692  1.00  0.00     0.014 A 
HETATM   29  C   UNL     1      27.078  40.532  50.341  1.00  0.00     0.049 A 
ENDBRANCH   1  19
TORSDOF 4
ENDMDL
