MODEL 1
REMARK VINA RESULT:     -10.7      0.000      0.000
REMARK  6 active torsions:
REMARK  status: ('A' for Active; 'I' for Inactive)
REMARK    1  A    between atoms: C_2  and  N_3 
REMARK    2  A    between atoms: C_11  and  C_12 
REMARK    3  A    between atoms: C_14  and  C_15 
REMARK    4  A    between atoms: C_15  and  O_16 
REMARK    5  A    between atoms: O_16  and  C_17 
REMARK    6  A    between atoms: C_19  and  C_20 
ROOT
HETATM    1  N   UNL     1      30.121  45.281  56.369  1.00  0.00    -0.067 N 
HETATM    2  H   UNL     1      30.640  46.026  55.884  1.00  0.00     0.280 HD
HETATM    3  C   UNL     1      29.676  44.298  55.286  1.00  0.00     0.281 C 
HETATM    4  C   UNL     1      28.581  44.874  54.454  1.00  0.00     0.018 A 
HETATM    5  C   UNL     1      27.844  45.998  54.772  1.00  0.00    -0.023 A 
HETATM    6  C   UNL     1      26.833  46.252  53.790  1.00  0.00     0.073 A 
HETATM    7  C   UNL     1      26.843  45.306  52.792  1.00  0.00     0.088 A 
HETATM    8  N   UNL     1      25.958  45.297  51.776  1.00  0.00    -0.357 N 
HETATM    9  C   UNL     1      25.168  46.486  51.507  1.00  0.00     0.243 C 
HETATM   10  N   UNL     1      24.935  47.219  52.727  1.00  0.00    -0.330 N 
HETATM   11  C   UNL     1      25.833  47.303  53.753  1.00  0.00     0.256 C 
HETATM   12  O   UNL     1      25.768  48.183  54.605  1.00  0.00    -0.267 OA
HETATM   13  S   UNL     1      28.069  44.146  53.003  1.00  0.00    -0.074 SA
HETATM   14  C   UNL     1      28.119  46.786  56.016  1.00  0.00     0.068 C 
HETATM   15  C   UNL     1      28.918  45.957  57.036  1.00  0.00     0.240 C 
HETATM   16  H   UNL     1      26.100  44.689  50.975  1.00  0.00     0.162 HD
HETATM   17  H   UNL     1      24.307  48.007  52.659  1.00  0.00     0.165 HD
ENDROOT
BRANCH   9  18
HETATM   18  C   UNL     1      25.723  47.427  50.485  1.00  0.00     0.095 A 
HETATM   19  O   UNL     1      24.824  48.289  49.916  1.00  0.00    -0.313 OA
HETATM   20  C   UNL     1      25.499  49.030  48.991  1.00  0.00     0.077 A 
HETATM   21  C   UNL     1      26.826  48.659  48.971  1.00  0.00     0.037 A 
HETATM   22  C   UNL     1      26.972  47.631  49.935  1.00  0.00     0.039 A 
BRANCH  20  23
HETATM   23  C   UNL     1      24.704  50.031  48.230  1.00  0.00     0.240 C 
BRANCH  23  24
HETATM   24  O   UNL     1      23.583  49.333  47.695  1.00  0.00    -0.345 OA
BRANCH  24  25
HETATM   25  C   UNL     1      22.352  49.643  48.205  1.00  0.00     0.070 A 
HETATM   26  C   UNL     1      21.398  48.732  48.664  1.00  0.00     0.052 A 
HETATM   27  C   UNL     1      20.161  49.181  49.165  1.00  0.00     0.050 A 
HETATM   28  C   UNL     1      19.899  50.560  49.203  1.00  0.00     0.016 A 
HETATM   29  C   UNL     1      20.851  51.470  48.750  1.00  0.00     0.004 A 
HETATM   30  C   UNL     1      22.071  51.010  48.255  1.00  0.00     0.037 A 
BRANCH  27  31
HETATM   31  C   UNL     1      19.123  48.206  49.662  1.00  0.00     0.417 C 
HETATM   32  F   UNL     1      17.900  48.380  49.085  1.00  0.00    -0.166 F 
HETATM   33  F   UNL     1      19.466  46.912  49.425  1.00  0.00    -0.166 F 
HETATM   34  F   UNL     1      18.917  48.303  51.005  1.00  0.00    -0.166 F 
ENDBRANCH  27  31
ENDBRANCH  24  25
ENDBRANCH  23  24
ENDBRANCH  20  23
ENDBRANCH   9  18
BRANCH   1  35
HETATM   35  C   UNL     1      31.038  44.663  57.396  1.00  0.00     0.231 C 
HETATM   36  C   UNL     1      31.478  43.274  56.973  1.00  0.00     0.034 C 
ENDBRANCH   1  35
TORSDOF 6
ENDMDL
MODEL 2
REMARK VINA RESULT:      -9.6      1.602      2.052
REMARK  6 active torsions:
REMARK  status: ('A' for Active; 'I' for Inactive)
REMARK    1  A    between atoms: C_2  and  N_3 
REMARK    2  A    between atoms: C_11  and  C_12 
REMARK    3  A    between atoms: C_14  and  C_15 
REMARK    4  A    between atoms: C_15  and  O_16 
REMARK    5  A    between atoms: O_16  and  C_17 
REMARK    6  A    between atoms: C_19  and  C_20 
ROOT
HETATM    1  N   UNL     1      30.787  44.154  55.425  1.00  0.00    -0.067 N 
HETATM    2  H   UNL     1      31.290  44.799  54.803  1.00  0.00     0.280 HD
HETATM    3  C   UNL     1      29.868  43.325  54.526  1.00  0.00     0.281 C 
HETATM    4  C   UNL     1      28.727  44.142  54.024  1.00  0.00     0.018 A 
HETATM    5  C   UNL     1      28.351  45.377  54.518  1.00  0.00    -0.023 A 
HETATM    6  C   UNL     1      27.182  45.868  53.853  1.00  0.00     0.073 A 
HETATM    7  C   UNL     1      26.722  44.982  52.909  1.00  0.00     0.088 A 
HETATM    8  N   UNL     1      25.607  45.192  52.180  1.00  0.00    -0.357 N 
HETATM    9  C   UNL     1      25.033  46.525  52.123  1.00  0.00     0.243 C 
HETATM   10  N   UNL     1      25.302  47.238  53.348  1.00  0.00    -0.330 N 
HETATM   11  C   UNL     1      26.446  47.099  54.081  1.00  0.00     0.256 C 
HETATM   12  O   UNL     1      26.800  47.937  54.902  1.00  0.00    -0.267 OA
HETATM   13  S   UNL     1      27.695  43.593  52.786  1.00  0.00    -0.074 SA
HETATM   14  C   UNL     1      29.115  46.041  55.622  1.00  0.00     0.068 C 
HETATM   15  C   UNL     1      29.978  45.028  56.391  1.00  0.00     0.240 C 
HETATM   16  H   UNL     1      25.395  44.602  51.382  1.00  0.00     0.162 HD
HETATM   17  H   UNL     1      24.853  48.138  53.446  1.00  0.00     0.165 HD
ENDROOT
BRANCH   9  18
HETATM   18  C   UNL     1      25.462  47.378  50.973  1.00  0.00     0.095 A 
HETATM   19  O   UNL     1      24.456  47.978  50.265  1.00  0.00    -0.313 OA
HETATM   20  C   UNL     1      25.033  48.671  49.242  1.00  0.00     0.077 A 
HETATM   21  C   UNL     1      26.403  48.531  49.295  1.00  0.00     0.037 A 
HETATM   22  C   UNL     1      26.681  47.703  50.411  1.00  0.00     0.039 A 
BRANCH  20  23
HETATM   23  C   UNL     1      24.112  49.395  48.324  1.00  0.00     0.240 C 
BRANCH  23  24
HETATM   24  O   UNL     1      23.197  48.424  47.823  1.00  0.00    -0.345 OA
BRANCH  24  25
HETATM   25  C   UNL     1      21.874  48.771  47.794  1.00  0.00     0.070 A 
HETATM   26  C   UNL     1      21.339  50.009  48.155  1.00  0.00     0.052 A 
HETATM   27  C   UNL     1      19.952  50.239  48.083  1.00  0.00     0.050 A 
HETATM   28  C   UNL     1      19.110  49.208  47.638  1.00  0.00     0.016 A 
HETATM   29  C   UNL     1      19.642  47.973  47.274  1.00  0.00     0.004 A 
HETATM   30  C   UNL     1      21.018  47.760  47.351  1.00  0.00     0.037 A 
BRANCH  27  31
HETATM   31  C   UNL     1      19.363  51.573  48.472  1.00  0.00     0.417 C 
HETATM   32  F   UNL     1      20.268  52.592  48.440  1.00  0.00    -0.166 F 
HETATM   33  F   UNL     1      18.345  51.953  47.653  1.00  0.00    -0.166 F 
HETATM   34  F   UNL     1      18.852  51.569  49.734  1.00  0.00    -0.166 F 
ENDBRANCH  27  31
ENDBRANCH  24  25
ENDBRANCH  23  24
ENDBRANCH  20  23
ENDBRANCH   9  18
BRANCH   1  35
HETATM   35  C   UNL     1      31.806  43.323  56.165  1.00  0.00     0.231 C 
HETATM   36  C   UNL     1      31.805  43.646  57.647  1.00  0.00     0.034 C 
ENDBRANCH   1  35
TORSDOF 6
ENDMDL
MODEL 3
REMARK VINA RESULT:      -9.5      5.356     10.507
REMARK  6 active torsions:
REMARK  status: ('A' for Active; 'I' for Inactive)
REMARK    1  A    between atoms: C_2  and  N_3 
REMARK    2  A    between atoms: C_11  and  C_12 
REMARK    3  A    between atoms: C_14  and  C_15 
REMARK    4  A    between atoms: C_15  and  O_16 
REMARK    5  A    between atoms: O_16  and  C_17 
REMARK    6  A    between atoms: C_19  and  C_20 
ROOT
HETATM    1  N   UNL     1      17.923  50.772  49.934  1.00  0.00    -0.067 N 
HETATM    2  H   UNL     1      18.010  50.364  50.874  1.00  0.00     0.280 HD
HETATM    3  C   UNL     1      17.914  49.595  48.958  1.00  0.00     0.281 C 
HETATM    4  C   UNL     1      19.267  48.977  48.848  1.00  0.00     0.018 A 
HETATM    5  C   UNL     1      20.442  49.542  49.305  1.00  0.00    -0.023 A 
HETATM    6  C   UNL     1      21.570  48.717  48.993  1.00  0.00     0.073 A 
HETATM    7  C   UNL     1      21.200  47.585  48.306  1.00  0.00     0.088 A 
HETATM    8  N   UNL     1      22.084  46.672  47.858  1.00  0.00    -0.357 N 
HETATM    9  C   UNL     1      23.440  46.675  48.380  1.00  0.00     0.243 C 
HETATM   10  N   UNL     1      23.831  48.014  48.748  1.00  0.00    -0.330 N 
HETATM   11  C   UNL     1      22.978  48.947  49.263  1.00  0.00     0.256 C 
HETATM   12  O   UNL     1      23.380  49.931  49.876  1.00  0.00    -0.267 OA
HETATM   13  S   UNL     1      19.520  47.485  48.066  1.00  0.00    -0.074 SA
HETATM   14  C   UNL     1      20.450  50.862  50.011  1.00  0.00     0.068 C 
HETATM   15  C   UNL     1      19.161  51.653  49.730  1.00  0.00     0.240 C 
HETATM   16  H   UNL     1      21.765  45.774  47.507  1.00  0.00     0.162 HD
HETATM   17  H   UNL     1      24.795  48.135  49.025  1.00  0.00     0.165 HD
ENDROOT
BRANCH   9  18
HETATM   18  C   UNL     1      23.701  45.768  49.540  1.00  0.00     0.095 A 
HETATM   19  O   UNL     1      24.445  46.299  50.558  1.00  0.00    -0.313 OA
HETATM   20  C   UNL     1      24.612  45.322  51.495  1.00  0.00     0.077 A 
HETATM   21  C   UNL     1      23.971  44.171  51.090  1.00  0.00     0.037 A 
HETATM   22  C   UNL     1      23.380  44.458  49.835  1.00  0.00     0.039 A 
BRANCH  20  23
HETATM   23  C   UNL     1      25.415  45.679  52.696  1.00  0.00     0.240 C 
BRANCH  23  24
HETATM   24  O   UNL     1      26.558  44.828  52.685  1.00  0.00    -0.345 OA
BRANCH  24  25
HETATM   25  C   UNL     1      27.482  45.011  53.676  1.00  0.00     0.070 A 
HETATM   26  C   UNL     1      28.563  44.173  53.960  1.00  0.00     0.052 A 
HETATM   27  C   UNL     1      29.445  44.474  55.015  1.00  0.00     0.050 A 
HETATM   28  C   UNL     1      29.229  45.631  55.779  1.00  0.00     0.016 A 
HETATM   29  C   UNL     1      28.154  46.470  55.496  1.00  0.00     0.004 A 
HETATM   30  C   UNL     1      27.288  46.159  54.447  1.00  0.00     0.037 A 
BRANCH  27  31
HETATM   31  C   UNL     1      30.615  43.575  55.331  1.00  0.00     0.417 C 
HETATM   32  F   UNL     1      30.351  42.671  56.317  1.00  0.00    -0.166 F 
HETATM   33  F   UNL     1      31.018  42.845  54.256  1.00  0.00    -0.166 F 
HETATM   34  F   UNL     1      31.709  44.270  55.747  1.00  0.00    -0.166 F 
ENDBRANCH  27  31
ENDBRANCH  24  25
ENDBRANCH  23  24
ENDBRANCH  20  23
ENDBRANCH   9  18
BRANCH   1  35
HETATM   35  C   UNL     1      16.657  51.592  49.892  1.00  0.00     0.231 C 
HETATM   36  C   UNL     1      16.955  53.043  49.565  1.00  0.00     0.034 C 
ENDBRANCH   1  35
TORSDOF 6
ENDMDL
MODEL 4
REMARK VINA RESULT:      -9.4      3.576      4.547
REMARK  6 active torsions:
REMARK  status: ('A' for Active; 'I' for Inactive)
REMARK    1  A    between atoms: C_2  and  N_3 
REMARK    2  A    between atoms: C_11  and  C_12 
REMARK    3  A    between atoms: C_14  and  C_15 
REMARK    4  A    between atoms: C_15  and  O_16 
REMARK    5  A    between atoms: O_16  and  C_17 
REMARK    6  A    between atoms: C_19  and  C_20 
ROOT
HETATM    1  N   UNL     1      28.575  39.721  50.249  1.00  0.00    -0.067 N 
HETATM    2  H   UNL     1      29.123  40.349  49.647  1.00  0.00     0.280 HD
HETATM    3  C   UNL     1      27.107  39.962  49.893  1.00  0.00     0.281 C 
HETATM    4  C   UNL     1      26.640  41.282  50.405  1.00  0.00     0.018 A 
HETATM    5  C   UNL     1      27.309  42.062  51.329  1.00  0.00    -0.023 A 
HETATM    6  C   UNL     1      26.563  43.242  51.649  1.00  0.00     0.073 A 
HETATM    7  C   UNL     1      25.368  43.290  50.970  1.00  0.00     0.088 A 
HETATM    8  N   UNL     1      24.466  44.278  51.134  1.00  0.00    -0.357 N 
HETATM    9  C   UNL     1      24.870  45.513  51.784  1.00  0.00     0.243 C 
HETATM   10  N   UNL     1      25.916  45.254  52.743  1.00  0.00    -0.330 N 
HETATM   11  C   UNL     1      26.885  44.305  52.583  1.00  0.00     0.256 C 
HETATM   12  O   UNL     1      27.933  44.331  53.218  1.00  0.00    -0.267 OA
HETATM   13  S   UNL     1      25.152  41.960  49.933  1.00  0.00    -0.074 SA
HETATM   14  C   UNL     1      28.633  41.645  51.889  1.00  0.00     0.068 C 
HETATM   15  C   UNL     1      28.872  40.138  51.694  1.00  0.00     0.240 C 
HETATM   16  H   UNL     1      23.680  44.368  50.498  1.00  0.00     0.162 HD
HETATM   17  H   UNL     1      26.191  46.036  53.321  1.00  0.00     0.165 HD
ENDROOT
BRANCH   9  18
HETATM   18  C   UNL     1      25.316  46.617  50.880  1.00  0.00     0.095 A 
HETATM   19  O   UNL     1      24.320  47.367  50.315  1.00  0.00    -0.313 OA
HETATM   20  C   UNL     1      24.913  48.285  49.499  1.00  0.00     0.077 A 
HETATM   21  C   UNL     1      26.283  48.138  49.546  1.00  0.00     0.037 A 
HETATM   22  C   UNL     1      26.544  47.068  50.437  1.00  0.00     0.039 A 
BRANCH  20  23
HETATM   23  C   UNL     1      24.006  49.206  48.762  1.00  0.00     0.240 C 
BRANCH  23  24
HETATM   24  O   UNL     1      23.097  49.732  49.724  1.00  0.00    -0.345 OA
BRANCH  24  25
HETATM   25  C   UNL     1      21.774  49.771  49.377  1.00  0.00     0.070 A 
HETATM   26  C   UNL     1      20.968  50.910  49.329  1.00  0.00     0.052 A 
HETATM   27  C   UNL     1      19.614  50.815  48.958  1.00  0.00     0.050 A 
HETATM   28  C   UNL     1      19.081  49.558  48.632  1.00  0.00     0.016 A 
HETATM   29  C   UNL     1      19.883  48.421  48.676  1.00  0.00     0.004 A 
HETATM   30  C   UNL     1      21.224  48.531  49.046  1.00  0.00     0.037 A 
BRANCH  27  31
HETATM   31  C   UNL     1      18.734  52.040  48.904  1.00  0.00     0.417 C 
HETATM   32  F   UNL     1      18.478  52.576  50.131  1.00  0.00    -0.166 F 
HETATM   33  F   UNL     1      19.281  53.043  48.165  1.00  0.00    -0.166 F 
HETATM   34  F   UNL     1      17.517  51.783  48.350  1.00  0.00    -0.166 F 
ENDBRANCH  27  31
ENDBRANCH  24  25
ENDBRANCH  23  24
ENDBRANCH  20  23
ENDBRANCH   9  18
BRANCH   1  35
HETATM   35  C   UNL     1      29.028  38.305  49.986  1.00  0.00     0.231 C 
HETATM   36  C   UNL     1      29.986  37.828  51.062  1.00  0.00     0.034 C 
ENDBRANCH   1  35
TORSDOF 6
ENDMDL
MODEL 5
REMARK VINA RESULT:      -9.2      4.948     10.669
REMARK  6 active torsions:
REMARK  status: ('A' for Active; 'I' for Inactive)
REMARK    1  A    between atoms: C_2  and  N_3 
REMARK    2  A    between atoms: C_11  and  C_12 
REMARK    3  A    between atoms: C_14  and  C_15 
REMARK    4  A    between atoms: C_15  and  O_16 
REMARK    5  A    between atoms: O_16  and  C_17 
REMARK    6  A    between atoms: C_19  and  C_20 
ROOT
HETATM    1  N   UNL     1      18.461  48.868  48.569  1.00  0.00    -0.067 N 
HETATM    2  H   UNL     1      18.381  48.721  49.584  1.00  0.00     0.280 HD
HETATM    3  C   UNL     1      18.878  47.522  47.975  1.00  0.00     0.281 C 
HETATM    4  C   UNL     1      20.298  47.207  48.302  1.00  0.00     0.018 A 
HETATM    5  C   UNL     1      21.221  48.107  48.801  1.00  0.00    -0.023 A 
HETATM    6  C   UNL     1      22.508  47.500  48.952  1.00  0.00     0.073 A 
HETATM    7  C   UNL     1      22.504  46.185  48.549  1.00  0.00     0.088 A 
HETATM    8  N   UNL     1      23.605  45.409  48.550  1.00  0.00    -0.357 N 
HETATM    9  C   UNL     1      24.775  45.831  49.300  1.00  0.00     0.243 C 
HETATM   10  N   UNL     1      24.845  47.271  49.350  1.00  0.00    -0.330 N 
HETATM   11  C   UNL     1      23.753  48.089  49.413  1.00  0.00     0.256 C 
HETATM   12  O   UNL     1      23.831  49.252  49.794  1.00  0.00    -0.267 OA
HETATM   13  S   UNL     1      20.970  45.667  48.029  1.00  0.00    -0.074 SA
HETATM   14  C   UNL     1      20.845  49.525  49.101  1.00  0.00     0.068 C 
HETATM   15  C   UNL     1      19.552  49.926  48.370  1.00  0.00     0.240 C 
HETATM   16  H   UNL     1      23.529  44.406  48.408  1.00  0.00     0.162 HD
HETATM   17  H   UNL     1      25.680  47.662  49.762  1.00  0.00     0.165 HD
ENDROOT
BRANCH   9  18
HETATM   18  C   UNL     1      24.890  45.302  50.694  1.00  0.00     0.095 A 
HETATM   19  O   UNL     1      25.918  45.807  51.443  1.00  0.00    -0.313 OA
HETATM   20  C   UNL     1      25.887  45.181  52.655  1.00  0.00     0.077 A 
HETATM   21  C   UNL     1      24.839  44.286  52.693  1.00  0.00     0.037 A 
HETATM   22  C   UNL     1      24.195  44.366  51.434  1.00  0.00     0.039 A 
BRANCH  20  23
HETATM   23  C   UNL     1      26.938  45.569  53.633  1.00  0.00     0.240 C 
BRANCH  23  24
HETATM   24  O   UNL     1      27.977  44.601  53.514  1.00  0.00    -0.345 OA
BRANCH  24  25
HETATM   25  C   UNL     1      28.885  44.531  54.535  1.00  0.00     0.070 A 
HETATM   26  C   UNL     1      28.859  45.281  55.713  1.00  0.00     0.052 A 
HETATM   27  C   UNL     1      29.860  45.117  56.689  1.00  0.00     0.050 A 
HETATM   28  C   UNL     1      30.885  44.186  56.468  1.00  0.00     0.016 A 
HETATM   29  C   UNL     1      30.911  43.434  55.296  1.00  0.00     0.004 A 
HETATM   30  C   UNL     1      29.913  43.608  54.337  1.00  0.00     0.037 A 
BRANCH  27  31
HETATM   31  C   UNL     1      29.841  45.923  57.965  1.00  0.00     0.417 C 
HETATM   32  F   UNL     1      28.789  46.787  58.043  1.00  0.00    -0.166 F 
HETATM   33  F   UNL     1      29.764  45.141  59.076  1.00  0.00    -0.166 F 
HETATM   34  F   UNL     1      30.960  46.685  58.117  1.00  0.00    -0.166 F 
ENDBRANCH  27  31
ENDBRANCH  24  25
ENDBRANCH  23  24
ENDBRANCH  20  23
ENDBRANCH   9  18
BRANCH   1  35
HETATM   35  C   UNL     1      17.127  49.358  48.060  1.00  0.00     0.231 C 
HETATM   36  C   UNL     1      17.162  50.848  47.779  1.00  0.00     0.034 C 
ENDBRANCH   1  35
TORSDOF 6
ENDMDL
MODEL 6
REMARK VINA RESULT:      -9.1      4.576     10.201
REMARK  6 active torsions:
REMARK  status: ('A' for Active; 'I' for Inactive)
REMARK    1  A    between atoms: C_2  and  N_3 
REMARK    2  A    between atoms: C_11  and  C_12 
REMARK    3  A    between atoms: C_14  and  C_15 
REMARK    4  A    between atoms: C_15  and  O_16 
REMARK    5  A    between atoms: O_16  and  C_17 
REMARK    6  A    between atoms: C_19  and  C_20 
ROOT
HETATM    1  N   UNL     1      18.749  46.422  48.181  1.00  0.00    -0.067 N 
HETATM    2  H   UNL     1      18.568  46.422  49.194  1.00  0.00     0.280 HD
HETATM    3  C   UNL     1      19.746  45.292  47.926  1.00  0.00     0.281 C 
HETATM    4  C   UNL     1      21.103  45.649  48.431  1.00  0.00     0.018 A 
HETATM    5  C   UNL     1      21.510  46.917  48.800  1.00  0.00    -0.023 A 
HETATM    6  C   UNL     1      22.888  46.928  49.186  1.00  0.00     0.073 A 
HETATM    7  C   UNL     1      23.460  45.683  49.075  1.00  0.00     0.088 A 
HETATM    8  N   UNL     1      24.760  45.441  49.334  1.00  0.00    -0.357 N 
HETATM    9  C   UNL     1      25.535  46.424  50.071  1.00  0.00     0.243 C 
HETATM   10  N   UNL     1      25.031  47.751  49.817  1.00  0.00    -0.330 N 
HETATM   11  C   UNL     1      23.713  48.044  49.612  1.00  0.00     0.256 C 
HETATM   12  O   UNL     1      23.270  49.180  49.740  1.00  0.00    -0.267 OA
HETATM   13  S   UNL     1      22.355  44.501  48.551  1.00  0.00    -0.074 SA
HETATM   14  C   UNL     1      20.569  48.081  48.758  1.00  0.00     0.068 C 
HETATM   15  C   UNL     1      19.361  47.789  47.852  1.00  0.00     0.240 C 
HETATM   16  H   UNL     1      25.103  44.488  49.404  1.00  0.00     0.162 HD
HETATM   17  H   UNL     1      25.570  48.513  50.204  1.00  0.00     0.165 HD
ENDROOT
BRANCH   9  18
HETATM   18  C   UNL     1      25.617  46.222  51.551  1.00  0.00     0.095 A 
HETATM   19  O   UNL     1      26.470  47.055  52.222  1.00  0.00    -0.313 OA
HETATM   20  C   UNL     1      26.443  46.696  53.538  1.00  0.00     0.077 A 
HETATM   21  C   UNL     1      25.568  45.646  53.718  1.00  0.00     0.037 A 
HETATM   22  C   UNL     1      25.033  45.343  52.441  1.00  0.00     0.039 A 
BRANCH  20  23
HETATM   23  C   UNL     1      27.319  47.468  54.458  1.00  0.00     0.240 C 
BRANCH  23  24
HETATM   24  O   UNL     1      27.521  46.648  55.606  1.00  0.00    -0.345 OA
BRANCH  24  25
HETATM   25  C   UNL     1      28.538  45.735  55.549  1.00  0.00     0.070 A 
HETATM   26  C   UNL     1      28.714  44.758  54.566  1.00  0.00     0.052 A 
HETATM   27  C   UNL     1      29.806  43.871  54.624  1.00  0.00     0.050 A 
HETATM   28  C   UNL     1      30.722  43.983  55.682  1.00  0.00     0.016 A 
HETATM   29  C   UNL     1      30.550  44.958  56.661  1.00  0.00     0.004 A 
HETATM   30  C   UNL     1      29.463  45.829  56.591  1.00  0.00     0.037 A 
BRANCH  27  31
HETATM   31  C   UNL     1      30.005  42.812  53.568  1.00  0.00     0.417 C 
HETATM   32  F   UNL     1      31.230  42.217  53.625  1.00  0.00    -0.166 F 
HETATM   33  F   UNL     1      29.097  41.803  53.663  1.00  0.00    -0.166 F 
HETATM   34  F   UNL     1      29.890  43.307  52.305  1.00  0.00    -0.166 F 
ENDBRANCH  27  31
ENDBRANCH  24  25
ENDBRANCH  23  24
ENDBRANCH  20  23
ENDBRANCH   9  18
BRANCH   1  35
HETATM   35  C   UNL     1      17.432  46.229  47.469  1.00  0.00     0.231 C 
HETATM   36  C   UNL     1      16.490  47.388  47.735  1.00  0.00     0.034 C 
ENDBRANCH   1  35
TORSDOF 6
ENDMDL
MODEL 7
REMARK VINA RESULT:      -8.8      7.576     10.853
REMARK  6 active torsions:
REMARK  status: ('A' for Active; 'I' for Inactive)
REMARK    1  A    between atoms: C_2  and  N_3 
REMARK    2  A    between atoms: C_11  and  C_12 
REMARK    3  A    between atoms: C_14  and  C_15 
REMARK    4  A    between atoms: C_15  and  O_16 
REMARK    5  A    between atoms: O_16  and  C_17 
REMARK    6  A    between atoms: C_19  and  C_20 
ROOT
HETATM    1  N   UNL     1      28.820  37.950  44.309  1.00  0.00    -0.067 N 
HETATM    2  H   UNL     1      29.588  38.584  44.567  1.00  0.00     0.280 HD
HETATM    3  C   UNL     1      27.539  38.783  44.378  1.00  0.00     0.281 C 
HETATM    4  C   UNL     1      27.166  39.079  45.791  1.00  0.00     0.018 A 
HETATM    5  C   UNL     1      27.697  38.456  46.904  1.00  0.00    -0.023 A 
HETATM    6  C   UNL     1      27.084  38.932  48.107  1.00  0.00     0.073 A 
HETATM    7  C   UNL     1      26.115  39.872  47.849  1.00  0.00     0.088 A 
HETATM    8  N   UNL     1      25.360  40.438  48.812  1.00  0.00    -0.357 N 
HETATM    9  C   UNL     1      25.774  40.328  50.200  1.00  0.00     0.243 C 
HETATM   10  N   UNL     1      26.500  39.099  50.409  1.00  0.00    -0.330 N 
HETATM   11  C   UNL     1      27.323  38.528  49.481  1.00  0.00     0.256 C 
HETATM   12  O   UNL     1      28.175  37.700  49.787  1.00  0.00    -0.267 OA
HETATM   13  S   UNL     1      25.960  40.213  46.190  1.00  0.00    -0.074 SA
HETATM   14  C   UNL     1      28.764  37.413  46.780  1.00  0.00     0.068 C 
HETATM   15  C   UNL     1      28.812  36.831  45.357  1.00  0.00     0.240 C 
HETATM   16  H   UNL     1      24.778  41.243  48.603  1.00  0.00     0.162 HD
HETATM   17  H   UNL     1      26.740  38.882  51.367  1.00  0.00     0.165 HD
ENDROOT
BRANCH   9  18
HETATM   18  C   UNL     1      26.591  41.460  50.735  1.00  0.00     0.095 A 
HETATM   19  O   UNL     1      27.711  41.109  51.439  1.00  0.00    -0.313 OA
HETATM   20  C   UNL     1      28.296  42.260  51.878  1.00  0.00     0.077 A 
HETATM   21  C   UNL     1      27.567  43.349  51.449  1.00  0.00     0.037 A 
HETATM   22  C   UNL     1      26.473  42.836  50.710  1.00  0.00     0.039 A 
BRANCH  20  23
HETATM   23  C   UNL     1      29.534  42.112  52.689  1.00  0.00     0.240 C 
BRANCH  23  24
HETATM   24  O   UNL     1      29.132  42.185  54.055  1.00  0.00    -0.345 OA
BRANCH  24  25
HETATM   25  C   UNL     1      29.343  43.370  54.705  1.00  0.00     0.070 A 
HETATM   26  C   UNL     1      28.485  44.473  54.706  1.00  0.00     0.052 A 
HETATM   27  C   UNL     1      28.822  45.641  55.415  1.00  0.00     0.050 A 
HETATM   28  C   UNL     1      30.030  45.685  56.127  1.00  0.00     0.016 A 
HETATM   29  C   UNL     1      30.885  44.586  56.131  1.00  0.00     0.004 A 
HETATM   30  C   UNL     1      30.539  43.435  55.422  1.00  0.00     0.037 A 
BRANCH  27  31
HETATM   31  C   UNL     1      27.903  46.838  55.423  1.00  0.00     0.417 C 
HETATM   32  F   UNL     1      28.404  47.908  54.741  1.00  0.00    -0.166 F 
HETATM   33  F   UNL     1      26.693  46.572  54.861  1.00  0.00    -0.166 F 
HETATM   34  F   UNL     1      27.644  47.289  56.682  1.00  0.00    -0.166 F 
ENDBRANCH  27  31
ENDBRANCH  24  25
ENDBRANCH  23  24
ENDBRANCH  20  23
ENDBRANCH   9  18
BRANCH   1  35
HETATM   35  C   UNL     1      29.104  37.405  42.931  1.00  0.00     0.231 C 
HETATM   36  C   UNL     1      30.494  37.793  42.464  1.00  0.00     0.034 C 
ENDBRANCH   1  35
TORSDOF 6
ENDMDL
MODEL 8
REMARK VINA RESULT:      -8.8      5.329     11.064
REMARK  6 active torsions:
REMARK  status: ('A' for Active; 'I' for Inactive)
REMARK    1  A    between atoms: C_2  and  N_3 
REMARK    2  A    between atoms: C_11  and  C_12 
REMARK    3  A    between atoms: C_14  and  C_15 
REMARK    4  A    between atoms: C_15  and  O_16 
REMARK    5  A    between atoms: O_16  and  C_17 
REMARK    6  A    between atoms: C_19  and  C_20 
ROOT
HETATM    1  N   UNL     1      15.436  49.267  45.860  1.00  0.00    -0.067 N 
HETATM    2  H   UNL     1      16.130  48.815  45.251  1.00  0.00     0.280 HD
HETATM    3  C   UNL     1      15.970  50.671  46.147  1.00  0.00     0.281 C 
HETATM    4  C   UNL     1      17.136  50.624  47.074  1.00  0.00     0.018 A 
HETATM    5  C   UNL     1      17.515  49.528  47.825  1.00  0.00    -0.023 A 
HETATM    6  C   UNL     1      18.643  49.831  48.653  1.00  0.00     0.073 A 
HETATM    7  C   UNL     1      19.050  51.135  48.504  1.00  0.00     0.088 A 
HETATM    8  N   UNL     1      20.062  51.678  49.209  1.00  0.00    -0.357 N 
HETATM    9  C   UNL     1      20.988  50.808  49.914  1.00  0.00     0.243 C 
HETATM   10  N   UNL     1      20.322  49.597  50.325  1.00  0.00    -0.330 N 
HETATM   11  C   UNL     1      19.336  48.983  49.607  1.00  0.00     0.256 C 
HETATM   12  O   UNL     1      19.032  47.809  49.788  1.00  0.00    -0.267 OA
HETATM   13  S   UNL     1      18.121  51.983  47.360  1.00  0.00    -0.074 SA
HETATM   14  C   UNL     1      16.776  48.229  47.738  1.00  0.00     0.068 C 
HETATM   15  C   UNL     1      15.372  48.424  47.140  1.00  0.00     0.240 C 
HETATM   16  H   UNL     1      20.440  52.585  48.954  1.00  0.00     0.162 HD
HETATM   17  H   UNL     1      20.857  48.973  50.914  1.00  0.00     0.165 HD
ENDROOT
BRANCH   9  18
HETATM   18  C   UNL     1      22.234  50.437  49.175  1.00  0.00     0.095 A 
HETATM   19  O   UNL     1      23.039  49.515  49.786  1.00  0.00    -0.313 OA
HETATM   20  C   UNL     1      24.135  49.338  48.992  1.00  0.00     0.077 A 
HETATM   21  C   UNL     1      24.032  50.132  47.869  1.00  0.00     0.037 A 
HETATM   22  C   UNL     1      22.808  50.836  47.984  1.00  0.00     0.039 A 
BRANCH  20  23
HETATM   23  C   UNL     1      25.163  48.379  49.477  1.00  0.00     0.240 C 
BRANCH  23  24
HETATM   24  O   UNL     1      24.631  47.780  50.656  1.00  0.00    -0.345 OA
BRANCH  24  25
HETATM   25  C   UNL     1      25.406  46.846  51.286  1.00  0.00     0.070 A 
HETATM   26  C   UNL     1      25.862  46.907  52.605  1.00  0.00     0.052 A 
HETATM   27  C   UNL     1      26.661  45.877  53.135  1.00  0.00     0.050 A 
HETATM   28  C   UNL     1      26.991  44.780  52.324  1.00  0.00     0.016 A 
HETATM   29  C   UNL     1      26.534  44.715  51.010  1.00  0.00     0.004 A 
HETATM   30  C   UNL     1      25.744  45.744  50.497  1.00  0.00     0.037 A 
BRANCH  27  31
HETATM   31  C   UNL     1      27.160  45.933  54.558  1.00  0.00     0.417 C 
HETATM   32  F   UNL     1      26.592  46.935  55.290  1.00  0.00    -0.166 F 
HETATM   33  F   UNL     1      26.912  44.785  55.244  1.00  0.00    -0.166 F 
HETATM   34  F   UNL     1      28.504  46.135  54.632  1.00  0.00    -0.166 F 
ENDBRANCH  27  31
ENDBRANCH  24  25
ENDBRANCH  23  24
ENDBRANCH  20  23
ENDBRANCH   9  18
BRANCH   1  35
HETATM   35  C   UNL     1      14.109  49.267  45.141  1.00  0.00     0.231 C 
HETATM   36  C   UNL     1      14.208  48.548  43.809  1.00  0.00     0.034 C 
ENDBRANCH   1  35
TORSDOF 6
ENDMDL
MODEL 9
REMARK VINA RESULT:      -8.5      5.357     10.684
REMARK  6 active torsions:
REMARK  status: ('A' for Active; 'I' for Inactive)
REMARK    1  A    between atoms: C_2  and  N_3 
REMARK    2  A    between atoms: C_11  and  C_12 
REMARK    3  A    between atoms: C_14  and  C_15 
REMARK    4  A    between atoms: C_15  and  O_16 
REMARK    5  A    between atoms: O_16  and  C_17 
REMARK    6  A    between atoms: C_19  and  C_20 
ROOT
HETATM    1  N   UNL     1      18.774  46.403  47.595  1.00  0.00    -0.067 N 
HETATM    2  H   UNL     1      18.547  46.380  48.598  1.00  0.00     0.280 HD
HETATM    3  C   UNL     1      19.781  45.276  47.362  1.00  0.00     0.281 C 
HETATM    4  C   UNL     1      21.114  45.618  47.937  1.00  0.00     0.018 A 
HETATM    5  C   UNL     1      21.504  46.876  48.353  1.00  0.00    -0.023 A 
HETATM    6  C   UNL     1      22.864  46.875  48.803  1.00  0.00     0.073 A 
HETATM    7  C   UNL     1      23.438  45.631  48.690  1.00  0.00     0.088 A 
HETATM    8  N   UNL     1      24.724  45.381  49.004  1.00  0.00    -0.357 N 
HETATM    9  C   UNL     1      25.466  46.345  49.799  1.00  0.00     0.243 C 
HETATM   10  N   UNL     1      24.976  47.679  49.551  1.00  0.00    -0.330 N 
HETATM   11  C   UNL     1      23.669  47.980  49.292  1.00  0.00     0.256 C 
HETATM   12  O   UNL     1      23.223  49.114  49.424  1.00  0.00    -0.267 OA
HETATM   13  S   UNL     1      22.357  44.465  48.089  1.00  0.00    -0.074 SA
HETATM   14  C   UNL     1      20.568  48.044  48.293  1.00  0.00     0.068 C 
HETATM   15  C   UNL     1      19.403  47.775  47.326  1.00  0.00     0.240 C 
HETATM   16  H   UNL     1      25.063  44.426  49.069  1.00  0.00     0.162 HD
HETATM   17  H   UNL     1      25.498  48.431  49.980  1.00  0.00     0.165 HD
ENDROOT
BRANCH   9  18
HETATM   18  C   UNL     1      25.478  46.110  51.276  1.00  0.00     0.095 A 
HETATM   19  O   UNL     1      26.244  46.973  52.012  1.00  0.00    -0.313 OA
HETATM   20  C   UNL     1      26.165  46.578  53.316  1.00  0.00     0.077 A 
HETATM   21  C   UNL     1      25.345  45.476  53.423  1.00  0.00     0.037 A 
HETATM   22  C   UNL     1      24.899  45.176  52.112  1.00  0.00     0.039 A 
BRANCH  20  23
HETATM   23  C   UNL     1      26.944  47.375  54.301  1.00  0.00     0.240 C 
BRANCH  23  24
HETATM   24  O   UNL     1      26.978  46.609  55.503  1.00  0.00    -0.345 OA
BRANCH  24  25
HETATM   25  C   UNL     1      28.137  45.939  55.783  1.00  0.00     0.070 A 
HETATM   26  C   UNL     1      28.903  46.068  56.944  1.00  0.00     0.052 A 
HETATM   27  C   UNL     1      30.084  45.320  57.110  1.00  0.00     0.050 A 
HETATM   28  C   UNL     1      30.483  44.437  56.095  1.00  0.00     0.016 A 
HETATM   29  C   UNL     1      29.718  44.304  54.938  1.00  0.00     0.004 A 
HETATM   30  C   UNL     1      28.551  45.052  54.787  1.00  0.00     0.037 A 
BRANCH  27  31
HETATM   31  C   UNL     1      30.919  45.453  58.360  1.00  0.00     0.417 C 
HETATM   32  F   UNL     1      32.026  44.657  58.355  1.00  0.00    -0.166 F 
HETATM   33  F   UNL     1      31.372  46.721  58.553  1.00  0.00    -0.166 F 
HETATM   34  F   UNL     1      30.229  45.123  59.486  1.00  0.00    -0.166 F 
ENDBRANCH  27  31
ENDBRANCH  24  25
ENDBRANCH  23  24
ENDBRANCH  20  23
ENDBRANCH   9  18
BRANCH   1  35
HETATM   35  C   UNL     1      17.492  46.229  46.819  1.00  0.00     0.231 C 
HETATM   36  C   UNL     1      16.528  47.368  47.090  1.00  0.00     0.034 C 
ENDBRANCH   1  35
TORSDOF 6
ENDMDL
MODEL 10
REMARK VINA RESULT:      -8.4     12.976     16.541
REMARK  6 active torsions:
REMARK  status: ('A' for Active; 'I' for Inactive)
REMARK    1  A    between atoms: C_2  and  N_3 
REMARK    2  A    between atoms: C_11  and  C_12 
REMARK    3  A    between atoms: C_14  and  C_15 
REMARK    4  A    between atoms: C_15  and  O_16 
REMARK    5  A    between atoms: O_16  and  C_17 
REMARK    6  A    between atoms: C_19  and  C_20 
ROOT
HETATM    1  N   UNL     1      27.643  50.118  38.736  1.00  0.00    -0.067 N 
HETATM    2  H   UNL     1      28.379  49.713  38.142  1.00  0.00     0.280 HD
HETATM    3  C   UNL     1      28.133  51.511  39.132  1.00  0.00     0.281 C 
HETATM    4  C   UNL     1      29.245  51.428  40.122  1.00  0.00     0.018 A 
HETATM    5  C   UNL     1      29.601  50.296  40.830  1.00  0.00    -0.023 A 
HETATM    6  C   UNL     1      30.674  50.568  41.738  1.00  0.00     0.073 A 
HETATM    7  C   UNL     1      31.064  51.885  41.687  1.00  0.00     0.088 A 
HETATM    8  N   UNL     1      32.024  52.402  42.480  1.00  0.00    -0.357 N 
HETATM    9  C   UNL     1      32.924  51.507  43.186  1.00  0.00     0.243 C 
HETATM   10  N   UNL     1      32.258  50.264  43.488  1.00  0.00    -0.330 N 
HETATM   11  C   UNL     1      31.326  49.677  42.680  1.00  0.00     0.256 C 
HETATM   12  O   UNL     1      31.035  48.490  42.776  1.00  0.00    -0.267 OA
HETATM   13  S   UNL     1      30.186  52.784  40.541  1.00  0.00    -0.074 SA
HETATM   14  C   UNL     1      28.892  48.993  40.625  1.00  0.00     0.068 C 
HETATM   15  C   UNL     1      27.522  49.202  39.959  1.00  0.00     0.240 C 
HETATM   16  H   UNL     1      32.399  53.328  42.299  1.00  0.00     0.162 HD
HETATM   17  H   UNL     1      32.770  49.615  44.070  1.00  0.00     0.165 HD
ENDROOT
BRANCH   9  18
HETATM   18  C   UNL     1      34.217  51.199  42.501  1.00  0.00     0.095 A 
HETATM   19  O   UNL     1      35.237  52.084  42.723  1.00  0.00    -0.313 OA
HETATM   20  C   UNL     1      36.309  51.665  41.990  1.00  0.00     0.077 A 
HETATM   21  C   UNL     1      35.988  50.510  41.309  1.00  0.00     0.037 A 
HETATM   22  C   UNL     1      34.644  50.207  41.641  1.00  0.00     0.039 A 
BRANCH  20  23
HETATM   23  C   UNL     1      37.538  52.499  42.069  1.00  0.00     0.240 C 
BRANCH  23  24
HETATM   24  O   UNL     1      38.539  51.687  42.677  1.00  0.00    -0.345 OA
BRANCH  24  25
HETATM   25  C   UNL     1      38.933  52.024  43.942  1.00  0.00     0.070 A 
HETATM   26  C   UNL     1      38.389  53.041  44.731  1.00  0.00     0.052 A 
HETATM   27  C   UNL     1      38.890  53.291  46.022  1.00  0.00     0.050 A 
HETATM   28  C   UNL     1      39.943  52.503  46.513  1.00  0.00     0.016 A 
HETATM   29  C   UNL     1      40.484  51.486  45.730  1.00  0.00     0.004 A 
HETATM   30  C   UNL     1      39.978  51.250  44.452  1.00  0.00     0.037 A 
BRANCH  27  31
HETATM   31  C   UNL     1      38.311  54.388  46.882  1.00  0.00     0.417 C 
HETATM   32  F   UNL     1      37.904  53.953  48.109  1.00  0.00    -0.166 F 
HETATM   33  F   UNL     1      39.199  55.391  47.119  1.00  0.00    -0.166 F 
HETATM   34  F   UNL     1      37.220  54.974  46.316  1.00  0.00    -0.166 F 
ENDBRANCH  27  31
ENDBRANCH  24  25
ENDBRANCH  23  24
ENDBRANCH  20  23
ENDBRANCH   9  18
BRANCH   1  35
HETATM   35  C   UNL     1      26.359  50.139  37.942  1.00  0.00     0.231 C 
HETATM   36  C   UNL     1      25.873  48.733  37.648  1.00  0.00     0.034 C 
ENDBRANCH   1  35
TORSDOF 6
ENDMDL
