MODEL 1
REMARK VINA RESULT:      -9.2      0.000      0.000
REMARK  6 active torsions:
REMARK  status: ('A' for Active; 'I' for Inactive)
REMARK    1  A    between atoms: C_2  and  C_3 
REMARK       I    between atoms: C_3  and  N_4 
REMARK    2  A    between atoms: N_4  and  C_5 
REMARK    3  A    between atoms: C_8  and  N_9 
REMARK       I    between atoms: N_9  and  C_10 
REMARK    4  A    between atoms: C_10  and  C_11 
REMARK    5  A    between atoms: C_16  and  C_17 
REMARK    6  A    between atoms: C_23  and  C_24 
ROOT
HETATM    1  C   UNL     1      24.449  47.877  49.629  1.00  0.00     0.148 A 
HETATM    2  N   UNL     1      23.362  47.081  49.514  1.00  0.00    -0.165 NA
HETATM    3  N   UNL     1      22.518  47.799  48.747  1.00  0.00    -0.240 N 
HETATM    4  C   UNL     1      23.013  49.026  48.391  1.00  0.00     0.123 A 
HETATM    5  N   UNL     1      22.295  49.891  47.642  1.00  0.00    -0.364 N 
HETATM    6  C   UNL     1      20.854  49.698  47.460  1.00  0.00     0.143 C 
HETATM    7  C   UNL     1      20.559  48.197  47.316  1.00  0.00     0.068 C 
HETATM    8  C   UNL     1      21.153  47.377  48.480  1.00  0.00     0.221 C 
HETATM    9  C   UNL     1      24.264  49.106  48.941  1.00  0.00     0.089 A 
HETATM   10  H   UNL     1      22.601  50.861  47.558  1.00  0.00     0.162 HD
ENDROOT
BRANCH   1  11
HETATM   11  C   UNL     1      25.647  47.474  50.387  1.00  0.00     0.276 C 
HETATM   12  N   UNL     1      25.336  47.008  51.651  1.00  0.00    -0.322 N 
HETATM   13  H   UNL     1      24.336  46.984  51.840  1.00  0.00     0.169 HD
HETATM   14  O   UNL     1      26.766  47.541  49.886  1.00  0.00    -0.266 OA
BRANCH  12  15
HETATM   15  C   UNL     1      26.216  46.541  52.641  1.00  0.00     0.035 A 
HETATM   16  C   UNL     1      26.676  45.227  52.712  1.00  0.00     0.032 A 
HETATM   17  C   UNL     1      27.562  44.829  53.726  1.00  0.00     0.032 A 
HETATM   18  C   UNL     1      27.999  45.738  54.687  1.00  0.00     0.034 A 
HETATM   19  C   UNL     1      27.535  47.058  54.617  1.00  0.00     0.032 A 
HETATM   20  C   UNL     1      26.656  47.456  53.601  1.00  0.00     0.032 A 
BRANCH  18  21
HETATM   21  N   UNL     1      28.894  45.420  55.730  1.00  0.00    -0.327 N 
HETATM   22  C   UNL     1      29.932  44.506  55.698  1.00  0.00     0.221 C 
HETATM   23  O   UNL     1      30.256  43.803  54.746  1.00  0.00    -0.273 OA
HETATM   24  H   UNL     1      28.750  45.919  56.597  1.00  0.00     0.169 HD
BRANCH  22  25
HETATM   25  C   UNL     1      30.738  44.461  56.986  1.00  0.00     0.098 C 
HETATM   26  C   UNL     1      31.718  43.303  57.051  1.00  0.00     0.014 C 
ENDBRANCH  22  25
ENDBRANCH  18  21
ENDBRANCH  12  15
ENDBRANCH   1  11
BRANCH   8  27
HETATM   27  C   UNL     1      21.062  45.901  48.161  1.00  0.00     0.409 C 
HETATM   28  F   UNL     1      21.120  45.128  49.268  1.00  0.00    -0.169 F 
HETATM   29  F   UNL     1      19.949  45.570  47.473  1.00  0.00    -0.169 F 
HETATM   30  F   UNL     1      22.112  45.535  47.377  1.00  0.00    -0.169 F 
ENDBRANCH   8  27
BRANCH   6  31
HETATM   31  C   UNL     1      19.998  50.336  48.509  1.00  0.00     0.075 A 
HETATM   32  O   UNL     1      18.804  49.725  48.767  1.00  0.00    -0.325 OA
HETATM   33  C   UNL     1      18.173  50.464  49.715  1.00  0.00     0.142 A 
HETATM   34  C   UNL     1      18.948  51.539  50.081  1.00  0.00     0.027 A 
HETATM   35  C   UNL     1      20.129  51.458  49.305  1.00  0.00     0.037 A 
ENDBRANCH   6  31
TORSDOF 6
ENDMDL
MODEL 2
REMARK VINA RESULT:      -9.1      3.492     10.169
REMARK  6 active torsions:
REMARK  status: ('A' for Active; 'I' for Inactive)
REMARK    1  A    between atoms: C_2  and  C_3 
REMARK       I    between atoms: C_3  and  N_4 
REMARK    2  A    between atoms: N_4  and  C_5 
REMARK    3  A    between atoms: C_8  and  N_9 
REMARK       I    between atoms: N_9  and  C_10 
REMARK    4  A    between atoms: C_10  and  C_11 
REMARK    5  A    between atoms: C_16  and  C_17 
REMARK    6  A    between atoms: C_23  and  C_24 
ROOT
HETATM    1  C   UNL     1      23.037  47.135  49.012  1.00  0.00     0.148 A 
HETATM    2  N   UNL     1      24.220  47.723  49.302  1.00  0.00    -0.165 NA
HETATM    3  N   UNL     1      25.048  46.683  49.526  1.00  0.00    -0.240 N 
HETATM    4  C   UNL     1      24.435  45.462  49.415  1.00  0.00     0.123 A 
HETATM    5  N   UNL     1      25.106  44.309  49.629  1.00  0.00    -0.364 N 
HETATM    6  C   UNL     1      26.408  44.321  50.302  1.00  0.00     0.143 C 
HETATM    7  C   UNL     1      27.206  45.548  49.838  1.00  0.00     0.068 C 
HETATM    8  C   UNL     1      26.407  46.856  50.010  1.00  0.00     0.221 C 
HETATM    9  C   UNL     1      23.133  45.719  49.077  1.00  0.00     0.089 A 
HETATM   10  H   UNL     1      24.589  43.436  49.733  1.00  0.00     0.162 HD
ENDROOT
BRANCH   1  11
HETATM   11  C   UNL     1      21.829  47.912  48.680  1.00  0.00     0.276 C 
HETATM   12  N   UNL     1      21.623  48.961  49.557  1.00  0.00    -0.322 N 
HETATM   13  H   UNL     1      22.352  49.050  50.262  1.00  0.00     0.169 HD
HETATM   14  O   UNL     1      21.140  47.627  47.705  1.00  0.00    -0.266 OA
BRANCH  12  15
HETATM   15  C   UNL     1      20.583  49.905  49.547  1.00  0.00     0.035 A 
HETATM   16  C   UNL     1      20.649  51.126  48.878  1.00  0.00     0.032 A 
HETATM   17  C   UNL     1      19.568  52.020  48.904  1.00  0.00     0.032 A 
HETATM   18  C   UNL     1      18.403  51.709  49.602  1.00  0.00     0.034 A 
HETATM   19  C   UNL     1      18.337  50.483  50.277  1.00  0.00     0.032 A 
HETATM   20  C   UNL     1      19.415  49.588  50.245  1.00  0.00     0.032 A 
BRANCH  18  21
HETATM   21  N   UNL     1      17.271  52.548  49.668  1.00  0.00    -0.327 N 
HETATM   22  C   UNL     1      16.002  52.288  49.182  1.00  0.00     0.221 C 
HETATM   23  O   UNL     1      15.637  51.272  48.601  1.00  0.00    -0.273 OA
HETATM   24  H   UNL     1      17.414  53.440  50.120  1.00  0.00     0.169 HD
BRANCH  22  25
HETATM   25  C   UNL     1      15.001  53.394  49.482  1.00  0.00     0.098 C 
HETATM   26  C   UNL     1      14.094  53.090  50.662  1.00  0.00     0.014 C 
ENDBRANCH  22  25
ENDBRANCH  18  21
ENDBRANCH  12  15
ENDBRANCH   1  11
BRANCH   8  27
HETATM   27  C   UNL     1      27.125  47.987  49.307  1.00  0.00     0.409 C 
HETATM   28  F   UNL     1      28.239  47.573  48.664  1.00  0.00    -0.169 F 
HETATM   29  F   UNL     1      26.348  48.646  48.421  1.00  0.00    -0.169 F 
HETATM   30  F   UNL     1      27.526  48.914  50.218  1.00  0.00    -0.169 F 
ENDBRANCH   8  27
BRANCH   6  31
HETATM   31  C   UNL     1      26.342  44.229  51.794  1.00  0.00     0.075 A 
HETATM   32  O   UNL     1      25.126  44.482  52.361  1.00  0.00    -0.325 OA
HETATM   33  C   UNL     1      25.281  44.377  53.705  1.00  0.00     0.142 A 
HETATM   34  C   UNL     1      26.580  44.051  54.015  1.00  0.00     0.027 A 
HETATM   35  C   UNL     1      27.268  43.953  52.782  1.00  0.00     0.037 A 
ENDBRANCH   6  31
TORSDOF 6
ENDMDL
MODEL 3
REMARK VINA RESULT:      -9.1      1.856      2.381
REMARK  6 active torsions:
REMARK  status: ('A' for Active; 'I' for Inactive)
REMARK    1  A    between atoms: C_2  and  C_3 
REMARK       I    between atoms: C_3  and  N_4 
REMARK    2  A    between atoms: N_4  and  C_5 
REMARK    3  A    between atoms: C_8  and  N_9 
REMARK       I    between atoms: N_9  and  C_10 
REMARK    4  A    between atoms: C_10  and  C_11 
REMARK    5  A    between atoms: C_16  and  C_17 
REMARK    6  A    between atoms: C_23  and  C_24 
ROOT
HETATM    1  C   UNL     1      22.929  48.391  48.943  1.00  0.00     0.148 A 
HETATM    2  N   UNL     1      21.785  47.670  48.954  1.00  0.00    -0.165 NA
HETATM    3  N   UNL     1      20.921  48.428  48.250  1.00  0.00    -0.240 N 
HETATM    4  C   UNL     1      21.461  49.610  47.813  1.00  0.00     0.123 A 
HETATM    5  N   UNL     1      20.734  50.506  47.111  1.00  0.00    -0.364 N 
HETATM    6  C   UNL     1      19.272  50.409  47.071  1.00  0.00     0.143 C 
HETATM    7  C   UNL     1      18.865  48.930  46.999  1.00  0.00     0.068 C 
HETATM    8  C   UNL     1      19.511  48.097  48.124  1.00  0.00     0.221 C 
HETATM    9  C   UNL     1      22.762  49.615  48.241  1.00  0.00     0.089 A 
HETATM   10  H   UNL     1      21.095  51.450  46.970  1.00  0.00     0.162 HD
ENDROOT
BRANCH   1  11
HETATM   11  C   UNL     1      24.164  47.923  49.596  1.00  0.00     0.276 C 
HETATM   12  N   UNL     1      24.102  46.584  49.937  1.00  0.00    -0.322 N 
HETATM   13  H   UNL     1      23.235  46.133  49.652  1.00  0.00     0.169 HD
HETATM   14  O   UNL     1      25.118  48.677  49.762  1.00  0.00    -0.266 OA
BRANCH  12  15
HETATM   15  C   UNL     1      25.087  45.805  50.566  1.00  0.00     0.035 A 
HETATM   16  C   UNL     1      26.257  45.380  49.939  1.00  0.00     0.032 A 
HETATM   17  C   UNL     1      27.204  44.609  50.631  1.00  0.00     0.032 A 
HETATM   18  C   UNL     1      26.994  44.247  51.959  1.00  0.00     0.034 A 
HETATM   19  C   UNL     1      25.817  44.672  52.589  1.00  0.00     0.032 A 
HETATM   20  C   UNL     1      24.876  45.447  51.900  1.00  0.00     0.032 A 
BRANCH  18  21
HETATM   21  N   UNL     1      27.900  43.484  52.726  1.00  0.00    -0.327 N 
HETATM   22  C   UNL     1      28.665  43.911  53.796  1.00  0.00     0.221 C 
HETATM   23  O   UNL     1      28.690  45.042  54.270  1.00  0.00    -0.273 OA
HETATM   24  H   UNL     1      27.999  42.516  52.450  1.00  0.00     0.169 HD
BRANCH  22  25
HETATM   25  C   UNL     1      29.491  42.802  54.430  1.00  0.00     0.098 C 
HETATM   26  C   UNL     1      30.607  43.309  55.325  1.00  0.00     0.014 C 
ENDBRANCH  22  25
ENDBRANCH  18  21
ENDBRANCH  12  15
ENDBRANCH   1  11
BRANCH   8  27
HETATM   27  C   UNL     1      19.292  46.624  47.858  1.00  0.00     0.409 C 
HETATM   28  F   UNL     1      20.092  46.150  46.876  1.00  0.00    -0.169 F 
HETATM   29  F   UNL     1      19.464  45.850  48.951  1.00  0.00    -0.169 F 
HETATM   30  F   UNL     1      18.011  46.416  47.448  1.00  0.00    -0.169 F 
ENDBRANCH   8  27
BRANCH   6  31
HETATM   31  C   UNL     1      18.566  51.128  48.177  1.00  0.00     0.075 A 
HETATM   32  O   UNL     1      17.265  50.775  48.392  1.00  0.00    -0.325 OA
HETATM   33  C   UNL     1      16.801  51.551  49.405  1.00  0.00     0.142 A 
HETATM   34  C   UNL     1      17.788  52.395  49.854  1.00  0.00     0.027 A 
HETATM   35  C   UNL     1      18.930  52.124  49.064  1.00  0.00     0.037 A 
ENDBRANCH   6  31
TORSDOF 6
ENDMDL
MODEL 4
REMARK VINA RESULT:      -9.1      1.731      2.202
REMARK  6 active torsions:
REMARK  status: ('A' for Active; 'I' for Inactive)
REMARK    1  A    between atoms: C_2  and  C_3 
REMARK       I    between atoms: C_3  and  N_4 
REMARK    2  A    between atoms: N_4  and  C_5 
REMARK    3  A    between atoms: C_8  and  N_9 
REMARK       I    between atoms: N_9  and  C_10 
REMARK    4  A    between atoms: C_10  and  C_11 
REMARK    5  A    between atoms: C_16  and  C_17 
REMARK    6  A    between atoms: C_23  and  C_24 
ROOT
HETATM    1  C   UNL     1      24.617  47.286  50.032  1.00  0.00     0.148 A 
HETATM    2  N   UNL     1      23.936  46.140  49.806  1.00  0.00    -0.165 NA
HETATM    3  N   UNL     1      22.956  46.510  48.958  1.00  0.00    -0.240 N 
HETATM    4  C   UNL     1      22.971  47.847  48.656  1.00  0.00     0.123 A 
HETATM    5  N   UNL     1      22.047  48.401  47.840  1.00  0.00    -0.364 N 
HETATM    6  C   UNL     1      20.815  47.677  47.513  1.00  0.00     0.143 C 
HETATM    7  C   UNL     1      21.137  46.186  47.337  1.00  0.00     0.068 C 
HETATM    8  C   UNL     1      21.890  45.609  48.553  1.00  0.00     0.221 C 
HETATM    9  C   UNL     1      24.037  48.378  49.330  1.00  0.00     0.089 A 
HETATM   10  H   UNL     1      21.962  49.416  47.789  1.00  0.00     0.162 HD
ENDROOT
BRANCH   1  11
HETATM   11  C   UNL     1      25.802  47.343  50.905  1.00  0.00     0.276 C 
HETATM   12  N   UNL     1      25.637  46.601  52.061  1.00  0.00    -0.322 N 
HETATM   13  H   UNL     1      24.746  46.111  52.105  1.00  0.00     0.169 HD
HETATM   14  O   UNL     1      26.803  47.971  50.576  1.00  0.00    -0.266 OA
BRANCH  12  15
HETATM   15  C   UNL     1      26.551  46.425  53.113  1.00  0.00     0.035 A 
HETATM   16  C   UNL     1      26.939  47.443  53.983  1.00  0.00     0.032 A 
HETATM   17  C   UNL     1      27.851  47.194  55.019  1.00  0.00     0.032 A 
HETATM   18  C   UNL     1      28.393  45.923  55.201  1.00  0.00     0.034 A 
HETATM   19  C   UNL     1      28.005  44.900  54.327  1.00  0.00     0.032 A 
HETATM   20  C   UNL     1      27.089  45.148  53.296  1.00  0.00     0.032 A 
BRANCH  18  21
HETATM   21  N   UNL     1      29.307  45.590  56.224  1.00  0.00    -0.327 N 
HETATM   22  C   UNL     1      29.221  45.911  57.566  1.00  0.00     0.221 C 
HETATM   23  O   UNL     1      28.325  46.551  58.108  1.00  0.00    -0.273 OA
HETATM   24  H   UNL     1      30.116  45.060  55.931  1.00  0.00     0.169 HD
BRANCH  22  25
HETATM   25  C   UNL     1      30.356  45.336  58.400  1.00  0.00     0.098 C 
HETATM   26  C   UNL     1      31.206  44.322  57.655  1.00  0.00     0.014 C 
ENDBRANCH  22  25
ENDBRANCH  18  21
ENDBRANCH  12  15
ENDBRANCH   1  11
BRANCH   8  27
HETATM   27  C   UNL     1      22.405  44.226  48.224  1.00  0.00     0.409 C 
HETATM   28  F   UNL     1      21.590  43.556  47.379  1.00  0.00    -0.169 F 
HETATM   29  F   UNL     1      23.648  44.229  47.695  1.00  0.00    -0.169 F 
HETATM   30  F   UNL     1      22.482  43.481  49.359  1.00  0.00    -0.169 F 
ENDBRANCH   8  27
BRANCH   6  31
HETATM   31  C   UNL     1      19.687  47.895  48.471  1.00  0.00     0.075 A 
HETATM   32  O   UNL     1      18.496  47.313  48.143  1.00  0.00    -0.325 OA
HETATM   33  C   UNL     1      17.606  47.649  49.111  1.00  0.00     0.142 A 
HETATM   34  C   UNL     1      18.208  48.432  50.067  1.00  0.00     0.027 A 
HETATM   35  C   UNL     1      19.553  48.592  49.657  1.00  0.00     0.037 A 
ENDBRANCH   6  31
TORSDOF 6
ENDMDL
MODEL 5
REMARK VINA RESULT:      -8.9      2.598      4.050
REMARK  6 active torsions:
REMARK  status: ('A' for Active; 'I' for Inactive)
REMARK    1  A    between atoms: C_2  and  C_3 
REMARK       I    between atoms: C_3  and  N_4 
REMARK    2  A    between atoms: N_4  and  C_5 
REMARK    3  A    between atoms: C_8  and  N_9 
REMARK       I    between atoms: N_9  and  C_10 
REMARK    4  A    between atoms: C_10  and  C_11 
REMARK    5  A    between atoms: C_16  and  C_17 
REMARK    6  A    between atoms: C_23  and  C_24 
ROOT
HETATM    1  C   UNL     1      24.515  46.900  50.076  1.00  0.00     0.148 A 
HETATM    2  N   UNL     1      23.943  47.890  49.355  1.00  0.00    -0.165 NA
HETATM    3  N   UNL     1      22.939  47.272  48.702  1.00  0.00    -0.240 N 
HETATM    4  C   UNL     1      22.865  45.928  48.960  1.00  0.00     0.123 A 
HETATM    5  N   UNL     1      21.933  45.143  48.375  1.00  0.00    -0.364 N 
HETATM    6  C   UNL     1      21.187  45.620  47.207  1.00  0.00     0.143 C 
HETATM    7  C   UNL     1      20.870  47.112  47.385  1.00  0.00     0.068 C 
HETATM    8  C   UNL     1      22.134  47.940  47.693  1.00  0.00     0.221 C 
HETATM    9  C   UNL     1      23.868  45.655  49.851  1.00  0.00     0.089 A 
HETATM   10  H   UNL     1      22.022  44.128  48.429  1.00  0.00     0.162 HD
ENDROOT
BRANCH   1  11
HETATM   11  C   UNL     1      25.665  47.134  50.968  1.00  0.00     0.276 C 
HETATM   12  N   UNL     1      25.671  46.276  52.052  1.00  0.00    -0.322 N 
HETATM   13  H   UNL     1      24.908  45.603  52.041  1.00  0.00     0.169 HD
HETATM   14  O   UNL     1      26.505  47.991  50.707  1.00  0.00    -0.266 OA
BRANCH  12  15
HETATM   15  C   UNL     1      26.608  46.209  53.097  1.00  0.00     0.035 A 
HETATM   16  C   UNL     1      26.876  47.265  53.967  1.00  0.00     0.032 A 
HETATM   17  C   UNL     1      27.820  47.126  54.996  1.00  0.00     0.032 A 
HETATM   18  C   UNL     1      28.514  45.930  55.169  1.00  0.00     0.034 A 
HETATM   19  C   UNL     1      28.246  44.870  54.294  1.00  0.00     0.032 A 
HETATM   20  C   UNL     1      27.299  45.007  53.271  1.00  0.00     0.032 A 
BRANCH  18  21
HETATM   21  N   UNL     1      29.469  45.708  56.184  1.00  0.00    -0.327 N 
HETATM   22  C   UNL     1      29.330  45.950  57.538  1.00  0.00     0.221 C 
HETATM   23  O   UNL     1      28.339  46.407  58.100  1.00  0.00    -0.273 OA
HETATM   24  H   UNL     1      30.356  45.334  55.875  1.00  0.00     0.169 HD
BRANCH  22  25
HETATM   25  C   UNL     1      30.543  45.535  58.356  1.00  0.00     0.098 C 
HETATM   26  C   UNL     1      31.259  44.314  57.806  1.00  0.00     0.014 C 
ENDBRANCH  22  25
ENDBRANCH  18  21
ENDBRANCH  12  15
ENDBRANCH   1  11
BRANCH   8  27
HETATM   27  C   UNL     1      21.737  49.338  48.111  1.00  0.00     0.409 C 
HETATM   28  F   UNL     1      22.717  50.242  47.891  1.00  0.00    -0.169 F 
HETATM   29  F   UNL     1      20.614  49.780  47.506  1.00  0.00    -0.169 F 
HETATM   30  F   UNL     1      21.479  49.363  49.446  1.00  0.00    -0.169 F 
ENDBRANCH   8  27
BRANCH   6  31
HETATM   31  C   UNL     1      21.841  45.342  45.890  1.00  0.00     0.075 A 
HETATM   32  O   UNL     1      21.334  46.011  44.812  1.00  0.00    -0.325 OA
HETATM   33  C   UNL     1      22.035  45.604  43.723  1.00  0.00     0.142 A 
HETATM   34  C   UNL     1      22.995  44.688  44.083  1.00  0.00     0.027 A 
HETATM   35  C   UNL     1      22.872  44.517  45.483  1.00  0.00     0.037 A 
ENDBRANCH   6  31
TORSDOF 6
ENDMDL
MODEL 6
REMARK VINA RESULT:      -8.8      3.208      4.299
REMARK  6 active torsions:
REMARK  status: ('A' for Active; 'I' for Inactive)
REMARK    1  A    between atoms: C_2  and  C_3 
REMARK       I    between atoms: C_3  and  N_4 
REMARK    2  A    between atoms: N_4  and  C_5 
REMARK    3  A    between atoms: C_8  and  N_9 
REMARK       I    between atoms: N_9  and  C_10 
REMARK    4  A    between atoms: C_10  and  C_11 
REMARK    5  A    between atoms: C_16  and  C_17 
REMARK    6  A    between atoms: C_23  and  C_24 
ROOT
HETATM    1  C   UNL     1      22.248  48.165  48.985  1.00  0.00     0.148 A 
HETATM    2  N   UNL     1      21.859  49.428  48.700  1.00  0.00    -0.165 NA
HETATM    3  N   UNL     1      20.572  49.290  48.326  1.00  0.00    -0.240 N 
HETATM    4  C   UNL     1      20.134  47.991  48.339  1.00  0.00     0.123 A 
HETATM    5  N   UNL     1      18.876  47.662  47.971  1.00  0.00    -0.364 N 
HETATM    6  C   UNL     1      18.042  48.619  47.238  1.00  0.00     0.143 C 
HETATM    7  C   UNL     1      18.290  50.031  47.788  1.00  0.00     0.068 C 
HETATM    8  C   UNL     1      19.789  50.394  47.795  1.00  0.00     0.221 C 
HETATM    9  C   UNL     1      21.194  47.237  48.766  1.00  0.00     0.089 A 
HETATM   10  H   UNL     1      18.640  46.684  47.802  1.00  0.00     0.162 HD
ENDROOT
BRANCH   1  11
HETATM   11  C   UNL     1      23.607  47.843  49.457  1.00  0.00     0.276 C 
HETATM   12  N   UNL     1      23.737  46.513  49.812  1.00  0.00    -0.322 N 
HETATM   13  H   UNL     1      22.892  45.967  49.657  1.00  0.00     0.169 HD
HETATM   14  O   UNL     1      24.488  48.697  49.482  1.00  0.00    -0.266 OA
BRANCH  12  15
HETATM   15  C   UNL     1      24.879  45.855  50.299  1.00  0.00     0.035 A 
HETATM   16  C   UNL     1      25.838  45.259  49.482  1.00  0.00     0.032 A 
HETATM   17  C   UNL     1      26.960  44.625  50.036  1.00  0.00     0.032 A 
HETATM   18  C   UNL     1      27.140  44.574  51.417  1.00  0.00     0.034 A 
HETATM   19  C   UNL     1      26.175  45.171  52.238  1.00  0.00     0.032 A 
HETATM   20  C   UNL     1      25.059  45.810  51.684  1.00  0.00     0.032 A 
BRANCH  18  21
HETATM   21  N   UNL     1      28.244  43.965  52.050  1.00  0.00    -0.327 N 
HETATM   22  C   UNL     1      28.346  42.657  52.490  1.00  0.00     0.221 C 
HETATM   23  O   UNL     1      27.483  41.789  52.405  1.00  0.00    -0.273 OA
HETATM   24  H   UNL     1      29.046  44.562  52.200  1.00  0.00     0.169 HD
BRANCH  22  25
HETATM   25  C   UNL     1      29.709  42.320  53.075  1.00  0.00     0.098 C 
HETATM   26  C   UNL     1      30.029  43.078  54.351  1.00  0.00     0.014 C 
ENDBRANCH  22  25
ENDBRANCH  18  21
ENDBRANCH  12  15
ENDBRANCH   1  11
BRANCH   8  27
HETATM   27  C   UNL     1      20.000  51.672  48.576  1.00  0.00     0.409 C 
HETATM   28  F   UNL     1      19.215  52.682  48.139  1.00  0.00    -0.169 F 
HETATM   29  F   UNL     1      19.799  51.528  49.903  1.00  0.00    -0.169 F 
HETATM   30  F   UNL     1      21.286  52.091  48.434  1.00  0.00    -0.169 F 
ENDBRANCH   8  27
BRANCH   6  31
HETATM   31  C   UNL     1      18.188  48.566  45.750  1.00  0.00     0.075 A 
HETATM   32  O   UNL     1      17.645  49.608  45.054  1.00  0.00    -0.325 OA
HETATM   33  C   UNL     1      17.856  49.362  43.736  1.00  0.00     0.142 A 
HETATM   34  C   UNL     1      18.537  48.179  43.570  1.00  0.00     0.027 A 
HETATM   35  C   UNL     1      18.754  47.663  44.870  1.00  0.00     0.037 A 
ENDBRANCH   6  31
TORSDOF 6
ENDMDL
MODEL 7
REMARK VINA RESULT:      -8.2     13.759     14.814
REMARK  6 active torsions:
REMARK  status: ('A' for Active; 'I' for Inactive)
REMARK    1  A    between atoms: C_2  and  C_3 
REMARK       I    between atoms: C_3  and  N_4 
REMARK    2  A    between atoms: N_4  and  C_5 
REMARK    3  A    between atoms: C_8  and  N_9 
REMARK       I    between atoms: N_9  and  C_10 
REMARK    4  A    between atoms: C_10  and  C_11 
REMARK    5  A    between atoms: C_16  and  C_17 
REMARK    6  A    between atoms: C_23  and  C_24 
ROOT
HETATM    1  C   UNL     1      34.940  51.703  40.810  1.00  0.00     0.148 A 
HETATM    2  N   UNL     1      33.995  51.052  41.526  1.00  0.00    -0.165 NA
HETATM    3  N   UNL     1      33.077  50.702  40.603  1.00  0.00    -0.240 N 
HETATM    4  C   UNL     1      33.387  51.124  39.336  1.00  0.00     0.123 A 
HETATM    5  N   UNL     1      32.570  50.884  38.287  1.00  0.00    -0.364 N 
HETATM    6  C   UNL     1      31.184  50.461  38.508  1.00  0.00     0.143 C 
HETATM    7  C   UNL     1      31.133  49.498  39.702  1.00  0.00     0.068 C 
HETATM    8  C   UNL     1      31.805  50.094  40.956  1.00  0.00     0.221 C 
HETATM    9  C   UNL     1      34.590  51.771  39.434  1.00  0.00     0.089 A 
HETATM   10  H   UNL     1      32.723  51.372  37.405  1.00  0.00     0.162 HD
ENDROOT
BRANCH   1  11
HETATM   11  C   UNL     1      36.159  52.255  41.427  1.00  0.00     0.276 C 
HETATM   12  N   UNL     1      36.080  52.284  42.807  1.00  0.00    -0.322 N 
HETATM   13  H   UNL     1      35.216  51.889  43.173  1.00  0.00     0.169 HD
HETATM   14  O   UNL     1      37.113  52.606  40.741  1.00  0.00    -0.266 OA
BRANCH  12  15
HETATM   15  C   UNL     1      37.047  52.739  43.720  1.00  0.00     0.035 A 
HETATM   16  C   UNL     1      37.054  54.020  44.267  1.00  0.00     0.032 A 
HETATM   17  C   UNL     1      38.047  54.406  45.181  1.00  0.00     0.032 A 
HETATM   18  C   UNL     1      39.051  53.517  45.559  1.00  0.00     0.034 A 
HETATM   19  C   UNL     1      39.045  52.230  45.007  1.00  0.00     0.032 A 
HETATM   20  C   UNL     1      38.050  51.843  44.100  1.00  0.00     0.032 A 
BRANCH  18  21
HETATM   21  N   UNL     1      40.077  53.825  46.477  1.00  0.00    -0.327 N 
HETATM   22  C   UNL     1      39.989  53.857  47.857  1.00  0.00     0.221 C 
HETATM   23  O   UNL     1      38.991  53.624  48.530  1.00  0.00    -0.273 OA
HETATM   24  H   UNL     1      40.974  54.050  46.070  1.00  0.00     0.169 HD
BRANCH  22  25
HETATM   25  C   UNL     1      41.312  54.168  48.540  1.00  0.00     0.098 C 
HETATM   26  C   UNL     1      42.123  55.243  47.839  1.00  0.00     0.014 C 
ENDBRANCH  22  25
ENDBRANCH  18  21
ENDBRANCH  12  15
ENDBRANCH   1  11
BRANCH   8  27
HETATM   27  C   UNL     1      31.957  49.021  42.011  1.00  0.00     0.409 C 
HETATM   28  F   UNL     1      32.990  48.186  41.756  1.00  0.00    -0.169 F 
HETATM   29  F   UNL     1      32.113  49.515  43.258  1.00  0.00    -0.169 F 
HETATM   30  F   UNL     1      30.837  48.251  42.049  1.00  0.00    -0.169 F 
ENDBRANCH   8  27
BRANCH   6  31
HETATM   31  C   UNL     1      30.202  51.582  38.652  1.00  0.00     0.075 A 
HETATM   32  O   UNL     1      29.611  52.018  37.501  1.00  0.00    -0.325 OA
HETATM   33  C   UNL     1      28.788  53.043  37.837  1.00  0.00     0.142 A 
HETATM   34  C   UNL     1      28.830  53.269  39.193  1.00  0.00     0.027 A 
HETATM   35  C   UNL     1      29.743  52.326  39.722  1.00  0.00     0.037 A 
ENDBRANCH   6  31
TORSDOF 6
ENDMDL
MODEL 8
REMARK VINA RESULT:      -8.2     11.272     12.260
REMARK  6 active torsions:
REMARK  status: ('A' for Active; 'I' for Inactive)
REMARK    1  A    between atoms: C_2  and  C_3 
REMARK       I    between atoms: C_3  and  N_4 
REMARK    2  A    between atoms: N_4  and  C_5 
REMARK    3  A    between atoms: C_8  and  N_9 
REMARK       I    between atoms: N_9  and  C_10 
REMARK    4  A    between atoms: C_10  and  C_11 
REMARK    5  A    between atoms: C_16  and  C_17 
REMARK    6  A    between atoms: C_23  and  C_24 
ROOT
HETATM    1  C   UNL     1      28.544  50.869  40.189  1.00  0.00     0.148 A 
HETATM    2  N   UNL     1      28.155  49.608  40.484  1.00  0.00    -0.165 NA
HETATM    3  N   UNL     1      27.167  49.361  39.601  1.00  0.00    -0.240 N 
HETATM    4  C   UNL     1      26.896  50.421  38.775  1.00  0.00     0.123 A 
HETATM    5  N   UNL     1      25.920  50.362  37.842  1.00  0.00    -0.364 N 
HETATM    6  C   UNL     1      24.905  49.305  37.894  1.00  0.00     0.143 C 
HETATM    7  C   UNL     1      25.566  47.991  38.335  1.00  0.00     0.068 C 
HETATM    8  C   UNL     1      26.359  48.154  39.648  1.00  0.00     0.221 C 
HETATM    9  C   UNL     1      27.773  51.411  39.126  1.00  0.00     0.089 A 
HETATM   10  H   UNL     1      25.610  51.217  37.382  1.00  0.00     0.162 HD
ENDROOT
BRANCH   1  11
HETATM   11  C   UNL     1      29.632  51.550  40.912  1.00  0.00     0.276 C 
HETATM   12  N   UNL     1      30.681  50.697  41.205  1.00  0.00    -0.322 N 
HETATM   13  H   UNL     1      30.549  49.754  40.846  1.00  0.00     0.169 HD
HETATM   14  O   UNL     1      29.570  52.748  41.169  1.00  0.00    -0.266 OA
BRANCH  12  15
HETATM   15  C   UNL     1      31.877  50.997  41.877  1.00  0.00     0.035 A 
HETATM   16  C   UNL     1      33.136  50.941  41.281  1.00  0.00     0.032 A 
HETATM   17  C   UNL     1      34.291  51.262  42.010  1.00  0.00     0.032 A 
HETATM   18  C   UNL     1      34.207  51.640  43.349  1.00  0.00     0.034 A 
HETATM   19  C   UNL     1      32.942  51.693  43.949  1.00  0.00     0.032 A 
HETATM   20  C   UNL     1      31.789  51.379  43.218  1.00  0.00     0.032 A 
BRANCH  18  21
HETATM   21  N   UNL     1      35.318  51.986  44.146  1.00  0.00    -0.327 N 
HETATM   22  C   UNL     1      36.348  52.851  43.824  1.00  0.00     0.221 C 
HETATM   23  O   UNL     1      36.476  53.475  42.775  1.00  0.00    -0.273 OA
HETATM   24  H   UNL     1      35.361  51.542  45.053  1.00  0.00     0.169 HD
BRANCH  22  25
HETATM   25  C   UNL     1      37.354  53.041  44.949  1.00  0.00     0.098 C 
HETATM   26  C   UNL     1      37.743  54.490  45.181  1.00  0.00     0.014 C 
ENDBRANCH  22  25
ENDBRANCH  18  21
ENDBRANCH  12  15
ENDBRANCH   1  11
BRANCH   8  27
HETATM   27  C   UNL     1      27.192  46.917  39.897  1.00  0.00     0.409 C 
HETATM   28  F   UNL     1      26.558  45.782  39.530  1.00  0.00    -0.169 F 
HETATM   29  F   UNL     1      28.393  46.947  39.279  1.00  0.00    -0.169 F 
HETATM   30  F   UNL     1      27.457  46.800  41.226  1.00  0.00    -0.169 F 
ENDBRANCH   8  27
BRANCH   6  31
HETATM   31  C   UNL     1      23.703  49.631  38.724  1.00  0.00     0.075 A 
HETATM   32  O   UNL     1      23.071  50.806  38.434  1.00  0.00    -0.325 OA
HETATM   33  C   UNL     1      22.037  50.929  39.304  1.00  0.00     0.142 A 
HETATM   34  C   UNL     1      21.985  49.844  40.147  1.00  0.00     0.027 A 
HETATM   35  C   UNL     1      23.060  49.003  39.774  1.00  0.00     0.037 A 
ENDBRANCH   6  31
TORSDOF 6
ENDMDL
MODEL 9
REMARK VINA RESULT:      -8.1     12.444     13.634
REMARK  6 active torsions:
REMARK  status: ('A' for Active; 'I' for Inactive)
REMARK    1  A    between atoms: C_2  and  C_3 
REMARK       I    between atoms: C_3  and  N_4 
REMARK    2  A    between atoms: N_4  and  C_5 
REMARK    3  A    between atoms: C_8  and  N_9 
REMARK       I    between atoms: N_9  and  C_10 
REMARK    4  A    between atoms: C_10  and  C_11 
REMARK    5  A    between atoms: C_16  and  C_17 
REMARK    6  A    between atoms: C_23  and  C_24 
ROOT
HETATM    1  C   UNL     1      32.435  50.905  41.861  1.00  0.00     0.148 A 
HETATM    2  N   UNL     1      31.356  51.517  41.323  1.00  0.00    -0.165 NA
HETATM    3  N   UNL     1      30.346  50.659  41.565  1.00  0.00    -0.240 N 
HETATM    4  C   UNL     1      30.741  49.517  42.212  1.00  0.00     0.123 A 
HETATM    5  N   UNL     1      29.866  48.533  42.515  1.00  0.00    -0.364 N 
HETATM    6  C   UNL     1      28.544  48.495  41.883  1.00  0.00     0.143 C 
HETATM    7  C   UNL     1      28.006  49.927  41.747  1.00  0.00     0.068 C 
HETATM    8  C   UNL     1      29.008  50.855  41.031  1.00  0.00     0.221 C 
HETATM    9  C   UNL     1      32.087  49.647  42.424  1.00  0.00     0.089 A 
HETATM   10  H   UNL     1      30.214  47.622  42.814  1.00  0.00     0.162 HD
ENDROOT
BRANCH   1  11
HETATM   11  C   UNL     1      33.779  51.507  41.839  1.00  0.00     0.276 C 
HETATM   12  N   UNL     1      34.530  51.155  42.946  1.00  0.00    -0.322 N 
HETATM   13  H   UNL     1      34.050  50.513  43.574  1.00  0.00     0.169 HD
HETATM   14  O   UNL     1      34.144  52.210  40.901  1.00  0.00    -0.266 OA
BRANCH  12  15
HETATM   15  C   UNL     1      35.845  51.537  43.257  1.00  0.00     0.035 A 
HETATM   16  C   UNL     1      36.976  50.979  42.663  1.00  0.00     0.032 A 
HETATM   17  C   UNL     1      38.262  51.415  43.015  1.00  0.00     0.032 A 
HETATM   18  C   UNL     1      38.439  52.414  43.970  1.00  0.00     0.034 A 
HETATM   19  C   UNL     1      37.304  52.974  44.568  1.00  0.00     0.032 A 
HETATM   20  C   UNL     1      36.019  52.543  44.211  1.00  0.00     0.032 A 
BRANCH  18  21
HETATM   21  N   UNL     1      39.697  52.913  44.371  1.00  0.00    -0.327 N 
HETATM   22  C   UNL     1      40.446  52.524  45.467  1.00  0.00     0.221 C 
HETATM   23  O   UNL     1      40.142  51.668  46.291  1.00  0.00    -0.273 OA
HETATM   24  H   UNL     1      40.084  53.641  43.787  1.00  0.00     0.169 HD
BRANCH  22  25
HETATM   25  C   UNL     1      41.789  53.231  45.564  1.00  0.00     0.098 C 
HETATM   26  C   UNL     1      42.176  53.612  46.982  1.00  0.00     0.014 C 
ENDBRANCH  22  25
ENDBRANCH  18  21
ENDBRANCH  12  15
ENDBRANCH   1  11
BRANCH   8  27
HETATM   27  C   UNL     1      28.548  52.291  41.154  1.00  0.00     0.409 C 
HETATM   28  F   UNL     1      29.104  52.925  42.210  1.00  0.00    -0.169 F 
HETATM   29  F   UNL     1      28.790  53.027  40.047  1.00  0.00    -0.169 F 
HETATM   30  F   UNL     1      27.202  52.329  41.343  1.00  0.00    -0.169 F 
ENDBRANCH   8  27
BRANCH   6  31
HETATM   31  C   UNL     1      28.491  47.753  40.584  1.00  0.00     0.075 A 
HETATM   32  O   UNL     1      27.342  47.888  39.859  1.00  0.00    -0.325 OA
HETATM   33  C   UNL     1      27.481  47.126  38.745  1.00  0.00     0.142 A 
HETATM   34  C   UNL     1      28.709  46.508  38.734  1.00  0.00     0.027 A 
HETATM   35  C   UNL     1      29.364  46.913  39.921  1.00  0.00     0.037 A 
ENDBRANCH   6  31
TORSDOF 6
ENDMDL
MODEL 10
REMARK VINA RESULT:      -8.1      5.298     10.598
REMARK  6 active torsions:
REMARK  status: ('A' for Active; 'I' for Inactive)
REMARK    1  A    between atoms: C_2  and  C_3 
REMARK       I    between atoms: C_3  and  N_4 
REMARK    2  A    between atoms: N_4  and  C_5 
REMARK    3  A    between atoms: C_8  and  N_9 
REMARK       I    between atoms: N_9  and  C_10 
REMARK    4  A    between atoms: C_10  and  C_11 
REMARK    5  A    between atoms: C_16  and  C_17 
REMARK    6  A    between atoms: C_23  and  C_24 
ROOT
HETATM    1  C   UNL     1      25.672  43.476  50.357  1.00  0.00     0.148 A 
HETATM    2  N   UNL     1      26.149  42.780  51.414  1.00  0.00    -0.165 NA
HETATM    3  N   UNL     1      27.028  41.920  50.862  1.00  0.00    -0.240 N 
HETATM    4  C   UNL     1      27.111  42.024  49.498  1.00  0.00     0.123 A 
HETATM    5  N   UNL     1      27.925  41.224  48.774  1.00  0.00    -0.364 N 
HETATM    6  C   UNL     1      28.494  40.011  49.366  1.00  0.00     0.143 C 
HETATM    7  C   UNL     1      28.867  40.290  50.829  1.00  0.00     0.068 C 
HETATM    8  C   UNL     1      27.684  40.873  51.628  1.00  0.00     0.221 C 
HETATM    9  C   UNL     1      26.251  43.026  49.139  1.00  0.00     0.089 A 
HETATM   10  H   UNL     1      27.824  41.187  47.759  1.00  0.00     0.162 HD
ENDROOT
BRANCH   1  11
HETATM   11  C   UNL     1      24.677  44.553  50.503  1.00  0.00     0.276 C 
HETATM   12  N   UNL     1      24.736  45.465  49.465  1.00  0.00    -0.322 N 
HETATM   13  H   UNL     1      25.426  45.228  48.755  1.00  0.00     0.169 HD
HETATM   14  O   UNL     1      23.893  44.568  51.446  1.00  0.00    -0.266 OA
BRANCH  12  15
HETATM   15  C   UNL     1      23.945  46.610  49.273  1.00  0.00     0.035 A 
HETATM   16  C   UNL     1      24.309  47.885  49.703  1.00  0.00     0.032 A 
HETATM   17  C   UNL     1      23.472  48.987  49.470  1.00  0.00     0.032 A 
HETATM   18  C   UNL     1      22.257  48.832  48.807  1.00  0.00     0.034 A 
HETATM   19  C   UNL     1      21.890  47.550  48.378  1.00  0.00     0.032 A 
HETATM   20  C   UNL     1      22.729  46.451  48.604  1.00  0.00     0.032 A 
BRANCH  18  21
HETATM   21  N   UNL     1      21.366  49.890  48.527  1.00  0.00    -0.327 N 
HETATM   22  C   UNL     1      20.477  50.494  49.397  1.00  0.00     0.221 C 
HETATM   23  O   UNL     1      20.305  50.210  50.578  1.00  0.00    -0.273 OA
HETATM   24  H   UNL     1      21.383  50.235  47.577  1.00  0.00     0.169 HD
BRANCH  22  25
HETATM   25  C   UNL     1      19.710  51.650  48.773  1.00  0.00     0.098 C 
HETATM   26  C   UNL     1      18.547  52.136  49.618  1.00  0.00     0.014 C 
ENDBRANCH  22  25
ENDBRANCH  18  21
ENDBRANCH  12  15
ENDBRANCH   1  11
BRANCH   8  27
HETATM   27  C   UNL     1      28.170  41.366  52.972  1.00  0.00     0.409 C 
HETATM   28  F   UNL     1      27.174  41.885  53.725  1.00  0.00    -0.169 F 
HETATM   29  F   UNL     1      28.794  40.414  53.698  1.00  0.00    -0.169 F 
HETATM   30  F   UNL     1      29.081  42.361  52.795  1.00  0.00    -0.169 F 
ENDBRANCH   8  27
BRANCH   6  31
HETATM   31  C   UNL     1      27.641  38.788  49.232  1.00  0.00     0.075 A 
HETATM   32  O   UNL     1      28.023  37.702  49.966  1.00  0.00    -0.325 OA
HETATM   33  C   UNL     1      27.149  36.702  49.687  1.00  0.00     0.142 A 
HETATM   34  C   UNL     1      26.200  37.130  48.788  1.00  0.00     0.027 A 
HETATM   35  C   UNL     1      26.515  38.478  48.493  1.00  0.00     0.037 A 
ENDBRANCH   6  31
TORSDOF 6
ENDMDL
