MODEL 1
REMARK VINA RESULT:      -9.9      0.000      0.000
REMARK  4 active torsions:
REMARK  status: ('A' for Active; 'I' for Inactive)
REMARK    1  A    between atoms: O_2  and  C_3 
REMARK    2  A    between atoms: C_3  and  C_4 
REMARK    3  A    between atoms: N_11  and  C_13 
REMARK    4  A    between atoms: C_13  and  C_14 
ROOT
HETATM    1  C   UNL     1      27.806  41.864  51.445  1.00  0.00     0.290 C 
HETATM    2  N   UNL     1      26.468  42.677  51.642  1.00  0.00    -0.047 N 
HETATM    3  H   UNL     1      26.004  42.182  52.421  1.00  0.00     0.279 HD
HETATM    4  H   UNL     1      25.884  42.452  50.822  1.00  0.00     0.279 HD
HETATM    5  C   UNL     1      26.630  44.134  52.023  1.00  0.00     0.172 C 
HETATM    6  C   UNL     1      27.067  44.971  50.809  1.00  0.00     0.073 C 
HETATM    7  C   UNL     1      25.996  45.117  49.735  1.00  0.00     0.238 C 
HETATM    8  N   UNL     1      24.718  45.640  50.341  1.00  0.00    -0.067 N 
HETATM    9  H   UNL     1      24.891  46.603  50.669  1.00  0.00     0.280 HD
HETATM   10  C   UNL     1      24.208  44.808  51.485  1.00  0.00     0.238 C 
HETATM   11  C   UNL     1      25.280  44.658  52.555  1.00  0.00     0.073 C 
HETATM   12  C   UNL     1      27.683  44.157  53.100  1.00  0.00     0.053 A 
HETATM   13  C   UNL     1      28.540  43.122  53.450  1.00  0.00    -0.018 A 
HETATM   14  C   UNL     1      28.539  41.785  52.787  1.00  0.00     0.085 C 
HETATM   15  N   UNL     1      27.986  45.225  53.917  1.00  0.00    -0.356 N 
HETATM   16  H   UNL     1      27.558  46.143  53.921  1.00  0.00     0.166 HD
HETATM   17  C   UNL     1      28.988  44.881  54.795  1.00  0.00     0.043 A 
HETATM   18  C   UNL     1      29.359  43.566  54.522  1.00  0.00    -0.001 A 
HETATM   19  C   UNL     1      29.590  45.639  55.807  1.00  0.00     0.030 A 
HETATM   20  C   UNL     1      30.600  45.031  56.558  1.00  0.00     0.002 A 
HETATM   21  C   UNL     1      30.992  43.720  56.305  1.00  0.00     0.001 A 
HETATM   22  C   UNL     1      30.381  42.975  55.289  1.00  0.00     0.014 A 
ENDROOT
BRANCH   1  23
HETATM   23  C   UNL     1      27.441  40.497  50.882  1.00  0.00     0.289 C 
HETATM   24  O   UNL     1      26.257  40.196  50.749  1.00  0.00    -0.263 OA
BRANCH  23  25
HETATM   25  O   UNL     1      28.516  39.769  50.528  1.00  0.00    -0.325 OA
HETATM   26  C   UNL     1      28.697  39.609  49.114  1.00  0.00     0.213 C 
ENDBRANCH  23  25
ENDBRANCH   1  23
BRANCH   8  27
HETATM   27  C   UNL     1      23.608  45.829  49.288  1.00  0.00     0.273 C 
BRANCH  27  28
HETATM   28  C   UNL     1      23.380  47.265  48.914  1.00  0.00    -0.033 A 
HETATM   29  C   UNL     1      22.181  47.651  48.291  1.00  0.00     0.009 A 
HETATM   30  C   UNL     1      21.975  48.980  47.919  1.00  0.00     0.001 A 
HETATM   31  C   UNL     1      22.959  49.935  48.166  1.00  0.00     0.000 A 
HETATM   32  C   UNL     1      24.146  49.566  48.794  1.00  0.00     0.001 A 
HETATM   33  C   UNL     1      24.358  48.238  49.169  1.00  0.00     0.009 A 
ENDBRANCH  27  28
ENDBRANCH   8  27
TORSDOF 4
ENDMDL
MODEL 2
REMARK VINA RESULT:      -9.8      2.085      8.187
REMARK  4 active torsions:
REMARK  status: ('A' for Active; 'I' for Inactive)
REMARK    1  A    between atoms: O_2  and  C_3 
REMARK    2  A    between atoms: C_3  and  C_4 
REMARK    3  A    between atoms: N_11  and  C_13 
REMARK    4  A    between atoms: C_13  and  C_14 
ROOT
HETATM    1  C   UNL     1      22.798  44.330  49.202  1.00  0.00     0.290 C 
HETATM    2  N   UNL     1      24.370  44.314  49.342  1.00  0.00    -0.047 N 
HETATM    3  H   UNL     1      24.694  44.338  48.361  1.00  0.00     0.279 HD
HETATM    4  H   UNL     1      24.610  43.362  49.658  1.00  0.00     0.279 HD
HETATM    5  C   UNL     1      24.980  45.486  50.083  1.00  0.00     0.172 C 
HETATM    6  C   UNL     1      24.752  45.353  51.598  1.00  0.00     0.073 C 
HETATM    7  C   UNL     1      25.536  44.220  52.248  1.00  0.00     0.238 C 
HETATM    8  N   UNL     1      27.001  44.338  51.913  1.00  0.00    -0.067 N 
HETATM    9  H   UNL     1      27.362  45.195  52.361  1.00  0.00     0.280 HD
HETATM   10  C   UNL     1      27.280  44.394  50.437  1.00  0.00     0.238 C 
HETATM   11  C   UNL     1      26.493  45.523  49.786  1.00  0.00     0.073 C 
HETATM   12  C   UNL     1      24.291  46.711  49.540  1.00  0.00     0.053 A 
HETATM   13  C   UNL     1      23.139  46.746  48.765  1.00  0.00    -0.018 A 
HETATM   14  C   UNL     1      22.390  45.527  48.338  1.00  0.00     0.085 C 
HETATM   15  N   UNL     1      24.684  48.017  49.736  1.00  0.00    -0.356 N 
HETATM   16  H   UNL     1      25.480  48.352  50.266  1.00  0.00     0.166 HD
HETATM   17  C   UNL     1      23.831  48.874  49.078  1.00  0.00     0.043 A 
HETATM   18  C   UNL     1      22.847  48.102  48.463  1.00  0.00    -0.001 A 
HETATM   19  C   UNL     1      23.860  50.270  48.986  1.00  0.00     0.030 A 
HETATM   20  C   UNL     1      22.852  50.892  48.244  1.00  0.00     0.002 A 
HETATM   21  C   UNL     1      21.856  50.146  47.621  1.00  0.00     0.001 A 
HETATM   22  C   UNL     1      21.840  48.750  47.722  1.00  0.00     0.014 A 
ENDROOT
BRANCH   1  23
HETATM   23  C   UNL     1      22.370  42.994  48.612  1.00  0.00     0.289 C 
HETATM   24  O   UNL     1      22.697  41.953  49.176  1.00  0.00    -0.263 OA
BRANCH  23  25
HETATM   25  O   UNL     1      21.596  43.124  47.518  1.00  0.00    -0.325 OA
HETATM   26  C   UNL     1      21.963  42.284  46.415  1.00  0.00     0.213 C 
ENDBRANCH  23  25
ENDBRANCH   1  23
BRANCH   8  27
HETATM   27  C   UNL     1      27.842  43.226  52.570  1.00  0.00     0.273 C 
BRANCH  27  28
HETATM   28  C   UNL     1      28.700  43.716  53.700  1.00  0.00    -0.033 A 
HETATM   29  C   UNL     1      29.838  42.990  54.089  1.00  0.00     0.009 A 
HETATM   30  C   UNL     1      30.625  43.429  55.155  1.00  0.00     0.001 A 
HETATM   31  C   UNL     1      30.286  44.592  55.840  1.00  0.00     0.000 A 
HETATM   32  C   UNL     1      29.166  45.327  55.456  1.00  0.00     0.001 A 
HETATM   33  C   UNL     1      28.376  44.894  54.390  1.00  0.00     0.009 A 
ENDBRANCH  27  28
ENDBRANCH   8  27
TORSDOF 4
ENDMDL
MODEL 3
REMARK VINA RESULT:      -9.6      2.700      7.882
REMARK  4 active torsions:
REMARK  status: ('A' for Active; 'I' for Inactive)
REMARK    1  A    between atoms: O_2  and  C_3 
REMARK    2  A    between atoms: C_3  and  C_4 
REMARK    3  A    between atoms: N_11  and  C_13 
REMARK    4  A    between atoms: C_13  and  C_14 
ROOT
HETATM    1  C   UNL     1      25.262  42.759  50.405  1.00  0.00     0.290 C 
HETATM    2  N   UNL     1      25.906  42.594  51.836  1.00  0.00    -0.047 N 
HETATM    3  H   UNL     1      25.394  41.788  52.233  1.00  0.00     0.279 HD
HETATM    4  H   UNL     1      25.567  43.398  52.387  1.00  0.00     0.279 HD
HETATM    5  C   UNL     1      27.389  42.287  51.862  1.00  0.00     0.172 C 
HETATM    6  C   UNL     1      28.213  43.543  51.535  1.00  0.00     0.073 C 
HETATM    7  C   UNL     1      28.168  44.616  52.616  1.00  0.00     0.238 C 
HETATM    8  N   UNL     1      28.552  44.029  53.951  1.00  0.00    -0.067 N 
HETATM    9  H   UNL     1      29.545  43.749  53.902  1.00  0.00     0.280 HD
HETATM   10  C   UNL     1      27.720  42.843  54.350  1.00  0.00     0.238 C 
HETATM   11  C   UNL     1      27.762  41.773  53.268  1.00  0.00     0.073 C 
HETATM   12  C   UNL     1      27.600  41.219  50.821  1.00  0.00     0.053 A 
HETATM   13  C   UNL     1      26.702  40.823  49.838  1.00  0.00    -0.018 A 
HETATM   14  C   UNL     1      25.344  41.419  49.668  1.00  0.00     0.085 C 
HETATM   15  N   UNL     1      28.737  40.457  50.657  1.00  0.00    -0.356 N 
HETATM   16  H   UNL     1      29.592  40.496  51.199  1.00  0.00     0.166 HD
HETATM   17  C   UNL     1      28.568  39.569  49.619  1.00  0.00     0.043 A 
HETATM   18  C   UNL     1      27.299  39.780  49.083  1.00  0.00    -0.001 A 
HETATM   19  C   UNL     1      29.446  38.599  49.120  1.00  0.00     0.030 A 
HETATM   20  C   UNL     1      29.010  37.826  48.041  1.00  0.00     0.002 A 
HETATM   21  C   UNL     1      27.749  38.016  47.484  1.00  0.00     0.001 A 
HETATM   22  C   UNL     1      26.882  38.990  47.994  1.00  0.00     0.014 A 
ENDROOT
BRANCH   1  23
HETATM   23  C   UNL     1      23.833  43.252  50.592  1.00  0.00     0.289 C 
HETATM   24  O   UNL     1      22.899  42.555  50.201  1.00  0.00    -0.263 OA
BRANCH  23  25
HETATM   25  O   UNL     1      23.762  44.425  51.247  1.00  0.00    -0.325 OA
HETATM   26  C   UNL     1      24.559  45.478  50.687  1.00  0.00     0.213 C 
ENDBRANCH  23  25
ENDBRANCH   1  23
BRANCH   8  27
HETATM   27  C   UNL     1      28.546  45.083  55.076  1.00  0.00     0.273 C 
BRANCH  27  28
HETATM   28  C   UNL     1      29.632  44.877  56.091  1.00  0.00    -0.033 A 
HETATM   29  C   UNL     1      30.611  43.890  55.889  1.00  0.00     0.009 A 
HETATM   30  C   UNL     1      31.608  43.680  56.843  1.00  0.00     0.001 A 
HETATM   31  C   UNL     1      31.639  44.449  58.003  1.00  0.00     0.000 A 
HETATM   32  C   UNL     1      30.680  45.438  58.209  1.00  0.00     0.001 A 
HETATM   33  C   UNL     1      29.680  45.655  57.259  1.00  0.00     0.009 A 
ENDBRANCH  27  28
ENDBRANCH   8  27
TORSDOF 4
ENDMDL
MODEL 4
REMARK VINA RESULT:      -8.9      1.840      3.020
REMARK  4 active torsions:
REMARK  status: ('A' for Active; 'I' for Inactive)
REMARK    1  A    between atoms: O_2  and  C_3 
REMARK    2  A    between atoms: C_3  and  C_4 
REMARK    3  A    between atoms: N_11  and  C_13 
REMARK    4  A    between atoms: C_13  and  C_14 
ROOT
HETATM    1  C   UNL     1      28.216  41.724  51.485  1.00  0.00     0.290 C 
HETATM    2  N   UNL     1      26.782  42.352  51.681  1.00  0.00    -0.047 N 
HETATM    3  H   UNL     1      26.387  41.796  52.458  1.00  0.00     0.279 HD
HETATM    4  H   UNL     1      26.234  42.054  50.860  1.00  0.00     0.279 HD
HETATM    5  C   UNL     1      26.749  43.816  52.068  1.00  0.00     0.172 C 
HETATM    6  C   UNL     1      27.073  44.708  50.857  1.00  0.00     0.073 C 
HETATM    7  C   UNL     1      25.994  44.715  49.782  1.00  0.00     0.238 C 
HETATM    8  N   UNL     1      24.657  45.061  50.387  1.00  0.00    -0.067 N 
HETATM    9  H   UNL     1      24.700  46.037  50.719  1.00  0.00     0.280 HD
HETATM   10  C   UNL     1      24.260  44.165  51.527  1.00  0.00     0.238 C 
HETATM   11  C   UNL     1      25.340  44.154  52.599  1.00  0.00     0.073 C 
HETATM   12  C   UNL     1      27.787  43.974  53.147  1.00  0.00     0.053 A 
HETATM   13  C   UNL     1      28.774  43.061  53.496  1.00  0.00    -0.018 A 
HETATM   14  C   UNL     1      28.952  41.738  52.828  1.00  0.00     0.085 C 
HETATM   15  N   UNL     1      27.945  45.070  53.968  1.00  0.00    -0.356 N 
HETATM   16  H   UNL     1      27.399  45.923  53.975  1.00  0.00     0.166 HD
HETATM   17  C   UNL     1      28.982  44.859  54.848  1.00  0.00     0.043 A 
HETATM   18  C   UNL     1      29.525  43.606  54.570  1.00  0.00    -0.001 A 
HETATM   19  C   UNL     1      29.476  45.685  55.864  1.00  0.00     0.030 A 
HETATM   20  C   UNL     1      30.557  45.214  56.615  1.00  0.00     0.002 A 
HETATM   21  C   UNL     1      31.120  43.968  56.358  1.00  0.00     0.001 A 
HETATM   22  C   UNL     1      30.615  43.152  55.338  1.00  0.00     0.014 A 
ENDROOT
BRANCH   1  23
HETATM   23  C   UNL     1      28.037  40.323  50.916  1.00  0.00     0.289 C 
HETATM   24  O   UNL     1      28.939  39.499  51.047  1.00  0.00    -0.263 OA
BRANCH  23  25
HETATM   25  O   UNL     1      26.827  40.131  50.359  1.00  0.00    -0.325 OA
HETATM   26  C   UNL     1      26.767  39.069  49.396  1.00  0.00     0.213 C 
ENDBRANCH  23  25
ENDBRANCH   1  23
BRANCH   8  27
HETATM   27  C   UNL     1      23.533  45.106  49.333  1.00  0.00     0.273 C 
BRANCH  27  28
HETATM   28  C   UNL     1      23.406  43.836  48.541  1.00  0.00    -0.033 A 
HETATM   29  C   UNL     1      23.511  43.864  47.140  1.00  0.00     0.009 A 
HETATM   30  C   UNL     1      23.370  42.690  46.399  1.00  0.00     0.001 A 
HETATM   31  C   UNL     1      23.124  41.481  47.045  1.00  0.00     0.000 A 
HETATM   32  C   UNL     1      23.028  41.440  48.434  1.00  0.00     0.001 A 
HETATM   33  C   UNL     1      23.170  42.610  49.182  1.00  0.00     0.009 A 
ENDBRANCH  27  28
ENDBRANCH   8  27
TORSDOF 4
ENDMDL
MODEL 5
REMARK VINA RESULT:      -8.5      3.605      8.959
REMARK  4 active torsions:
REMARK  status: ('A' for Active; 'I' for Inactive)
REMARK    1  A    between atoms: O_2  and  C_3 
REMARK    2  A    between atoms: C_3  and  C_4 
REMARK    3  A    between atoms: N_11  and  C_13 
REMARK    4  A    between atoms: C_13  and  C_14 
ROOT
HETATM    1  C   UNL     1      23.253  47.154  48.709  1.00  0.00     0.290 C 
HETATM    2  N   UNL     1      23.522  46.233  49.962  1.00  0.00    -0.047 N 
HETATM    3  H   UNL     1      22.573  45.925  50.235  1.00  0.00     0.279 HD
HETATM    4  H   UNL     1      23.802  46.872  50.721  1.00  0.00     0.279 HD
HETATM    5  C   UNL     1      24.375  45.007  49.712  1.00  0.00     0.172 C 
HETATM    6  C   UNL     1      25.856  45.393  49.564  1.00  0.00     0.073 C 
HETATM    7  C   UNL     1      26.504  45.881  50.854  1.00  0.00     0.238 C 
HETATM    8  N   UNL     1      26.298  44.872  51.955  1.00  0.00    -0.067 N 
HETATM    9  H   UNL     1      26.822  44.018  51.707  1.00  0.00     0.280 HD
HETATM   10  C   UNL     1      24.856  44.520  52.189  1.00  0.00     0.238 C 
HETATM   11  C   UNL     1      24.207  44.037  50.899  1.00  0.00     0.073 C 
HETATM   12  C   UNL     1      23.847  44.399  48.438  1.00  0.00     0.053 A 
HETATM   13  C   UNL     1      22.983  44.992  47.526  1.00  0.00    -0.018 A 
HETATM   14  C   UNL     1      22.428  46.369  47.685  1.00  0.00     0.085 C 
HETATM   15  N   UNL     1      24.149  43.146  47.950  1.00  0.00    -0.356 N 
HETATM   16  H   UNL     1      24.760  42.452  48.362  1.00  0.00     0.166 HD
HETATM   17  C   UNL     1      23.472  42.919  46.773  1.00  0.00     0.043 A 
HETATM   18  C   UNL     1      22.735  44.065  46.480  1.00  0.00    -0.001 A 
HETATM   19  C   UNL     1      23.462  41.786  45.951  1.00  0.00     0.030 A 
HETATM   20  C   UNL     1      22.675  41.830  44.797  1.00  0.00     0.002 A 
HETATM   21  C   UNL     1      21.931  42.963  44.479  1.00  0.00     0.001 A 
HETATM   22  C   UNL     1      21.951  44.088  45.311  1.00  0.00     0.014 A 
ENDROOT
BRANCH   1  23
HETATM   23  C   UNL     1      22.555  48.415  49.199  1.00  0.00     0.289 C 
HETATM   24  O   UNL     1      21.331  48.425  49.302  1.00  0.00    -0.263 OA
BRANCH  23  25
HETATM   25  O   UNL     1      23.413  49.397  49.531  1.00  0.00    -0.325 OA
HETATM   26  C   UNL     1      24.662  49.372  48.825  1.00  0.00     0.213 C 
ENDBRANCH  23  25
ENDBRANCH   1  23
BRANCH   8  27
HETATM   27  C   UNL     1      26.958  45.309  53.278  1.00  0.00     0.273 C 
BRANCH  27  28
HETATM   28  C   UNL     1      28.191  44.522  53.617  1.00  0.00    -0.033 A 
HETATM   29  C   UNL     1      28.763  43.659  52.668  1.00  0.00     0.009 A 
HETATM   30  C   UNL     1      29.894  42.908  52.988  1.00  0.00     0.001 A 
HETATM   31  C   UNL     1      30.466  43.011  54.253  1.00  0.00     0.000 A 
HETATM   32  C   UNL     1      29.914  43.871  55.200  1.00  0.00     0.001 A 
HETATM   33  C   UNL     1      28.783  44.626  54.886  1.00  0.00     0.009 A 
ENDBRANCH  27  28
ENDBRANCH   8  27
TORSDOF 4
ENDMDL
MODEL 6
REMARK VINA RESULT:      -8.4      2.957      6.764
REMARK  4 active torsions:
REMARK  status: ('A' for Active; 'I' for Inactive)
REMARK    1  A    between atoms: O_2  and  C_3 
REMARK    2  A    between atoms: C_3  and  C_4 
REMARK    3  A    between atoms: N_11  and  C_13 
REMARK    4  A    between atoms: C_13  and  C_14 
ROOT
HETATM    1  C   UNL     1      24.608  46.310  50.805  1.00  0.00     0.290 C 
HETATM    2  N   UNL     1      25.524  45.226  50.117  1.00  0.00    -0.047 N 
HETATM    3  H   UNL     1      26.325  45.780  49.770  1.00  0.00     0.279 HD
HETATM    4  H   UNL     1      25.026  44.946  49.258  1.00  0.00     0.279 HD
HETATM    5  C   UNL     1      26.050  44.132  51.024  1.00  0.00     0.172 C 
HETATM    6  C   UNL     1      24.942  43.118  51.355  1.00  0.00     0.073 C 
HETATM    7  C   UNL     1      24.507  42.264  50.172  1.00  0.00     0.238 C 
HETATM    8  N   UNL     1      25.702  41.597  49.540  1.00  0.00    -0.067 N 
HETATM    9  H   UNL     1      26.088  40.923  50.220  1.00  0.00     0.280 HD
HETATM   10  C   UNL     1      26.781  42.558  49.128  1.00  0.00     0.238 C 
HETATM   11  C   UNL     1      27.214  43.415  50.309  1.00  0.00     0.073 C 
HETATM   12  C   UNL     1      26.528  44.833  52.269  1.00  0.00     0.053 A 
HETATM   13  C   UNL     1      26.265  46.146  52.640  1.00  0.00    -0.018 A 
HETATM   14  C   UNL     1      25.442  47.088  51.827  1.00  0.00     0.085 C 
HETATM   15  N   UNL     1      27.302  44.280  53.266  1.00  0.00    -0.356 N 
HETATM   16  H   UNL     1      27.663  43.335  53.318  1.00  0.00     0.166 HD
HETATM   17  C   UNL     1      27.562  45.217  54.240  1.00  0.00     0.043 A 
HETATM   18  C   UNL     1      26.919  46.398  53.875  1.00  0.00    -0.001 A 
HETATM   19  C   UNL     1      28.318  45.103  55.413  1.00  0.00     0.030 A 
HETATM   20  C   UNL     1      28.415  46.229  56.234  1.00  0.00     0.002 A 
HETATM   21  C   UNL     1      27.780  47.420  55.895  1.00  0.00     0.001 A 
HETATM   22  C   UNL     1      27.028  47.520  54.719  1.00  0.00     0.014 A 
ENDROOT
BRANCH   1  23
HETATM   23  C   UNL     1      24.029  47.194  49.708  1.00  0.00     0.289 C 
HETATM   24  O   UNL     1      23.407  46.678  48.783  1.00  0.00    -0.263 OA
BRANCH  23  25
HETATM   25  O   UNL     1      24.232  48.506  49.927  1.00  0.00    -0.325 OA
HETATM   26  C   UNL     1      24.715  49.241  48.793  1.00  0.00     0.213 C 
ENDBRANCH  23  25
ENDBRANCH   1  23
BRANCH   8  27
HETATM   27  C   UNL     1      25.310  40.699  48.350  1.00  0.00     0.273 C 
BRANCH  27  28
HETATM   28  C   UNL     1      26.323  39.633  48.048  1.00  0.00    -0.033 A 
HETATM   29  C   UNL     1      26.775  38.779  49.067  1.00  0.00     0.009 A 
HETATM   30  C   UNL     1      27.735  37.803  48.796  1.00  0.00     0.001 A 
HETATM   31  C   UNL     1      28.250  37.669  47.509  1.00  0.00     0.000 A 
HETATM   32  C   UNL     1      27.801  38.503  46.488  1.00  0.00     0.001 A 
HETATM   33  C   UNL     1      26.840  39.481  46.752  1.00  0.00     0.009 A 
ENDBRANCH  27  28
ENDBRANCH   8  27
TORSDOF 4
ENDMDL
MODEL 7
REMARK VINA RESULT:      -8.2      3.338      8.588
REMARK  4 active torsions:
REMARK  status: ('A' for Active; 'I' for Inactive)
REMARK    1  A    between atoms: O_2  and  C_3 
REMARK    2  A    between atoms: C_3  and  C_4 
REMARK    3  A    between atoms: N_11  and  C_13 
REMARK    4  A    between atoms: C_13  and  C_14 
ROOT
HETATM    1  C   UNL     1      24.021  46.401  49.189  1.00  0.00     0.290 C 
HETATM    2  N   UNL     1      24.161  45.785  50.634  1.00  0.00    -0.047 N 
HETATM    3  H   UNL     1      23.183  45.581  50.899  1.00  0.00     0.279 HD
HETATM    4  H   UNL     1      24.424  46.572  51.247  1.00  0.00     0.279 HD
HETATM    5  C   UNL     1      24.966  44.505  50.733  1.00  0.00     0.172 C 
HETATM    6  C   UNL     1      26.471  44.796  50.612  1.00  0.00     0.073 C 
HETATM    7  C   UNL     1      27.058  45.545  51.802  1.00  0.00     0.238 C 
HETATM    8  N   UNL     1      26.731  44.825  53.085  1.00  0.00    -0.067 N 
HETATM    9  H   UNL     1      27.226  43.919  53.078  1.00  0.00     0.280 HD
HETATM   10  C   UNL     1      25.261  44.587  53.285  1.00  0.00     0.238 C 
HETATM   11  C   UNL     1      24.673  43.842  52.095  1.00  0.00     0.073 C 
HETATM   12  C   UNL     1      24.491  43.639  49.596  1.00  0.00     0.053 A 
HETATM   13  C   UNL     1      23.719  44.036  48.511  1.00  0.00    -0.018 A 
HETATM   14  C   UNL     1      23.224  45.430  48.311  1.00  0.00     0.085 C 
HETATM   15  N   UNL     1      24.760  42.298  49.429  1.00  0.00    -0.356 N 
HETATM   16  H   UNL     1      25.307  41.696  50.033  1.00  0.00     0.166 HD
HETATM   17  C   UNL     1      24.150  41.829  48.288  1.00  0.00     0.043 A 
HETATM   18  C   UNL     1      23.492  42.901  47.689  1.00  0.00    -0.001 A 
HETATM   19  C   UNL     1      24.135  40.538  47.747  1.00  0.00     0.030 A 
HETATM   20  C   UNL     1      23.427  40.342  46.558  1.00  0.00     0.002 A 
HETATM   21  C   UNL     1      22.763  41.396  45.936  1.00  0.00     0.001 A 
HETATM   22  C   UNL     1      22.787  42.681  46.489  1.00  0.00     0.014 A 
ENDROOT
BRANCH   1  23
HETATM   23  C   UNL     1      23.357  47.764  49.326  1.00  0.00     0.289 C 
HETATM   24  O   UNL     1      23.817  48.581  50.120  1.00  0.00    -0.263 OA
BRANCH  23  25
HETATM   25  O   UNL     1      22.329  47.937  48.475  1.00  0.00    -0.325 OA
HETATM   26  C   UNL     1      21.154  48.518  49.059  1.00  0.00     0.213 C 
ENDBRANCH  23  25
ENDBRANCH   1  23
BRANCH   8  27
HETATM   27  C   UNL     1      27.326  45.532  54.319  1.00  0.00     0.273 C 
BRANCH  27  28
HETATM   28  C   UNL     1      28.591  44.896  54.819  1.00  0.00    -0.033 A 
HETATM   29  C   UNL     1      29.332  45.508  55.843  1.00  0.00     0.009 A 
HETATM   30  C   UNL     1      30.522  44.933  56.293  1.00  0.00     0.001 A 
HETATM   31  C   UNL     1      30.981  43.746  55.729  1.00  0.00     0.000 A 
HETATM   32  C   UNL     1      30.248  43.125  54.720  1.00  0.00     0.001 A 
HETATM   33  C   UNL     1      29.057  43.694  54.266  1.00  0.00     0.009 A 
ENDBRANCH  27  28
ENDBRANCH   8  27
TORSDOF 4
ENDMDL
MODEL 8
REMARK VINA RESULT:      -7.9      8.473     12.195
REMARK  4 active torsions:
REMARK  status: ('A' for Active; 'I' for Inactive)
REMARK    1  A    between atoms: O_2  and  C_3 
REMARK    2  A    between atoms: C_3  and  C_4 
REMARK    3  A    between atoms: N_11  and  C_13 
REMARK    4  A    between atoms: C_13  and  C_14 
ROOT
HETATM    1  C   UNL     1      17.564  48.751  47.430  1.00  0.00     0.290 C 
HETATM    2  N   UNL     1      17.080  49.823  48.481  1.00  0.00    -0.047 N 
HETATM    3  H   UNL     1      17.216  49.343  49.386  1.00  0.00     0.279 HD
HETATM    4  H   UNL     1      16.055  49.870  48.377  1.00  0.00     0.279 HD
HETATM    5  C   UNL     1      17.855  51.124  48.503  1.00  0.00     0.172 C 
HETATM    6  C   UNL     1      17.480  52.003  47.297  1.00  0.00     0.073 C 
HETATM    7  C   UNL     1      16.064  52.562  47.352  1.00  0.00     0.238 C 
HETATM    8  N   UNL     1      15.835  53.280  48.657  1.00  0.00    -0.067 N 
HETATM    9  H   UNL     1      16.444  54.113  48.675  1.00  0.00     0.280 HD
HETATM   10  C   UNL     1      16.114  52.434  49.868  1.00  0.00     0.238 C 
HETATM   11  C   UNL     1      17.528  51.872  49.812  1.00  0.00     0.073 C 
HETATM   12  C   UNL     1      19.308  50.732  48.451  1.00  0.00     0.053 A 
HETATM   13  C   UNL     1      19.824  49.480  48.138  1.00  0.00    -0.018 A 
HETATM   14  C   UNL     1      18.979  48.297  47.799  1.00  0.00     0.085 C 
HETATM   15  N   UNL     1      20.382  51.561  48.693  1.00  0.00    -0.356 N 
HETATM   16  H   UNL     1      20.364  52.543  48.937  1.00  0.00     0.166 HD
HETATM   17  C   UNL     1      21.560  50.858  48.574  1.00  0.00     0.043 A 
HETATM   18  C   UNL     1      21.239  49.549  48.222  1.00  0.00    -0.001 A 
HETATM   19  C   UNL     1      22.880  51.288  48.753  1.00  0.00     0.030 A 
HETATM   20  C   UNL     1      23.899  50.351  48.563  1.00  0.00     0.002 A 
HETATM   21  C   UNL     1      23.607  49.037  48.209  1.00  0.00     0.001 A 
HETATM   22  C   UNL     1      22.282  48.621  48.034  1.00  0.00     0.014 A 
ENDROOT
BRANCH   1  23
HETATM   23  C   UNL     1      16.553  47.612  47.427  1.00  0.00     0.289 C 
HETATM   24  O   UNL     1      15.398  47.830  47.785  1.00  0.00    -0.263 OA
BRANCH  23  25
HETATM   25  O   UNL     1      17.060  46.458  46.956  1.00  0.00    -0.325 OA
HETATM   26  C   UNL     1      16.920  46.270  45.541  1.00  0.00     0.213 C 
ENDBRANCH  23  25
ENDBRANCH   1  23
BRANCH   8  27
HETATM   27  C   UNL     1      14.421  53.886  48.751  1.00  0.00     0.273 C 
BRANCH  27  28
HETATM   28  C   UNL     1      14.416  55.324  49.181  1.00  0.00    -0.033 A 
HETATM   29  C   UNL     1      13.589  56.255  48.529  1.00  0.00     0.009 A 
HETATM   30  C   UNL     1      13.600  57.597  48.910  1.00  0.00     0.001 A 
HETATM   31  C   UNL     1      14.432  58.023  49.942  1.00  0.00     0.000 A 
HETATM   32  C   UNL     1      15.248  57.108  50.603  1.00  0.00     0.001 A 
HETATM   33  C   UNL     1      15.241  55.764  50.228  1.00  0.00     0.009 A 
ENDBRANCH  27  28
ENDBRANCH   8  27
TORSDOF 4
ENDMDL
MODEL 9
REMARK VINA RESULT:      -7.9     12.359     14.558
REMARK  4 active torsions:
REMARK  status: ('A' for Active; 'I' for Inactive)
REMARK    1  A    between atoms: O_2  and  C_3 
REMARK    2  A    between atoms: C_3  and  C_4 
REMARK    3  A    between atoms: N_11  and  C_13 
REMARK    4  A    between atoms: C_13  and  C_14 
ROOT
HETATM    1  C   UNL     1      28.373  47.614  39.881  1.00  0.00     0.290 C 
HETATM    2  N   UNL     1      28.709  49.080  39.403  1.00  0.00    -0.047 N 
HETATM    3  H   UNL     1      28.766  48.986  38.375  1.00  0.00     0.279 HD
HETATM    4  H   UNL     1      29.685  49.249  39.691  1.00  0.00     0.279 HD
HETATM    5  C   UNL     1      27.675  50.137  39.735  1.00  0.00     0.172 C 
HETATM    6  C   UNL     1      27.735  50.511  41.226  1.00  0.00     0.073 C 
HETATM    7  C   UNL     1      28.995  51.268  41.627  1.00  0.00     0.238 C 
HETATM    8  N   UNL     1      29.184  52.473  40.742  1.00  0.00    -0.067 N 
HETATM    9  H   UNL     1      28.412  53.133  40.931  1.00  0.00     0.280 HD
HETATM   10  C   UNL     1      29.209  52.147  39.275  1.00  0.00     0.238 C 
HETATM   11  C   UNL     1      27.953  51.387  38.875  1.00  0.00     0.073 C 
HETATM   12  C   UNL     1      26.343  49.525  39.387  1.00  0.00     0.053 A 
HETATM   13  C   UNL     1      26.085  48.186  39.118  1.00  0.00    -0.018 A 
HETATM   14  C   UNL     1      27.131  47.121  39.132  1.00  0.00     0.085 C 
HETATM   15  N   UNL     1      25.142  50.194  39.290  1.00  0.00    -0.356 N 
HETATM   16  H   UNL     1      24.969  51.181  39.436  1.00  0.00     0.166 HD
HETATM   17  C   UNL     1      24.140  49.320  38.935  1.00  0.00     0.043 A 
HETATM   18  C   UNL     1      24.703  48.050  38.825  1.00  0.00    -0.001 A 
HETATM   19  C   UNL     1      22.780  49.563  38.706  1.00  0.00     0.030 A 
HETATM   20  C   UNL     1      21.977  48.475  38.356  1.00  0.00     0.002 A 
HETATM   21  C   UNL     1      22.513  47.196  38.240  1.00  0.00     0.001 A 
HETATM   22  C   UNL     1      23.874  46.968  38.473  1.00  0.00     0.014 A 
ENDROOT
BRANCH   1  23
HETATM   23  C   UNL     1      29.602  46.751  39.632  1.00  0.00     0.289 C 
HETATM   24  O   UNL     1      29.497  45.528  39.668  1.00  0.00    -0.263 OA
BRANCH  23  25
HETATM   25  O   UNL     1      30.700  47.470  39.333  1.00  0.00    -0.325 OA
HETATM   26  C   UNL     1      31.649  47.596  40.401  1.00  0.00     0.213 C 
ENDBRANCH  23  25
ENDBRANCH   1  23
BRANCH   8  27
HETATM   27  C   UNL     1      30.434  53.289  41.125  1.00  0.00     0.273 C 
BRANCH  27  28
HETATM   28  C   UNL     1      31.562  52.445  41.642  1.00  0.00    -0.033 A 
HETATM   29  C   UNL     1      32.489  51.881  40.750  1.00  0.00     0.009 A 
HETATM   30  C   UNL     1      33.525  51.075  41.225  1.00  0.00     0.001 A 
HETATM   31  C   UNL     1      33.647  50.825  42.589  1.00  0.00     0.000 A 
HETATM   32  C   UNL     1      32.739  51.388  43.484  1.00  0.00     0.001 A 
HETATM   33  C   UNL     1      31.702  52.196  43.016  1.00  0.00     0.009 A 
ENDBRANCH  27  28
ENDBRANCH   8  27
TORSDOF 4
ENDMDL
MODEL 10
REMARK VINA RESULT:      -7.8      3.182      7.403
REMARK  4 active torsions:
REMARK  status: ('A' for Active; 'I' for Inactive)
REMARK    1  A    between atoms: O_2  and  C_3 
REMARK    2  A    between atoms: C_3  and  C_4 
REMARK    3  A    between atoms: N_11  and  C_13 
REMARK    4  A    between atoms: C_13  and  C_14 
ROOT
HETATM    1  C   UNL     1      24.802  42.415  50.648  1.00  0.00     0.290 C 
HETATM    2  N   UNL     1      25.730  42.050  49.425  1.00  0.00    -0.047 N 
HETATM    3  H   UNL     1      26.022  42.975  49.067  1.00  0.00     0.279 HD
HETATM    4  H   UNL     1      25.098  41.690  48.694  1.00  0.00     0.279 HD
HETATM    5  C   UNL     1      26.971  41.245  49.754  1.00  0.00     0.172 C 
HETATM    6  C   UNL     1      26.610  39.776  50.036  1.00  0.00     0.073 C 
HETATM    7  C   UNL     1      26.137  39.005  48.809  1.00  0.00     0.238 C 
HETATM    8  N   UNL     1      27.145  39.128  47.695  1.00  0.00    -0.067 N 
HETATM    9  H   UNL     1      28.007  38.644  47.990  1.00  0.00     0.280 HD
HETATM   10  C   UNL     1      27.472  40.549  47.331  1.00  0.00     0.238 C 
HETATM   11  C   UNL     1      27.940  41.321  48.557  1.00  0.00     0.073 C 
HETATM   12  C   UNL     1      27.565  41.897  50.975  1.00  0.00     0.053 A 
HETATM   13  C   UNL     1      26.955  42.830  51.803  1.00  0.00    -0.018 A 
HETATM   14  C   UNL     1      25.569  43.344  51.593  1.00  0.00     0.085 C 
HETATM   15  N   UNL     1      28.822  41.663  51.489  1.00  0.00    -0.356 N 
HETATM   16  H   UNL     1      29.529  41.029  51.136  1.00  0.00     0.166 HD
HETATM   17  C   UNL     1      29.034  42.448  52.600  1.00  0.00     0.043 A 
HETATM   18  C   UNL     1      27.875  43.188  52.823  1.00  0.00    -0.001 A 
HETATM   19  C   UNL     1      30.165  42.554  53.419  1.00  0.00     0.030 A 
HETATM   20  C   UNL     1      30.104  43.441  54.496  1.00  0.00     0.002 A 
HETATM   21  C   UNL     1      28.958  44.191  54.744  1.00  0.00     0.001 A 
HETATM   22  C   UNL     1      27.835  44.075  53.917  1.00  0.00     0.014 A 
ENDROOT
BRANCH   1  23
HETATM   23  C   UNL     1      23.530  43.043  50.095  1.00  0.00     0.289 C 
HETATM   24  O   UNL     1      22.674  42.323  49.586  1.00  0.00    -0.263 OA
BRANCH  23  25
HETATM   25  O   UNL     1      23.470  44.372  50.292  1.00  0.00    -0.325 OA
HETATM   26  C   UNL     1      23.428  45.160  49.094  1.00  0.00     0.213 C 
ENDBRANCH  23  25
ENDBRANCH   1  23
BRANCH   8  27
HETATM   27  C   UNL     1      26.723  38.342  46.437  1.00  0.00     0.273 C 
BRANCH  27  28
HETATM   28  C   UNL     1      27.878  37.965  45.555  1.00  0.00    -0.033 A 
HETATM   29  C   UNL     1      28.028  38.563  44.293  1.00  0.00     0.009 A 
HETATM   30  C   UNL     1      29.086  38.197  43.460  1.00  0.00     0.001 A 
HETATM   31  C   UNL     1      30.001  37.234  43.876  1.00  0.00     0.000 A 
HETATM   32  C   UNL     1      29.868  36.641  45.130  1.00  0.00     0.001 A 
HETATM   33  C   UNL     1      28.813  37.004  45.969  1.00  0.00     0.009 A 
ENDBRANCH  27  28
ENDBRANCH   8  27
TORSDOF 4
ENDMDL
