MODEL 1
REMARK VINA RESULT:      -9.0      0.000      0.000
REMARK  5 active torsions:
REMARK  status: ('A' for Active; 'I' for Inactive)
REMARK    1  A    between atoms: C_2  and  N_3 
REMARK    2  A    between atoms: C_2  and  C_19 
REMARK       I    between atoms: N_3  and  C_4 
REMARK    3  A    between atoms: C_4  and  C_5 
REMARK    4  A    between atoms: C_7  and  O_8 
REMARK    5  A    between atoms: O_8  and  C_9 
ROOT
HETATM    1  C   UNL     1      25.914  44.802  53.329  1.00  0.00     0.146 A 
HETATM    2  O   UNL     1      27.134  45.425  53.387  1.00  0.00    -0.282 OA
HETATM    3  C   UNL     1      27.763  45.011  54.519  1.00  0.00     0.191 A 
HETATM    4  C   UNL     1      26.962  44.125  55.205  1.00  0.00     0.067 A 
HETATM    5  C   UNL     1      25.775  43.990  54.442  1.00  0.00     0.048 A 
ENDROOT
BRANCH   1   6
HETATM    6  C   UNL     1      25.056  45.101  52.194  1.00  0.00     0.276 C 
HETATM    7  N   UNL     1      25.534  46.085  51.345  1.00  0.00    -0.347 N 
HETATM    8  H   UNL     1      26.335  46.626  51.631  1.00  0.00     0.163 HD
HETATM    9  O   UNL     1      23.986  44.537  51.982  1.00  0.00    -0.265 OA
BRANCH   7  10
HETATM   10  C   UNL     1      24.746  46.586  50.233  1.00  0.00     0.114 C 
HETATM   11  C   UNL     1      24.452  45.456  49.246  1.00  0.00     0.037 C 
BRANCH  10  12
HETATM   12  C   UNL     1      25.456  47.765  49.596  1.00  0.00    -0.033 A 
HETATM   13  C   UNL     1      24.705  48.778  48.987  1.00  0.00     0.028 A 
HETATM   14  C   UNL     1      25.365  49.857  48.422  1.00  0.00     0.116 A 
HETATM   15  N   UNL     1      26.706  50.003  48.428  1.00  0.00    -0.273 NA
HETATM   16  C   UNL     1      27.416  49.029  49.034  1.00  0.00     0.116 A 
HETATM   17  C   UNL     1      26.847  47.911  49.626  1.00  0.00     0.028 A 
ENDBRANCH  10  12
ENDBRANCH   7  10
ENDBRANCH   1   6
BRANCH   3  18
HETATM   18  O   UNL     1      28.967  45.553  54.691  1.00  0.00    -0.286 OA
BRANCH  18  19
HETATM   19  C   UNL     1      29.776  45.076  55.693  1.00  0.00     0.100 A 
HETATM   20  C   UNL     1      30.516  43.905  55.507  1.00  0.00     0.068 A 
HETATM   21 CL   UNL     1      30.499  43.053  54.008  1.00  0.00    -0.081 Cl
HETATM   22  C   UNL     1      31.301  43.408  56.551  1.00  0.00     0.026 A 
HETATM   23  C   UNL     1      31.336  44.075  57.778  1.00  0.00     0.002 A 
HETATM   24  C   UNL     1      30.582  45.234  57.967  1.00  0.00     0.003 A 
HETATM   25  C   UNL     1      29.795  45.731  56.928  1.00  0.00     0.039 A 
ENDBRANCH  18  19
ENDBRANCH   3  18
TORSDOF 5
ENDMDL
MODEL 2
REMARK VINA RESULT:      -8.8      3.316      7.852
REMARK  5 active torsions:
REMARK  status: ('A' for Active; 'I' for Inactive)
REMARK    1  A    between atoms: C_2  and  N_3 
REMARK    2  A    between atoms: C_2  and  C_19 
REMARK       I    between atoms: N_3  and  C_4 
REMARK    3  A    between atoms: C_4  and  C_5 
REMARK    4  A    between atoms: C_7  and  O_8 
REMARK    5  A    between atoms: O_8  and  C_9 
ROOT
HETATM    1  C   UNL     1      26.429  43.747  50.428  1.00  0.00     0.146 A 
HETATM    2  O   UNL     1      26.251  45.004  50.946  1.00  0.00    -0.282 OA
HETATM    3  C   UNL     1      25.308  45.636  50.199  1.00  0.00     0.191 A 
HETATM    4  C   UNL     1      24.871  44.804  49.191  1.00  0.00     0.067 A 
HETATM    5  C   UNL     1      25.589  43.590  49.338  1.00  0.00     0.048 A 
ENDROOT
BRANCH   1   6
HETATM    6  C   UNL     1      27.406  42.883  51.072  1.00  0.00     0.276 C 
HETATM    7  N   UNL     1      27.761  43.261  52.356  1.00  0.00    -0.347 N 
HETATM    8  H   UNL     1      27.459  44.158  52.699  1.00  0.00     0.163 HD
HETATM    9  O   UNL     1      27.892  41.888  50.540  1.00  0.00    -0.265 OA
BRANCH   7  10
HETATM   10  C   UNL     1      28.810  42.578  53.092  1.00  0.00     0.114 C 
HETATM   11  C   UNL     1      28.289  41.245  53.635  1.00  0.00     0.037 C 
BRANCH  10  12
HETATM   12  C   UNL     1      29.351  43.492  54.174  1.00  0.00    -0.033 A 
HETATM   13  C   UNL     1      28.655  44.662  54.503  1.00  0.00     0.028 A 
HETATM   14  C   UNL     1      29.152  45.481  55.505  1.00  0.00     0.116 A 
HETATM   15  N   UNL     1      30.277  45.215  56.202  1.00  0.00    -0.273 NA
HETATM   16  C   UNL     1      30.927  44.076  55.888  1.00  0.00     0.116 A 
HETATM   17  C   UNL     1      30.509  43.194  54.902  1.00  0.00     0.028 A 
ENDBRANCH  10  12
ENDBRANCH   7  10
ENDBRANCH   1   6
BRANCH   3  18
HETATM   18  O   UNL     1      25.047  46.876  50.603  1.00  0.00    -0.286 OA
BRANCH  18  19
HETATM   19  C   UNL     1      25.452  47.931  49.823  1.00  0.00     0.100 A 
HETATM   20  C   UNL     1      24.515  48.686  49.112  1.00  0.00     0.068 A 
HETATM   21 CL   UNL     1      22.824  48.372  49.231  1.00  0.00    -0.081 Cl
HETATM   22  C   UNL     1      24.946  49.729  48.288  1.00  0.00     0.026 A 
HETATM   23  C   UNL     1      26.310  50.008  48.169  1.00  0.00     0.002 A 
HETATM   24  C   UNL     1      27.245  49.243  48.867  1.00  0.00     0.003 A 
HETATM   25  C   UNL     1      26.818  48.198  49.688  1.00  0.00     0.039 A 
ENDBRANCH  18  19
ENDBRANCH   3  18
TORSDOF 5
ENDMDL
MODEL 3
REMARK VINA RESULT:      -8.8      1.677      2.049
REMARK  5 active torsions:
REMARK  status: ('A' for Active; 'I' for Inactive)
REMARK    1  A    between atoms: C_2  and  N_3 
REMARK    2  A    between atoms: C_2  and  C_19 
REMARK       I    between atoms: N_3  and  C_4 
REMARK    3  A    between atoms: C_4  and  C_5 
REMARK    4  A    between atoms: C_7  and  O_8 
REMARK    5  A    between atoms: O_8  and  C_9 
ROOT
HETATM    1  C   UNL     1      26.905  43.394  53.178  1.00  0.00     0.146 A 
HETATM    2  O   UNL     1      27.948  44.222  53.506  1.00  0.00    -0.282 OA
HETATM    3  C   UNL     1      29.018  43.445  53.822  1.00  0.00     0.191 A 
HETATM    4  C   UNL     1      28.682  42.114  53.709  1.00  0.00     0.067 A 
HETATM    5  C   UNL     1      27.326  42.080  53.295  1.00  0.00     0.048 A 
ENDROOT
BRANCH   1   6
HETATM    6  C   UNL     1      25.643  44.013  52.807  1.00  0.00     0.276 C 
HETATM    7  N   UNL     1      25.556  44.412  51.485  1.00  0.00    -0.347 N 
HETATM    8  H   UNL     1      26.388  44.398  50.917  1.00  0.00     0.163 HD
HETATM    9  O   UNL     1      24.709  44.178  53.589  1.00  0.00    -0.265 OA
BRANCH   7  10
HETATM   10  C   UNL     1      24.412  45.152  50.982  1.00  0.00     0.114 C 
HETATM   11  C   UNL     1      23.614  44.288  50.004  1.00  0.00     0.037 C 
BRANCH  10  12
HETATM   12  C   UNL     1      24.879  46.462  50.376  1.00  0.00    -0.033 A 
HETATM   13  C   UNL     1      23.954  47.297  49.738  1.00  0.00     0.028 A 
HETATM   14  C   UNL     1      24.390  48.498  49.202  1.00  0.00     0.116 A 
HETATM   15  N   UNL     1      25.669  48.927  49.264  1.00  0.00    -0.273 NA
HETATM   16  C   UNL     1      26.545  48.121  49.897  1.00  0.00     0.116 A 
HETATM   17  C   UNL     1      26.205  46.901  50.464  1.00  0.00     0.028 A 
ENDBRANCH  10  12
ENDBRANCH   7  10
ENDBRANCH   1   6
BRANCH   3  18
HETATM   18  O   UNL     1      30.101  44.138  54.164  1.00  0.00    -0.286 OA
BRANCH  18  19
HETATM   19  C   UNL     1      30.397  44.298  55.495  1.00  0.00     0.100 A 
HETATM   20  C   UNL     1      29.960  45.432  56.186  1.00  0.00     0.068 A 
HETATM   21 CL   UNL     1      28.986  46.635  55.425  1.00  0.00    -0.081 Cl
HETATM   22  C   UNL     1      30.307  45.602  57.529  1.00  0.00     0.026 A 
HETATM   23  C   UNL     1      31.095  44.647  58.174  1.00  0.00     0.002 A 
HETATM   24  C   UNL     1      31.545  43.524  57.478  1.00  0.00     0.003 A 
HETATM   25  C   UNL     1      31.203  43.353  56.135  1.00  0.00     0.039 A 
ENDBRANCH  18  19
ENDBRANCH   3  18
TORSDOF 5
ENDMDL
MODEL 4
REMARK VINA RESULT:      -8.5      2.077      2.949
REMARK  5 active torsions:
REMARK  status: ('A' for Active; 'I' for Inactive)
REMARK    1  A    between atoms: C_2  and  N_3 
REMARK    2  A    between atoms: C_2  and  C_19 
REMARK       I    between atoms: N_3  and  C_4 
REMARK    3  A    between atoms: C_4  and  C_5 
REMARK    4  A    between atoms: C_7  and  O_8 
REMARK    5  A    between atoms: O_8  and  C_9 
ROOT
HETATM    1  C   UNL     1      26.169  46.516  51.840  1.00  0.00     0.146 A 
HETATM    2  O   UNL     1      26.772  45.336  52.193  1.00  0.00    -0.282 OA
HETATM    3  C   UNL     1      26.691  45.210  53.544  1.00  0.00     0.191 A 
HETATM    4  C   UNL     1      26.045  46.302  54.080  1.00  0.00     0.067 A 
HETATM    5  C   UNL     1      25.708  47.141  52.987  1.00  0.00     0.048 A 
ENDROOT
BRANCH   1   6
HETATM    6  C   UNL     1      26.141  46.865  50.429  1.00  0.00     0.276 C 
HETATM    7  N   UNL     1      25.735  48.160  50.157  1.00  0.00    -0.347 N 
HETATM    8  H   UNL     1      25.347  48.715  50.903  1.00  0.00     0.163 HD
HETATM    9  O   UNL     1      26.451  46.088  49.529  1.00  0.00    -0.265 OA
BRANCH   7  10
HETATM   10  C   UNL     1      25.537  48.630  48.797  1.00  0.00     0.114 C 
HETATM   11  C   UNL     1      26.540  49.739  48.473  1.00  0.00     0.037 C 
BRANCH  10  12
HETATM   12  C   UNL     1      24.094  49.059  48.611  1.00  0.00    -0.033 A 
HETATM   13  C   UNL     1      23.811  50.289  48.006  1.00  0.00     0.028 A 
HETATM   14  C   UNL     1      22.488  50.662  47.827  1.00  0.00     0.116 A 
HETATM   15  N   UNL     1      21.438  49.900  48.197  1.00  0.00    -0.273 NA
HETATM   16  C   UNL     1      21.725  48.709  48.762  1.00  0.00     0.116 A 
HETATM   17  C   UNL     1      23.015  48.249  48.983  1.00  0.00     0.028 A 
ENDBRANCH  10  12
ENDBRANCH   7  10
ENDBRANCH   1   6
BRANCH   3  18
HETATM   18  O   UNL     1      27.249  44.096  54.012  1.00  0.00    -0.286 OA
BRANCH  18  19
HETATM   19  C   UNL     1      28.481  44.170  54.614  1.00  0.00     0.100 A 
HETATM   20  C   UNL     1      29.403  43.130  54.469  1.00  0.00     0.068 A 
HETATM   21 CL   UNL     1      29.066  41.754  53.485  1.00  0.00    -0.081 Cl
HETATM   22  C   UNL     1      30.636  43.199  55.123  1.00  0.00     0.026 A 
HETATM   23  C   UNL     1      30.940  44.300  55.927  1.00  0.00     0.002 A 
HETATM   24  C   UNL     1      30.011  45.330  56.085  1.00  0.00     0.003 A 
HETATM   25  C   UNL     1      28.778  45.262  55.435  1.00  0.00     0.039 A 
ENDBRANCH  18  19
ENDBRANCH   3  18
TORSDOF 5
ENDMDL
MODEL 5
REMARK VINA RESULT:      -8.5      3.368      8.611
REMARK  5 active torsions:
REMARK  status: ('A' for Active; 'I' for Inactive)
REMARK    1  A    between atoms: C_2  and  N_3 
REMARK    2  A    between atoms: C_2  and  C_19 
REMARK       I    between atoms: N_3  and  C_4 
REMARK    3  A    between atoms: C_4  and  C_5 
REMARK    4  A    between atoms: C_7  and  O_8 
REMARK    5  A    between atoms: O_8  and  C_9 
ROOT
HETATM    1  C   UNL     1      25.130  46.496  51.820  1.00  0.00     0.146 A 
HETATM    2  O   UNL     1      25.068  47.393  50.784  1.00  0.00    -0.282 OA
HETATM    3  C   UNL     1      24.447  46.785  49.739  1.00  0.00     0.191 A 
HETATM    4  C   UNL     1      24.107  45.494  50.080  1.00  0.00     0.067 A 
HETATM    5  C   UNL     1      24.544  45.308  51.416  1.00  0.00     0.048 A 
ENDROOT
BRANCH   1   6
HETATM    6  C   UNL     1      25.765  46.932  53.053  1.00  0.00     0.276 C 
HETATM    7  N   UNL     1      26.838  46.159  53.461  1.00  0.00    -0.347 N 
HETATM    8  H   UNL     1      27.016  45.286  52.991  1.00  0.00     0.163 HD
HETATM    9  O   UNL     1      25.396  47.909  53.701  1.00  0.00    -0.265 OA
BRANCH   7  10
HETATM   10  C   UNL     1      27.506  46.386  54.731  1.00  0.00     0.114 C 
HETATM   11  C   UNL     1      28.077  47.804  54.779  1.00  0.00     0.037 C 
BRANCH  10  12
HETATM   12  C   UNL     1      28.555  45.313  54.953  1.00  0.00    -0.033 A 
HETATM   13  C   UNL     1      29.598  45.544  55.859  1.00  0.00     0.028 A 
HETATM   14  C   UNL     1      30.541  44.550  56.065  1.00  0.00     0.116 A 
HETATM   15  N   UNL     1      30.514  43.350  55.447  1.00  0.00    -0.273 NA
HETATM   16  C   UNL     1      29.494  43.135  54.592  1.00  0.00     0.116 A 
HETATM   17  C   UNL     1      28.503  44.067  54.319  1.00  0.00     0.028 A 
ENDBRANCH  10  12
ENDBRANCH   7  10
ENDBRANCH   1   6
BRANCH   3  18
HETATM   18  O   UNL     1      24.329  47.559  48.663  1.00  0.00    -0.286 OA
BRANCH  18  19
HETATM   19  C   UNL     1      23.512  48.662  48.722  1.00  0.00     0.100 A 
HETATM   20  C   UNL     1      24.012  49.930  48.414  1.00  0.00     0.068 A 
HETATM   21 CL   UNL     1      25.640  50.157  47.892  1.00  0.00    -0.081 Cl
HETATM   22  C   UNL     1      23.181  51.048  48.520  1.00  0.00     0.026 A 
HETATM   23  C   UNL     1      21.858  50.898  48.942  1.00  0.00     0.002 A 
HETATM   24  C   UNL     1      21.365  49.633  49.264  1.00  0.00     0.003 A 
HETATM   25  C   UNL     1      22.193  48.515  49.162  1.00  0.00     0.039 A 
ENDBRANCH  18  19
ENDBRANCH   3  18
TORSDOF 5
ENDMDL
MODEL 6
REMARK VINA RESULT:      -8.3      4.078      6.085
REMARK  5 active torsions:
REMARK  status: ('A' for Active; 'I' for Inactive)
REMARK    1  A    between atoms: C_2  and  N_3 
REMARK    2  A    between atoms: C_2  and  C_19 
REMARK       I    between atoms: N_3  and  C_4 
REMARK    3  A    between atoms: C_4  and  C_5 
REMARK    4  A    between atoms: C_7  and  O_8 
REMARK    5  A    between atoms: O_8  and  C_9 
ROOT
HETATM    1  C   UNL     1      24.714  48.687  49.238  1.00  0.00     0.146 A 
HETATM    2  O   UNL     1      24.269  47.928  50.290  1.00  0.00    -0.282 OA
HETATM    3  C   UNL     1      25.353  47.388  50.907  1.00  0.00     0.191 A 
HETATM    4  C   UNL     1      26.506  47.784  50.264  1.00  0.00     0.067 A 
HETATM    5  C   UNL     1      26.097  48.618  49.193  1.00  0.00     0.048 A 
ENDROOT
BRANCH   1   6
HETATM    6  C   UNL     1      23.718  49.363  48.423  1.00  0.00     0.276 C 
HETATM    7  N   UNL     1      22.437  49.362  48.948  1.00  0.00    -0.347 N 
HETATM    8  H   UNL     1      22.241  48.784  49.749  1.00  0.00     0.163 HD
HETATM    9  O   UNL     1      23.969  49.902  47.348  1.00  0.00    -0.265 OA
BRANCH   7  10
HETATM   10  C   UNL     1      21.305  49.887  48.205  1.00  0.00     0.114 C 
HETATM   11  C   UNL     1      21.119  51.374  48.514  1.00  0.00     0.037 C 
BRANCH  10  12
HETATM   12  C   UNL     1      20.071  49.058  48.503  1.00  0.00    -0.033 A 
HETATM   13  C   UNL     1      19.572  49.004  49.811  1.00  0.00     0.028 A 
HETATM   14  C   UNL     1      18.435  48.255  50.066  1.00  0.00     0.116 A 
HETATM   15  N   UNL     1      17.760  47.570  49.120  1.00  0.00    -0.273 NA
HETATM   16  C   UNL     1      18.241  47.645  47.862  1.00  0.00     0.116 A 
HETATM   17  C   UNL     1      19.371  48.367  47.507  1.00  0.00     0.028 A 
ENDBRANCH  10  12
ENDBRANCH   7  10
ENDBRANCH   1   6
BRANCH   3  18
HETATM   18  O   UNL     1      25.048  46.621  51.950  1.00  0.00    -0.286 OA
BRANCH  18  19
HETATM   19  C   UNL     1      25.977  46.452  52.948  1.00  0.00     0.100 A 
HETATM   20  C   UNL     1      26.744  45.286  53.010  1.00  0.00     0.068 A 
HETATM   21 CL   UNL     1      26.608  44.050  51.815  1.00  0.00    -0.081 Cl
HETATM   22  C   UNL     1      27.654  45.109  54.056  1.00  0.00     0.026 A 
HETATM   23  C   UNL     1      27.787  46.091  55.040  1.00  0.00     0.002 A 
HETATM   24  C   UNL     1      27.008  47.247  54.986  1.00  0.00     0.003 A 
HETATM   25  C   UNL     1      26.096  47.425  53.944  1.00  0.00     0.039 A 
ENDBRANCH  18  19
ENDBRANCH   3  18
TORSDOF 5
ENDMDL
MODEL 7
REMARK VINA RESULT:      -8.2      4.812     10.020
REMARK  5 active torsions:
REMARK  status: ('A' for Active; 'I' for Inactive)
REMARK    1  A    between atoms: C_2  and  N_3 
REMARK    2  A    between atoms: C_2  and  C_19 
REMARK       I    between atoms: N_3  and  C_4 
REMARK    3  A    between atoms: C_4  and  C_5 
REMARK    4  A    between atoms: C_7  and  O_8 
REMARK    5  A    between atoms: O_8  and  C_9 
ROOT
HETATM    1  C   UNL     1      24.624  49.273  48.842  1.00  0.00     0.146 A 
HETATM    2  O   UNL     1      23.392  49.077  49.410  1.00  0.00    -0.282 OA
HETATM    3  C   UNL     1      22.560  50.050  48.956  1.00  0.00     0.191 A 
HETATM    4  C   UNL     1      23.239  50.887  48.098  1.00  0.00     0.067 A 
HETATM    5  C   UNL     1      24.564  50.388  48.023  1.00  0.00     0.048 A 
ENDROOT
BRANCH   1   6
HETATM    6  C   UNL     1      25.686  48.343  49.192  1.00  0.00     0.276 C 
HETATM    7  N   UNL     1      25.281  47.252  49.941  1.00  0.00    -0.347 N 
HETATM    8  H   UNL     1      24.348  47.242  50.321  1.00  0.00     0.163 HD
HETATM    9  O   UNL     1      26.859  48.491  48.858  1.00  0.00    -0.265 OA
BRANCH   7  10
HETATM   10  C   UNL     1      26.233  46.294  50.474  1.00  0.00     0.114 C 
HETATM   11  C   UNL     1      26.150  44.980  49.694  1.00  0.00     0.037 C 
BRANCH  10  12
HETATM   12  C   UNL     1      26.001  46.118  51.963  1.00  0.00    -0.033 A 
HETATM   13  C   UNL     1      25.572  44.879  52.455  1.00  0.00     0.028 A 
HETATM   14  C   UNL     1      25.379  44.727  53.818  1.00  0.00     0.116 A 
HETATM   15  N   UNL     1      25.589  45.710  54.719  1.00  0.00    -0.273 NA
HETATM   16  C   UNL     1      26.019  46.892  54.234  1.00  0.00     0.116 A 
HETATM   17  C   UNL     1      26.241  47.141  52.887  1.00  0.00     0.028 A 
ENDBRANCH  10  12
ENDBRANCH   7  10
ENDBRANCH   1   6
BRANCH   3  18
HETATM   18  O   UNL     1      21.324  49.969  49.443  1.00  0.00    -0.286 OA
BRANCH  18  19
HETATM   19  C   UNL     1      20.291  50.536  48.739  1.00  0.00     0.100 A 
HETATM   20  C   UNL     1      19.701  49.850  47.673  1.00  0.00     0.068 A 
HETATM   21 CL   UNL     1      20.194  48.255  47.242  1.00  0.00    -0.081 Cl
HETATM   22  C   UNL     1      18.680  50.457  46.938  1.00  0.00     0.026 A 
HETATM   23  C   UNL     1      18.258  51.749  47.261  1.00  0.00     0.002 A 
HETATM   24  C   UNL     1      18.860  52.439  48.315  1.00  0.00     0.003 A 
HETATM   25  C   UNL     1      19.882  51.836  49.049  1.00  0.00     0.039 A 
ENDBRANCH  18  19
ENDBRANCH   3  18
TORSDOF 5
ENDMDL
MODEL 8
REMARK VINA RESULT:      -8.1      2.659      3.756
REMARK  5 active torsions:
REMARK  status: ('A' for Active; 'I' for Inactive)
REMARK    1  A    between atoms: C_2  and  N_3 
REMARK    2  A    between atoms: C_2  and  C_19 
REMARK       I    between atoms: N_3  and  C_4 
REMARK    3  A    between atoms: C_4  and  C_5 
REMARK    4  A    between atoms: C_7  and  O_8 
REMARK    5  A    between atoms: O_8  and  C_9 
ROOT
HETATM    1  C   UNL     1      25.444  46.470  51.715  1.00  0.00     0.146 A 
HETATM    2  O   UNL     1      25.783  45.164  51.963  1.00  0.00    -0.282 OA
HETATM    3  C   UNL     1      26.116  45.059  53.276  1.00  0.00     0.191 A 
HETATM    4  C   UNL     1      26.003  46.287  53.890  1.00  0.00     0.067 A 
HETATM    5  C   UNL     1      25.571  47.194  52.889  1.00  0.00     0.048 A 
ENDROOT
BRANCH   1   6
HETATM    6  C   UNL     1      25.054  46.820  50.359  1.00  0.00     0.276 C 
HETATM    7  N   UNL     1      24.996  48.179  50.102  1.00  0.00    -0.347 N 
HETATM    8  H   UNL     1      25.068  48.823  50.873  1.00  0.00     0.163 HD
HETATM    9  O   UNL     1      24.793  45.992  49.489  1.00  0.00    -0.265 OA
BRANCH   7  10
HETATM   10  C   UNL     1      24.508  48.699  48.837  1.00  0.00     0.114 C 
HETATM   11  C   UNL     1      25.445  49.793  48.321  1.00  0.00     0.037 C 
BRANCH  10  12
HETATM   12  C   UNL     1      23.075  49.169  48.997  1.00  0.00    -0.033 A 
HETATM   13  C   UNL     1      22.033  48.234  48.964  1.00  0.00     0.028 A 
HETATM   14  C   UNL     1      20.729  48.674  49.127  1.00  0.00     0.116 A 
HETATM   15  N   UNL     1      20.393  49.965  49.329  1.00  0.00    -0.273 NA
HETATM   16  C   UNL     1      21.408  50.853  49.377  1.00  0.00     0.116 A 
HETATM   17  C   UNL     1      22.743  50.509  49.224  1.00  0.00     0.028 A 
ENDBRANCH  10  12
ENDBRANCH   7  10
ENDBRANCH   1   6
BRANCH   3  18
HETATM   18  O   UNL     1      26.470  43.829  53.642  1.00  0.00    -0.286 OA
BRANCH  18  19
HETATM   19  C   UNL     1      27.801  43.494  53.654  1.00  0.00     0.100 A 
HETATM   20  C   UNL     1      28.326  42.645  52.676  1.00  0.00     0.068 A 
HETATM   21 CL   UNL     1      27.353  42.040  51.388  1.00  0.00    -0.081 Cl
HETATM   22  C   UNL     1      29.674  42.279  52.726  1.00  0.00     0.026 A 
HETATM   23  C   UNL     1      30.489  42.752  53.757  1.00  0.00     0.002 A 
HETATM   24  C   UNL     1      29.959  43.586  54.742  1.00  0.00     0.003 A 
HETATM   25  C   UNL     1      28.613  43.951  54.696  1.00  0.00     0.039 A 
ENDBRANCH  18  19
ENDBRANCH   3  18
TORSDOF 5
ENDMDL
MODEL 9
REMARK VINA RESULT:      -8.0      3.811      5.288
REMARK  5 active torsions:
REMARK  status: ('A' for Active; 'I' for Inactive)
REMARK    1  A    between atoms: C_2  and  N_3 
REMARK    2  A    between atoms: C_2  and  C_19 
REMARK       I    between atoms: N_3  and  C_4 
REMARK    3  A    between atoms: C_4  and  C_5 
REMARK    4  A    between atoms: C_7  and  O_8 
REMARK    5  A    between atoms: O_8  and  C_9 
ROOT
HETATM    1  C   UNL     1      25.022  47.269  50.168  1.00  0.00     0.146 A 
HETATM    2  O   UNL     1      24.840  47.138  51.521  1.00  0.00    -0.282 OA
HETATM    3  C   UNL     1      25.618  46.111  51.952  1.00  0.00     0.191 A 
HETATM    4  C   UNL     1      26.306  45.565  50.890  1.00  0.00     0.067 A 
HETATM    5  C   UNL     1      25.925  46.308  49.744  1.00  0.00     0.048 A 
ENDROOT
BRANCH   1   6
HETATM    6  C   UNL     1      24.276  48.314  49.484  1.00  0.00     0.276 C 
HETATM    7  N   UNL     1      22.927  48.363  49.791  1.00  0.00    -0.347 N 
HETATM    8  H   UNL     1      22.522  47.610  50.324  1.00  0.00     0.163 HD
HETATM    9  O   UNL     1      24.782  49.105  48.692  1.00  0.00    -0.265 OA
BRANCH   7  10
HETATM   10  C   UNL     1      22.019  49.267  49.107  1.00  0.00     0.114 C 
HETATM   11  C   UNL     1      22.032  50.638  49.784  1.00  0.00     0.037 C 
BRANCH  10  12
HETATM   12  C   UNL     1      20.636  48.647  49.042  1.00  0.00    -0.033 A 
HETATM   13  C   UNL     1      19.651  49.060  49.948  1.00  0.00     0.028 A 
HETATM   14  C   UNL     1      18.387  48.497  49.868  1.00  0.00     0.116 A 
HETATM   15  N   UNL     1      18.035  47.569  48.953  1.00  0.00    -0.273 NA
HETATM   16  C   UNL     1      18.989  47.194  48.076  1.00  0.00     0.116 A 
HETATM   17  C   UNL     1      20.281  47.699  48.076  1.00  0.00     0.028 A 
ENDBRANCH  10  12
ENDBRANCH   7  10
ENDBRANCH   1   6
BRANCH   3  18
HETATM   18  O   UNL     1      25.525  45.880  53.259  1.00  0.00    -0.286 OA
BRANCH  18  19
HETATM   19  C   UNL     1      26.675  45.810  54.007  1.00  0.00     0.100 A 
HETATM   20  C   UNL     1      27.074  46.894  54.794  1.00  0.00     0.068 A 
HETATM   21 CL   UNL     1      26.120  48.326  54.911  1.00  0.00    -0.081 Cl
HETATM   22  C   UNL     1      28.268  46.825  55.516  1.00  0.00     0.026 A 
HETATM   23  C   UNL     1      29.064  45.679  55.442  1.00  0.00     0.002 A 
HETATM   24  C   UNL     1      28.673  44.605  54.642  1.00  0.00     0.003 A 
HETATM   25  C   UNL     1      27.482  44.672  53.918  1.00  0.00     0.039 A 
ENDBRANCH  18  19
ENDBRANCH   3  18
TORSDOF 5
ENDMDL
MODEL 10
REMARK VINA RESULT:      -8.0      4.040      5.438
REMARK  5 active torsions:
REMARK  status: ('A' for Active; 'I' for Inactive)
REMARK    1  A    between atoms: C_2  and  N_3 
REMARK    2  A    between atoms: C_2  and  C_19 
REMARK       I    between atoms: N_3  and  C_4 
REMARK    3  A    between atoms: C_4  and  C_5 
REMARK    4  A    between atoms: C_7  and  O_8 
REMARK    5  A    between atoms: O_8  and  C_9 
ROOT
HETATM    1  C   UNL     1      26.853  43.847  52.716  1.00  0.00     0.146 A 
HETATM    2  O   UNL     1      27.969  44.593  52.992  1.00  0.00    -0.282 OA
HETATM    3  C   UNL     1      27.977  44.862  54.324  1.00  0.00     0.191 A 
HETATM    4  C   UNL     1      26.870  44.301  54.923  1.00  0.00     0.067 A 
HETATM    5  C   UNL     1      26.148  43.648  53.892  1.00  0.00     0.048 A 
ENDROOT
BRANCH   1   6
HETATM    6  C   UNL     1      26.634  43.443  51.336  1.00  0.00     0.276 C 
HETATM    7  N   UNL     1      26.782  42.088  51.095  1.00  0.00    -0.347 N 
HETATM    8  H   UNL     1      27.171  41.505  51.818  1.00  0.00     0.163 HD
HETATM    9  O   UNL     1      26.337  44.225  50.437  1.00  0.00    -0.265 OA
BRANCH   7  10
HETATM   10  C   UNL     1      26.716  41.538  49.752  1.00  0.00     0.114 C 
HETATM   11  C   UNL     1      25.273  41.164  49.408  1.00  0.00     0.037 C 
BRANCH  10  12
HETATM   12  C   UNL     1      27.679  40.373  49.631  1.00  0.00    -0.033 A 
HETATM   13  C   UNL     1      28.419  39.968  50.749  1.00  0.00     0.028 A 
HETATM   14  C   UNL     1      29.284  38.892  50.629  1.00  0.00     0.116 A 
HETATM   15  N   UNL     1      29.456  38.191  49.489  1.00  0.00    -0.273 NA
HETATM   16  C   UNL     1      28.723  38.580  48.425  1.00  0.00     0.116 A 
HETATM   17  C   UNL     1      27.833  39.644  48.446  1.00  0.00     0.028 A 
ENDBRANCH  10  12
ENDBRANCH   7  10
ENDBRANCH   1   6
BRANCH   3  18
HETATM   18  O   UNL     1      29.018  45.591  54.717  1.00  0.00    -0.286 OA
BRANCH  18  19
HETATM   19  C   UNL     1      29.796  45.137  55.754  1.00  0.00     0.100 A 
HETATM   20  C   UNL     1      30.547  43.966  55.615  1.00  0.00     0.068 A 
HETATM   21 CL   UNL     1      30.582  43.085  54.133  1.00  0.00    -0.081 Cl
HETATM   22  C   UNL     1      31.299  43.492  56.693  1.00  0.00     0.026 A 
HETATM   23  C   UNL     1      31.292  44.182  57.908  1.00  0.00     0.002 A 
HETATM   24  C   UNL     1      30.528  45.342  58.050  1.00  0.00     0.003 A 
HETATM   25  C   UNL     1      29.773  45.815  56.976  1.00  0.00     0.039 A 
ENDBRANCH  18  19
ENDBRANCH   3  18
TORSDOF 5
ENDMDL
