MODEL 1
REMARK VINA RESULT:      -7.8      0.000      0.000
REMARK  4 active torsions:
REMARK  status: ('A' for Active; 'I' for Inactive)
REMARK    1  A    between atoms: O_2  and  C_3 
REMARK    2  A    between atoms: C_4  and  O_5 
REMARK    3  A    between atoms: C_6  and  C_7 
REMARK    4  A    between atoms: C_7  and  N_8 
ROOT
HETATM    1  N   UNL     1      27.432  42.992  52.782  1.00  0.00    -0.066 N 
HETATM    2  H   UNL     1      27.790  42.392  53.548  1.00  0.00     0.280 HD
HETATM    3  C   UNL     1      26.043  43.383  53.243  1.00  0.00     0.246 C 
HETATM    4  C   UNL     1      25.112  43.809  52.093  1.00  0.00     0.062 C 
HETATM    5  C   UNL     1      25.062  42.707  51.042  1.00  0.00     0.020 C 
HETATM    6  C   UNL     1      26.462  42.562  50.464  1.00  0.00     0.031 C 
HETATM    7  C   UNL     1      26.846  43.860  49.749  1.00  0.00     0.138 C 
HETATM    8  N   UNL     1      26.443  45.106  50.404  1.00  0.00    -0.317 N 
HETATM    9  C   UNL     1      25.552  45.122  51.480  1.00  0.00     0.020 A 
HETATM   10  C   UNL     1      25.115  46.297  51.969  1.00  0.00     0.026 A 
HETATM   11  C   UNL     1      26.919  46.285  49.810  1.00  0.00     0.247 A 
HETATM   12  O   UNL     1      27.728  46.305  48.889  1.00  0.00    -0.268 OA
HETATM   13  C   UNL     1      26.422  47.560  50.382  1.00  0.00     0.074 A 
HETATM   14  C   UNL     1      25.562  47.544  51.405  1.00  0.00     0.007 A 
HETATM   15  C   UNL     1      27.461  42.134  51.548  1.00  0.00     0.241 C 
ENDROOT
BRANCH   1  16
HETATM   16  C   UNL     1      28.484  44.086  52.807  1.00  0.00     0.276 C 
BRANCH  16  17
HETATM   17  C   UNL     1      28.524  44.876  54.086  1.00  0.00     0.005 A 
HETATM   18  C   UNL     1      29.410  44.549  55.117  1.00  0.00     0.107 A 
HETATM   19  C   UNL     1      29.486  45.293  56.303  1.00  0.00     0.103 A 
HETATM   20  C   UNL     1      28.648  46.393  56.463  1.00  0.00     0.058 A 
HETATM   21  C   UNL     1      27.758  46.734  55.442  1.00  0.00     0.014 A 
HETATM   22  C   UNL     1      27.695  45.992  54.259  1.00  0.00     0.030 A 
HETATM   23 BR   UNL     1      26.613  48.224  55.659  1.00  0.00    -0.051 Br
BRANCH  18  24
HETATM   24  O   UNL     1      30.215  43.442  54.964  1.00  0.00    -0.357 OA
HETATM   25  H   UNL     1      29.653  42.693  55.273  1.00  0.00     0.218 HD
ENDBRANCH  18  24
BRANCH  19  26
HETATM   26  O   UNL     1      30.402  44.828  57.208  1.00  0.00    -0.353 OA
HETATM   27  C   UNL     1      30.591  45.613  58.385  1.00  0.00     0.210 C 
ENDBRANCH  19  26
ENDBRANCH  16  17
ENDBRANCH   1  16
TORSDOF 4
ENDMDL
MODEL 2
REMARK VINA RESULT:      -7.7     12.896     14.424
REMARK  4 active torsions:
REMARK  status: ('A' for Active; 'I' for Inactive)
REMARK    1  A    between atoms: O_2  and  C_3 
REMARK    2  A    between atoms: C_4  and  O_5 
REMARK    3  A    between atoms: C_6  and  C_7 
REMARK    4  A    between atoms: C_7  and  N_8 
ROOT
HETATM    1  N   UNL     1      27.525  51.014  40.669  1.00  0.00    -0.066 N 
HETATM    2  H   UNL     1      26.497  50.885  40.710  1.00  0.00     0.280 HD
HETATM    3  C   UNL     1      27.747  52.378  41.289  1.00  0.00     0.246 C 
HETATM    4  C   UNL     1      29.079  53.031  40.874  1.00  0.00     0.062 C 
HETATM    5  C   UNL     1      29.168  53.087  39.354  1.00  0.00     0.020 C 
HETATM    6  C   UNL     1      29.186  51.653  38.845  1.00  0.00     0.031 C 
HETATM    7  C   UNL     1      30.451  50.955  39.353  1.00  0.00     0.138 C 
HETATM    8  N   UNL     1      30.847  51.254  40.731  1.00  0.00    -0.317 N 
HETATM    9  C   UNL     1      30.264  52.294  41.461  1.00  0.00     0.020 A 
HETATM   10  C   UNL     1      30.746  52.610  42.676  1.00  0.00     0.026 A 
HETATM   11  C   UNL     1      31.926  50.506  41.228  1.00  0.00     0.247 A 
HETATM   12  O   UNL     1      32.435  49.566  40.629  1.00  0.00    -0.268 OA
HETATM   13  C   UNL     1      32.424  50.878  42.574  1.00  0.00     0.074 A 
HETATM   14  C   UNL     1      31.852  51.884  43.245  1.00  0.00     0.007 A 
HETATM   15  C   UNL     1      27.887  50.924  39.213  1.00  0.00     0.241 C 
ENDROOT
BRANCH   1  16
HETATM   16  C   UNL     1      27.960  49.818  41.497  1.00  0.00     0.276 C 
BRANCH  16  17
HETATM   17  C   UNL     1      27.593  48.487  40.902  1.00  0.00     0.005 A 
HETATM   18  C   UNL     1      28.565  47.521  40.622  1.00  0.00     0.107 A 
HETATM   19  C   UNL     1      28.240  46.262  40.098  1.00  0.00     0.103 A 
HETATM   20  C   UNL     1      26.904  45.963  39.843  1.00  0.00     0.058 A 
HETATM   21  C   UNL     1      25.921  46.916  40.119  1.00  0.00     0.014 A 
HETATM   22  C   UNL     1      26.253  48.166  40.649  1.00  0.00     0.030 A 
HETATM   23 BR   UNL     1      24.106  46.514  39.768  1.00  0.00    -0.051 Br
BRANCH  18  24
HETATM   24  O   UNL     1      29.886  47.836  40.849  1.00  0.00    -0.357 OA
HETATM   25  H   UNL     1      29.972  48.761  40.519  1.00  0.00     0.218 HD
ENDBRANCH  18  24
BRANCH  19  26
HETATM   26  O   UNL     1      29.315  45.444  39.877  1.00  0.00    -0.353 OA
HETATM   27  C   UNL     1      29.286  44.661  38.685  1.00  0.00     0.210 C 
ENDBRANCH  19  26
ENDBRANCH  16  17
ENDBRANCH   1  16
TORSDOF 4
ENDMDL
MODEL 3
REMARK VINA RESULT:      -7.7     13.358     15.628
REMARK  4 active torsions:
REMARK  status: ('A' for Active; 'I' for Inactive)
REMARK    1  A    between atoms: O_2  and  C_3 
REMARK    2  A    between atoms: C_4  and  O_5 
REMARK    3  A    between atoms: C_6  and  C_7 
REMARK    4  A    between atoms: C_7  and  N_8 
ROOT
HETATM    1  N   UNL     1      28.754  52.175  39.635  1.00  0.00    -0.066 N 
HETATM    2  H   UNL     1      27.864  52.423  39.163  1.00  0.00     0.280 HD
HETATM    3  C   UNL     1      28.314  51.569  40.951  1.00  0.00     0.246 C 
HETATM    4  C   UNL     1      29.401  51.611  42.040  1.00  0.00     0.062 C 
HETATM    5  C   UNL     1      29.888  53.044  42.219  1.00  0.00     0.020 C 
HETATM    6  C   UNL     1      30.537  53.473  40.912  1.00  0.00     0.031 C 
HETATM    7  C   UNL     1      31.768  52.600  40.651  1.00  0.00     0.138 C 
HETATM    8  N   UNL     1      31.635  51.178  40.978  1.00  0.00    -0.317 N 
HETATM    9  C   UNL     1      30.553  50.684  41.711  1.00  0.00     0.020 A 
HETATM   10  C   UNL     1      30.537  49.394  42.093  1.00  0.00     0.026 A 
HETATM   11  C   UNL     1      32.719  50.367  40.608  1.00  0.00     0.247 A 
HETATM   12  O   UNL     1      33.666  50.761  39.936  1.00  0.00    -0.268 OA
HETATM   13  C   UNL     1      32.662  48.950  41.040  1.00  0.00     0.074 A 
HETATM   14  C   UNL     1      31.617  48.508  41.748  1.00  0.00     0.007 A 
HETATM   15  C   UNL     1      29.517  53.463  39.765  1.00  0.00     0.241 C 
ENDROOT
BRANCH   1  16
HETATM   16  C   UNL     1      29.321  51.213  38.606  1.00  0.00     0.276 C 
BRANCH  16  17
HETATM   17  C   UNL     1      28.593  49.900  38.518  1.00  0.00     0.005 A 
HETATM   18  C   UNL     1      27.263  49.832  38.094  1.00  0.00     0.107 A 
HETATM   19  C   UNL     1      26.576  48.615  37.975  1.00  0.00     0.103 A 
HETATM   20  C   UNL     1      27.240  47.433  38.292  1.00  0.00     0.058 A 
HETATM   21  C   UNL     1      28.570  47.483  38.716  1.00  0.00     0.014 A 
HETATM   22  C   UNL     1      29.249  48.701  38.824  1.00  0.00     0.030 A 
HETATM   23 BR   UNL     1      29.472  45.880  39.154  1.00  0.00    -0.051 Br
BRANCH  18  24
HETATM   24  O   UNL     1      26.604  51.008  37.810  1.00  0.00    -0.357 OA
HETATM   25  H   UNL     1      26.869  51.214  36.884  1.00  0.00     0.218 HD
ENDBRANCH  18  24
BRANCH  19  26
HETATM   26  O   UNL     1      25.279  48.733  37.554  1.00  0.00    -0.353 OA
HETATM   27  C   UNL     1      24.273  48.252  38.444  1.00  0.00     0.210 C 
ENDBRANCH  19  26
ENDBRANCH  16  17
ENDBRANCH   1  16
TORSDOF 4
ENDMDL
MODEL 4
REMARK VINA RESULT:      -7.5     12.721     13.811
REMARK  4 active torsions:
REMARK  status: ('A' for Active; 'I' for Inactive)
REMARK    1  A    between atoms: O_2  and  C_3 
REMARK    2  A    between atoms: C_4  and  O_5 
REMARK    3  A    between atoms: C_6  and  C_7 
REMARK    4  A    between atoms: C_7  and  N_8 
ROOT
HETATM    1  N   UNL     1      31.417  48.370  41.028  1.00  0.00    -0.066 N 
HETATM    2  H   UNL     1      32.194  47.864  41.492  1.00  0.00     0.280 HD
HETATM    3  C   UNL     1      30.444  48.658  42.152  1.00  0.00     0.246 C 
HETATM    4  C   UNL     1      29.004  48.909  41.668  1.00  0.00     0.062 C 
HETATM    5  C   UNL     1      28.540  47.735  40.815  1.00  0.00     0.020 C 
HETATM    6  C   UNL     1      29.432  47.685  39.583  1.00  0.00     0.031 C 
HETATM    7  C   UNL     1      29.224  48.959  38.760  1.00  0.00     0.138 C 
HETATM    8  N   UNL     1      29.081  50.204  39.518  1.00  0.00    -0.317 N 
HETATM    9  C   UNL     1      28.895  50.212  40.903  1.00  0.00     0.020 A 
HETATM   10  C   UNL     1      28.644  51.371  41.538  1.00  0.00     0.026 A 
HETATM   11  C   UNL     1      29.028  51.379  38.751  1.00  0.00     0.247 A 
HETATM   12  O   UNL     1      29.222  51.410  37.541  1.00  0.00    -0.268 OA
HETATM   13  C   UNL     1      28.758  52.637  39.487  1.00  0.00     0.074 A 
HETATM   14  C   UNL     1      28.575  52.611  40.812  1.00  0.00     0.007 A 
HETATM   15  C   UNL     1      30.894  47.433  39.975  1.00  0.00     0.241 C 
ENDROOT
BRANCH   1  16
HETATM   16  C   UNL     1      32.186  49.560  40.480  1.00  0.00     0.276 C 
BRANCH  16  17
HETATM   17  C   UNL     1      33.013  50.287  41.505  1.00  0.00     0.005 A 
HETATM   18  C   UNL     1      34.392  50.450  41.344  1.00  0.00     0.107 A 
HETATM   19  C   UNL     1      35.175  51.152  42.271  1.00  0.00     0.103 A 
HETATM   20  C   UNL     1      34.561  51.703  43.392  1.00  0.00     0.058 A 
HETATM   21  C   UNL     1      33.183  51.551  43.566  1.00  0.00     0.014 A 
HETATM   22  C   UNL     1      32.409  50.856  42.633  1.00  0.00     0.030 A 
HETATM   23 BR   UNL     1      32.346  52.293  45.091  1.00  0.00    -0.051 Br
BRANCH  18  24
HETATM   24  O   UNL     1      34.997  49.876  40.248  1.00  0.00    -0.357 OA
HETATM   25  H   UNL     1      35.960  50.013  40.407  1.00  0.00     0.218 HD
ENDBRANCH  18  24
BRANCH  19  26
HETATM   26  O   UNL     1      36.508  51.208  41.962  1.00  0.00    -0.353 OA
HETATM   27  C   UNL     1      37.390  50.466  42.804  1.00  0.00     0.210 C 
ENDBRANCH  19  26
ENDBRANCH  16  17
ENDBRANCH   1  16
TORSDOF 4
ENDMDL
MODEL 5
REMARK VINA RESULT:      -7.4      6.666      9.605
REMARK  4 active torsions:
REMARK  status: ('A' for Active; 'I' for Inactive)
REMARK    1  A    between atoms: O_2  and  C_3 
REMARK    2  A    between atoms: C_4  and  O_5 
REMARK    3  A    between atoms: C_6  and  C_7 
REMARK    4  A    between atoms: C_7  and  N_8 
ROOT
HETATM    1  N   UNL     1      21.467  50.708  49.037  1.00  0.00    -0.066 N 
HETATM    2  H   UNL     1      22.408  51.122  49.175  1.00  0.00     0.280 HD
HETATM    3  C   UNL     1      20.741  51.727  48.184  1.00  0.00     0.246 C 
HETATM    4  C   UNL     1      19.207  51.628  48.281  1.00  0.00     0.062 C 
HETATM    5  C   UNL     1      18.781  51.716  49.741  1.00  0.00     0.020 C 
HETATM    6  C   UNL     1      19.362  50.508  50.460  1.00  0.00     0.031 C 
HETATM    7  C   UNL     1      18.745  49.233  49.879  1.00  0.00     0.138 C 
HETATM    8  N   UNL     1      18.556  49.207  48.427  1.00  0.00    -0.317 N 
HETATM    9  C   UNL     1      18.692  50.355  47.642  1.00  0.00     0.020 A 
HETATM   10  C   UNL     1      18.388  50.309  46.332  1.00  0.00     0.026 A 
HETATM   11  C   UNL     1      18.117  47.985  47.894  1.00  0.00     0.247 A 
HETATM   12  O   UNL     1      18.021  46.953  48.548  1.00  0.00    -0.268 OA
HETATM   13  C   UNL     1      17.800  47.972  46.446  1.00  0.00     0.074 A 
HETATM   14  C   UNL     1      17.931  49.088  45.722  1.00  0.00     0.007 A 
HETATM   15  C   UNL     1      20.896  50.528  50.416  1.00  0.00     0.241 C 
ENDROOT
BRANCH   1  16
HETATM   16  C   UNL     1      21.862  49.413  48.350  1.00  0.00     0.276 C 
BRANCH  16  17
HETATM   17  C   UNL     1      23.212  48.885  48.753  1.00  0.00     0.005 A 
HETATM   18  C   UNL     1      24.388  49.561  48.417  1.00  0.00     0.107 A 
HETATM   19  C   UNL     1      25.653  49.103  48.811  1.00  0.00     0.103 A 
HETATM   20  C   UNL     1      25.743  47.934  49.561  1.00  0.00     0.058 A 
HETATM   21  C   UNL     1      24.577  47.247  49.907  1.00  0.00     0.014 A 
HETATM   22  C   UNL     1      23.319  47.715  49.516  1.00  0.00     0.030 A 
HETATM   23 BR   UNL     1      24.696  45.655  50.920  1.00  0.00    -0.051 Br
BRANCH  18  24
HETATM   24  O   UNL     1      24.293  50.701  47.650  1.00  0.00    -0.357 OA
HETATM   25  H   UNL     1      24.793  51.378  48.163  1.00  0.00     0.218 HD
ENDBRANCH  18  24
BRANCH  19  26
HETATM   26  O   UNL     1      26.697  49.882  48.389  1.00  0.00    -0.353 OA
HETATM   27  C   UNL     1      27.953  49.669  49.030  1.00  0.00     0.210 C 
ENDBRANCH  19  26
ENDBRANCH  16  17
ENDBRANCH   1  16
TORSDOF 4
ENDMDL
MODEL 6
REMARK VINA RESULT:      -7.4     13.448     15.480
REMARK  4 active torsions:
REMARK  status: ('A' for Active; 'I' for Inactive)
REMARK    1  A    between atoms: O_2  and  C_3 
REMARK    2  A    between atoms: C_4  and  O_5 
REMARK    3  A    between atoms: C_6  and  C_7 
REMARK    4  A    between atoms: C_7  and  N_8 
ROOT
HETATM    1  N   UNL     1      32.501  49.828  41.753  1.00  0.00    -0.066 N 
HETATM    2  H   UNL     1      33.275  49.713  42.433  1.00  0.00     0.280 HD
HETATM    3  C   UNL     1      31.260  49.898  42.618  1.00  0.00     0.246 C 
HETATM    4  C   UNL     1      29.966  49.533  41.866  1.00  0.00     0.062 C 
HETATM    5  C   UNL     1      30.121  48.162  41.220  1.00  0.00     0.020 C 
HETATM    6  C   UNL     1      31.234  48.266  40.187  1.00  0.00     0.031 C 
HETATM    7  C   UNL     1      30.810  49.246  39.089  1.00  0.00     0.138 C 
HETATM    8  N   UNL     1      30.097  50.446  39.531  1.00  0.00    -0.317 N 
HETATM    9  C   UNL     1      29.611  50.582  40.834  1.00  0.00     0.020 A 
HETATM   10  C   UNL     1      28.855  51.647  41.158  1.00  0.00     0.026 A 
HETATM   11  C   UNL     1      29.835  51.398  38.533  1.00  0.00     0.247 A 
HETATM   12  O   UNL     1      30.277  51.326  37.391  1.00  0.00    -0.268 OA
HETATM   13  C   UNL     1      29.007  52.562  38.930  1.00  0.00     0.074 A 
HETATM   14  C   UNL     1      28.548  52.660  40.182  1.00  0.00     0.007 A 
HETATM   15  C   UNL     1      32.569  48.625  40.854  1.00  0.00     0.241 C 
ENDROOT
BRANCH   1  16
HETATM   16  C   UNL     1      32.938  51.125  41.095  1.00  0.00     0.276 C 
BRANCH  16  17
HETATM   17  C   UNL     1      34.417  51.221  40.838  1.00  0.00     0.005 A 
HETATM   18  C   UNL     1      34.915  51.708  39.626  1.00  0.00     0.107 A 
HETATM   19  C   UNL     1      36.289  51.836  39.379  1.00  0.00     0.103 A 
HETATM   20  C   UNL     1      37.190  51.461  40.373  1.00  0.00     0.058 A 
HETATM   21  C   UNL     1      36.709  50.975  41.590  1.00  0.00     0.014 A 
HETATM   22  C   UNL     1      35.336  50.858  41.831  1.00  0.00     0.030 A 
HETATM   23 BR   UNL     1      37.930  50.459  42.939  1.00  0.00    -0.051 Br
BRANCH  18  24
HETATM   24  O   UNL     1      34.019  52.048  38.638  1.00  0.00    -0.357 OA
HETATM   25  H   UNL     1      34.588  52.270  37.864  1.00  0.00     0.218 HD
ENDBRANCH  18  24
BRANCH  19  26
HETATM   26  O   UNL     1      36.601  52.322  38.138  1.00  0.00    -0.353 OA
HETATM   27  C   UNL     1      37.965  52.213  37.734  1.00  0.00     0.210 C 
ENDBRANCH  19  26
ENDBRANCH  16  17
ENDBRANCH   1  16
TORSDOF 4
ENDMDL
MODEL 7
REMARK VINA RESULT:      -7.4     12.941     15.083
REMARK  4 active torsions:
REMARK  status: ('A' for Active; 'I' for Inactive)
REMARK    1  A    between atoms: O_2  and  C_3 
REMARK    2  A    between atoms: C_4  and  O_5 
REMARK    3  A    between atoms: C_6  and  C_7 
REMARK    4  A    between atoms: C_7  and  N_8 
ROOT
HETATM    1  N   UNL     1      31.921  48.976  40.084  1.00  0.00    -0.066 N 
HETATM    2  H   UNL     1      32.529  48.306  39.576  1.00  0.00     0.280 HD
HETATM    3  C   UNL     1      32.881  50.041  40.574  1.00  0.00     0.246 C 
HETATM    4  C   UNL     1      32.347  50.841  41.776  1.00  0.00     0.062 C 
HETATM    5  C   UNL     1      31.957  49.882  42.895  1.00  0.00     0.020 C 
HETATM    6  C   UNL     1      30.815  49.019  42.379  1.00  0.00     0.031 C 
HETATM    7  C   UNL     1      29.601  49.910  42.095  1.00  0.00     0.138 C 
HETATM    8  N   UNL     1      29.881  51.209  41.480  1.00  0.00    -0.317 N 
HETATM    9  C   UNL     1      31.178  51.720  41.383  1.00  0.00     0.020 A 
HETATM   10  C   UNL     1      31.372  52.970  40.925  1.00  0.00     0.026 A 
HETATM   11  C   UNL     1      28.754  51.956  41.101  1.00  0.00     0.247 A 
HETATM   12  O   UNL     1      27.607  51.524  41.140  1.00  0.00    -0.268 OA
HETATM   13  C   UNL     1      29.009  53.325  40.592  1.00  0.00     0.074 A 
HETATM   14  C   UNL     1      30.261  53.790  40.520  1.00  0.00     0.007 A 
HETATM   15  C   UNL     1      31.262  48.180  41.175  1.00  0.00     0.241 C 
ENDROOT
BRANCH   1  16
HETATM   16  C   UNL     1      30.991  49.377  38.952  1.00  0.00     0.276 C 
BRANCH  16  17
HETATM   17  C   UNL     1      29.866  48.410  38.704  1.00  0.00     0.005 A 
HETATM   18  C   UNL     1      28.552  48.852  38.525  1.00  0.00     0.107 A 
HETATM   19  C   UNL     1      27.495  47.969  38.261  1.00  0.00     0.103 A 
HETATM   20  C   UNL     1      27.761  46.605  38.177  1.00  0.00     0.058 A 
HETATM   21  C   UNL     1      29.069  46.147  38.351  1.00  0.00     0.014 A 
HETATM   22  C   UNL     1      30.118  47.035  38.607  1.00  0.00     0.030 A 
HETATM   23 BR   UNL     1      29.433  44.294  38.244  1.00  0.00    -0.051 Br
BRANCH  18  24
HETATM   24  O   UNL     1      28.292  50.199  38.640  1.00  0.00    -0.357 OA
HETATM   25  H   UNL     1      28.202  50.344  39.610  1.00  0.00     0.218 HD
ENDBRANCH  18  24
BRANCH  19  26
HETATM   26  O   UNL     1      26.273  48.571  38.121  1.00  0.00    -0.353 OA
HETATM   27  C   UNL     1      25.335  48.362  39.175  1.00  0.00     0.210 C 
ENDBRANCH  19  26
ENDBRANCH  16  17
ENDBRANCH   1  16
TORSDOF 4
ENDMDL
MODEL 8
REMARK VINA RESULT:      -7.4     13.128     14.796
REMARK  4 active torsions:
REMARK  status: ('A' for Active; 'I' for Inactive)
REMARK    1  A    between atoms: O_2  and  C_3 
REMARK    2  A    between atoms: C_4  and  O_5 
REMARK    3  A    between atoms: C_6  and  C_7 
REMARK    4  A    between atoms: C_7  and  N_8 
ROOT
HETATM    1  N   UNL     1      32.443  49.762  41.677  1.00  0.00    -0.066 N 
HETATM    2  H   UNL     1      33.213  49.615  42.356  1.00  0.00     0.280 HD
HETATM    3  C   UNL     1      31.213  49.918  42.546  1.00  0.00     0.246 C 
HETATM    4  C   UNL     1      29.896  49.615  41.807  1.00  0.00     0.062 C 
HETATM    5  C   UNL     1      29.968  48.226  41.185  1.00  0.00     0.020 C 
HETATM    6  C   UNL     1      31.080  48.248  40.145  1.00  0.00     0.031 C 
HETATM    7  C   UNL     1      30.706  49.231  39.032  1.00  0.00     0.138 C 
HETATM    8  N   UNL     1      30.066  50.478  39.455  1.00  0.00    -0.317 N 
HETATM    9  C   UNL     1      29.595  50.665  40.757  1.00  0.00     0.020 A 
HETATM   10  C   UNL     1      28.904  51.777  41.066  1.00  0.00     0.026 A 
HETATM   11  C   UNL     1      29.853  51.425  38.441  1.00  0.00     0.247 A 
HETATM   12  O   UNL     1      30.283  51.308  37.299  1.00  0.00    -0.268 OA
HETATM   13  C   UNL     1      29.095  52.641  38.821  1.00  0.00     0.074 A 
HETATM   14  C   UNL     1      28.650  52.788  40.073  1.00  0.00     0.007 A 
HETATM   15  C   UNL     1      32.437  48.542  40.799  1.00  0.00     0.241 C 
ENDROOT
BRANCH   1  16
HETATM   16  C   UNL     1      32.950  51.021  40.994  1.00  0.00     0.276 C 
BRANCH  16  17
HETATM   17  C   UNL     1      34.425  51.263  41.161  1.00  0.00     0.005 A 
HETATM   18  C   UNL     1      34.970  51.615  42.399  1.00  0.00     0.107 A 
HETATM   19  C   UNL     1      36.346  51.814  42.582  1.00  0.00     0.103 A 
HETATM   20  C   UNL     1      37.199  51.659  41.493  1.00  0.00     0.058 A 
HETATM   21  C   UNL     1      36.671  51.306  40.249  1.00  0.00     0.014 A 
HETATM   22  C   UNL     1      35.299  51.102  40.078  1.00  0.00     0.030 A 
HETATM   23 BR   UNL     1      37.828  51.101  38.767  1.00  0.00    -0.051 Br
BRANCH  18  24
HETATM   24  O   UNL     1      34.116  51.796  43.464  1.00  0.00    -0.357 OA
HETATM   25  H   UNL     1      34.289  52.721  43.756  1.00  0.00     0.218 HD
ENDBRANCH  18  24
BRANCH  19  26
HETATM   26  O   UNL     1      36.705  52.162  43.856  1.00  0.00    -0.353 OA
HETATM   27  C   UNL     1      37.170  53.497  44.046  1.00  0.00     0.210 C 
ENDBRANCH  19  26
ENDBRANCH  16  17
ENDBRANCH   1  16
TORSDOF 4
ENDMDL
MODEL 9
REMARK VINA RESULT:      -7.3     10.161     12.513
REMARK  4 active torsions:
REMARK  status: ('A' for Active; 'I' for Inactive)
REMARK    1  A    between atoms: O_2  and  C_3 
REMARK    2  A    between atoms: C_4  and  O_5 
REMARK    3  A    between atoms: C_6  and  C_7 
REMARK    4  A    between atoms: C_7  and  N_8 
ROOT
HETATM    1  N   UNL     1      19.397  49.021  49.389  1.00  0.00    -0.066 N 
HETATM    2  H   UNL     1      19.904  48.201  49.771  1.00  0.00     0.280 HD
HETATM    3  C   UNL     1      20.108  49.314  48.084  1.00  0.00     0.246 C 
HETATM    4  C   UNL     1      19.918  50.762  47.594  1.00  0.00     0.062 C 
HETATM    5  C   UNL     1      20.340  51.731  48.690  1.00  0.00     0.020 C 
HETATM    6  C   UNL     1      19.402  51.524  49.870  1.00  0.00     0.031 C 
HETATM    7  C   UNL     1      17.978  51.898  49.451  1.00  0.00     0.138 C 
HETATM    8  N   UNL     1      17.571  51.493  48.104  1.00  0.00    -0.317 N 
HETATM    9  C   UNL     1      18.489  51.019  47.163  1.00  0.00     0.020 A 
HETATM   10  C   UNL     1      18.090  50.777  45.902  1.00  0.00     0.026 A 
HETATM   11  C   UNL     1      16.223  51.721  47.783  1.00  0.00     0.247 A 
HETATM   12  O   UNL     1      15.386  52.102  48.594  1.00  0.00    -0.268 OA
HETATM   13  C   UNL     1      15.819  51.435  46.386  1.00  0.00     0.074 A 
HETATM   14  C   UNL     1      16.722  50.990  45.506  1.00  0.00     0.007 A 
HETATM   15  C   UNL     1      19.529  50.100  50.428  1.00  0.00     0.241 C 
ENDROOT
BRANCH   1  16
HETATM   16  C   UNL     1      18.005  48.425  49.279  1.00  0.00     0.276 C 
BRANCH  16  17
HETATM   17  C   UNL     1      17.852  47.406  48.184  1.00  0.00     0.005 A 
HETATM   18  C   UNL     1      18.528  46.183  48.228  1.00  0.00     0.107 A 
HETATM   19  C   UNL     1      18.374  45.206  47.234  1.00  0.00     0.103 A 
HETATM   20  C   UNL     1      17.522  45.463  46.164  1.00  0.00     0.058 A 
HETATM   21  C   UNL     1      16.838  46.679  46.105  1.00  0.00     0.014 A 
HETATM   22  C   UNL     1      16.991  47.644  47.105  1.00  0.00     0.030 A 
HETATM   23 BR   UNL     1      15.685  47.034  44.649  1.00  0.00    -0.051 Br
BRANCH  18  24
HETATM   24  O   UNL     1      19.392  45.949  49.275  1.00  0.00    -0.357 OA
HETATM   25  H   UNL     1      20.046  45.309  48.908  1.00  0.00     0.218 HD
ENDBRANCH  18  24
BRANCH  19  26
HETATM   26  O   UNL     1      19.116  44.073  47.431  1.00  0.00    -0.353 OA
HETATM   27  C   UNL     1      19.879  43.608  46.319  1.00  0.00     0.210 C 
ENDBRANCH  19  26
ENDBRANCH  16  17
ENDBRANCH   1  16
TORSDOF 4
ENDMDL
MODEL 10
REMARK VINA RESULT:      -7.3      8.205     11.050
REMARK  4 active torsions:
REMARK  status: ('A' for Active; 'I' for Inactive)
REMARK    1  A    between atoms: O_2  and  C_3 
REMARK    2  A    between atoms: C_4  and  O_5 
REMARK    3  A    between atoms: C_6  and  C_7 
REMARK    4  A    between atoms: C_7  and  N_8 
ROOT
HETATM    1  N   UNL     1      19.384  51.176  49.429  1.00  0.00    -0.066 N 
HETATM    2  H   UNL     1      20.147  51.620  49.973  1.00  0.00     0.280 HD
HETATM    3  C   UNL     1      19.767  51.432  47.986  1.00  0.00     0.246 C 
HETATM    4  C   UNL     1      18.576  51.359  47.013  1.00  0.00     0.062 C 
HETATM    5  C   UNL     1      17.479  52.310  47.477  1.00  0.00     0.020 C 
HETATM    6  C   UNL     1      16.991  51.818  48.831  1.00  0.00     0.031 C 
HETATM    7  C   UNL     1      16.357  50.434  48.665  1.00  0.00     0.138 C 
HETATM    8  N   UNL     1      17.036  49.517  47.747  1.00  0.00    -0.317 N 
HETATM    9  C   UNL     1      18.049  49.945  46.885  1.00  0.00     0.020 A 
HETATM   10  C   UNL     1      18.556  49.096  45.974  1.00  0.00     0.026 A 
HETATM   11  C   UNL     1      16.525  48.210  47.707  1.00  0.00     0.247 A 
HETATM   12  O   UNL     1      15.662  47.794  48.472  1.00  0.00    -0.268 OA
HETATM   13  C   UNL     1      17.114  47.300  46.695  1.00  0.00     0.074 A 
HETATM   14  C   UNL     1      18.076  47.742  45.878  1.00  0.00     0.007 A 
HETATM   15  C   UNL     1      18.120  51.860  49.870  1.00  0.00     0.241 C 
ENDROOT
BRANCH   1  16
HETATM   16  C   UNL     1      19.526  49.747  49.921  1.00  0.00     0.276 C 
BRANCH  16  17
HETATM   17  C   UNL     1      20.711  49.013  49.357  1.00  0.00     0.005 A 
HETATM   18  C   UNL     1      22.019  49.429  49.623  1.00  0.00     0.107 A 
HETATM   19  C   UNL     1      23.138  48.740  49.133  1.00  0.00     0.103 A 
HETATM   20  C   UNL     1      22.941  47.604  48.353  1.00  0.00     0.058 A 
HETATM   21  C   UNL     1      21.641  47.173  48.080  1.00  0.00     0.014 A 
HETATM   22  C   UNL     1      20.531  47.862  48.579  1.00  0.00     0.030 A 
HETATM   23 BR   UNL     1      21.370  45.634  47.016  1.00  0.00    -0.051 Br
BRANCH  18  24
HETATM   24  O   UNL     1      22.205  50.571  50.370  1.00  0.00    -0.357 OA
HETATM   25  H   UNL     1      22.594  51.214  49.733  1.00  0.00     0.218 HD
ENDBRANCH  18  24
BRANCH  19  26
HETATM   26  O   UNL     1      24.342  49.291  49.483  1.00  0.00    -0.353 OA
HETATM   27  C   UNL     1      25.172  49.742  48.413  1.00  0.00     0.210 C 
ENDBRANCH  19  26
ENDBRANCH  16  17
ENDBRANCH   1  16
TORSDOF 4
ENDMDL
