MODEL 1
REMARK VINA RESULT:      -8.4      0.000      0.000
REMARK  3 active torsions:
REMARK  status: ('A' for Active; 'I' for Inactive)
REMARK    1  A    between atoms: C_7  and  C_8 
REMARK       I    between atoms: C_8  and  N_9 
REMARK    2  A    between atoms: N_9  and  C_10 
REMARK    3  A    between atoms: C_13  and  C_14 
REMARK       I    between atoms: C_14  and  N_15 
ROOT
HETATM    1  C   UNL     1      26.507  45.533  52.665  1.00  0.00     0.257 C 
HETATM    2  N   UNL     1      26.559  45.783  51.306  1.00  0.00    -0.323 N 
HETATM    3  O   UNL     1      25.757  46.081  53.463  1.00  0.00    -0.267 OA
HETATM    4  H   UNL     1      27.165  45.179  50.764  1.00  0.00     0.169 HD
ENDROOT
BRANCH   2   5
HETATM    5  C   UNL     1      25.813  46.725  50.570  1.00  0.00     0.035 A 
HETATM    6  C   UNL     1      24.436  46.638  50.353  1.00  0.00     0.030 A 
HETATM    7  C   UNL     1      23.766  47.608  49.593  1.00  0.00     0.019 A 
HETATM    8  C   UNL     1      24.465  48.692  49.052  1.00  0.00     0.032 A 
HETATM    9  C   UNL     1      25.845  48.781  49.273  1.00  0.00     0.019 A 
HETATM   10  C   UNL     1      26.512  47.805  50.022  1.00  0.00     0.030 A 
BRANCH   8  11
HETATM   11  C   UNL     1      23.820  49.755  48.230  1.00  0.00     0.249 C 
HETATM   12  N   UNL     1      22.604  50.240  48.623  1.00  0.00    -0.366 N 
HETATM   13  H   UNL     1      22.134  50.001  49.481  1.00  0.00     0.159 HD
HETATM   14  H   UNL     1      22.214  50.987  48.063  1.00  0.00     0.159 HD
HETATM   15  O   UNL     1      24.364  50.204  47.227  1.00  0.00    -0.268 OA
ENDBRANCH   8  11
ENDBRANCH   2   5
BRANCH   1  16
HETATM   16  C   UNL     1      27.408  44.460  53.105  1.00  0.00     0.050 A 
HETATM   17  C   UNL     1      28.468  44.509  54.102  1.00  0.00    -0.003 A 
HETATM   18  C   UNL     1      28.896  45.545  54.977  1.00  0.00     0.014 A 
HETATM   19  C   UNL     1      29.148  43.288  54.182  1.00  0.00     0.016 A 
HETATM   20  C   UNL     1      29.985  45.361  55.837  1.00  0.00     0.001 A 
HETATM   21  C   UNL     1      30.658  44.151  55.862  1.00  0.00     0.001 A 
HETATM   22  C   UNL     1      30.246  43.099  55.046  1.00  0.00     0.019 A 
HETATM   23  S   UNL     1      28.466  42.108  53.135  1.00  0.00    -0.100 SA
HETATM   24  C   UNL     1      27.285  43.190  52.571  1.00  0.00     0.068 A 
ENDBRANCH   1  16
TORSDOF 3
ENDMDL
MODEL 2
REMARK VINA RESULT:      -8.3      3.682      8.269
REMARK  3 active torsions:
REMARK  status: ('A' for Active; 'I' for Inactive)
REMARK    1  A    between atoms: C_7  and  C_8 
REMARK       I    between atoms: C_8  and  N_9 
REMARK    2  A    between atoms: N_9  and  C_10 
REMARK    3  A    between atoms: C_13  and  C_14 
REMARK       I    between atoms: C_14  and  N_15 
ROOT
HETATM    1  C   UNL     1      26.275  44.821  53.343  1.00  0.00     0.257 C 
HETATM    2  N   UNL     1      27.615  45.162  53.356  1.00  0.00    -0.323 N 
HETATM    3  O   UNL     1      25.686  44.204  54.221  1.00  0.00    -0.267 OA
HETATM    4  H   UNL     1      27.933  45.758  52.602  1.00  0.00     0.169 HD
ENDROOT
BRANCH   2   5
HETATM    5  C   UNL     1      28.578  44.845  54.335  1.00  0.00     0.035 A 
HETATM    6  C   UNL     1      29.369  43.694  54.314  1.00  0.00     0.030 A 
HETATM    7  C   UNL     1      30.294  43.440  55.338  1.00  0.00     0.019 A 
HETATM    8  C   UNL     1      30.452  44.346  56.391  1.00  0.00     0.032 A 
HETATM    9  C   UNL     1      29.662  45.502  56.410  1.00  0.00     0.019 A 
HETATM   10  C   UNL     1      28.731  45.747  55.394  1.00  0.00     0.030 A 
BRANCH   8  11
HETATM   11  C   UNL     1      31.411  44.139  57.514  1.00  0.00     0.249 C 
HETATM   12  N   UNL     1      31.393  45.016  58.562  1.00  0.00    -0.366 N 
HETATM   13  H   UNL     1      30.720  45.754  58.689  1.00  0.00     0.159 HD
HETATM   14  H   UNL     1      32.031  44.823  59.323  1.00  0.00     0.159 HD
HETATM   15  O   UNL     1      32.197  43.198  57.516  1.00  0.00    -0.268 OA
ENDBRANCH   8  11
ENDBRANCH   2   5
BRANCH   1  16
HETATM   16  C   UNL     1      25.544  45.337  52.177  1.00  0.00     0.050 A 
HETATM   17  C   UNL     1      24.778  44.601  51.182  1.00  0.00    -0.003 A 
HETATM   18  C   UNL     1      24.447  43.222  51.073  1.00  0.00     0.014 A 
HETATM   19  C   UNL     1      24.290  45.453  50.183  1.00  0.00     0.016 A 
HETATM   20  C   UNL     1      23.713  42.739  49.982  1.00  0.00     0.001 A 
HETATM   21  C   UNL     1      23.280  43.606  48.993  1.00  0.00     0.001 A 
HETATM   22  C   UNL     1      23.553  44.970  49.083  1.00  0.00     0.019 A 
HETATM   23  S   UNL     1      24.692  47.096  50.494  1.00  0.00    -0.100 SA
HETATM   24  C   UNL     1      25.507  46.697  51.930  1.00  0.00     0.068 A 
ENDBRANCH   1  16
TORSDOF 3
ENDMDL
MODEL 3
REMARK VINA RESULT:      -8.2      3.442      8.072
REMARK  3 active torsions:
REMARK  status: ('A' for Active; 'I' for Inactive)
REMARK    1  A    between atoms: C_7  and  C_8 
REMARK       I    between atoms: C_8  and  N_9 
REMARK    2  A    between atoms: N_9  and  C_10 
REMARK    3  A    between atoms: C_13  and  C_14 
REMARK       I    between atoms: C_14  and  N_15 
ROOT
HETATM    1  C   UNL     1      26.536  43.925  53.189  1.00  0.00     0.257 C 
HETATM    2  N   UNL     1      27.907  44.101  53.141  1.00  0.00    -0.323 N 
HETATM    3  O   UNL     1      25.871  43.772  54.206  1.00  0.00    -0.267 OA
HETATM    4  H   UNL     1      28.299  44.313  52.232  1.00  0.00     0.169 HD
ENDROOT
BRANCH   2   5
HETATM    5  C   UNL     1      28.817  44.101  54.217  1.00  0.00     0.035 A 
HETATM    6  C   UNL     1      29.736  43.079  54.467  1.00  0.00     0.030 A 
HETATM    7  C   UNL     1      30.597  43.143  55.572  1.00  0.00     0.019 A 
HETATM    8  C   UNL     1      30.563  44.242  56.435  1.00  0.00     0.032 A 
HETATM    9  C   UNL     1      29.645  45.269  56.182  1.00  0.00     0.019 A 
HETATM   10  C   UNL     1      28.778  45.197  55.086  1.00  0.00     0.030 A 
BRANCH   8  11
HETATM   11  C   UNL     1      31.445  44.375  57.630  1.00  0.00     0.249 C 
HETATM   12  N   UNL     1      31.164  45.347  58.548  1.00  0.00    -0.366 N 
HETATM   13  H   UNL     1      30.348  45.938  58.536  1.00  0.00     0.159 HD
HETATM   14  H   UNL     1      31.760  45.384  59.365  1.00  0.00     0.159 HD
HETATM   15  O   UNL     1      32.400  43.625  57.804  1.00  0.00    -0.268 OA
ENDBRANCH   8  11
ENDBRANCH   2   5
BRANCH   1  16
HETATM   16  C   UNL     1      25.882  44.009  51.877  1.00  0.00     0.050 A 
HETATM   17  C   UNL     1      25.341  45.178  51.200  1.00  0.00    -0.003 A 
HETATM   18  C   UNL     1      25.342  46.557  51.547  1.00  0.00     0.014 A 
HETATM   19  C   UNL     1      24.732  44.829  49.988  1.00  0.00     0.016 A 
HETATM   20  C   UNL     1      24.713  47.508  50.734  1.00  0.00     0.001 A 
HETATM   21  C   UNL     1      24.088  47.120  49.561  1.00  0.00     0.001 A 
HETATM   22  C   UNL     1      24.096  45.782  49.168  1.00  0.00     0.019 A 
HETATM   23  S   UNL     1      24.885  43.148  49.659  1.00  0.00    -0.100 SA
HETATM   24  C   UNL     1      25.741  42.874  51.100  1.00  0.00     0.068 A 
ENDBRANCH   1  16
TORSDOF 3
ENDMDL
MODEL 4
REMARK VINA RESULT:      -8.2      5.563      8.301
REMARK  3 active torsions:
REMARK  status: ('A' for Active; 'I' for Inactive)
REMARK    1  A    between atoms: C_7  and  C_8 
REMARK       I    between atoms: C_8  and  N_9 
REMARK    2  A    between atoms: N_9  and  C_10 
REMARK    3  A    between atoms: C_13  and  C_14 
REMARK       I    between atoms: C_14  and  N_15 
ROOT
HETATM    1  C   UNL     1      28.384  41.576  52.540  1.00  0.00     0.257 C 
HETATM    2  N   UNL     1      29.022  42.791  52.711  1.00  0.00    -0.323 N 
HETATM    3  O   UNL     1      28.016  40.830  53.438  1.00  0.00    -0.267 OA
HETATM    4  H   UNL     1      29.176  43.337  51.873  1.00  0.00     0.169 HD
ENDROOT
BRANCH   2   5
HETATM    5  C   UNL     1      29.414  43.399  53.921  1.00  0.00     0.035 A 
HETATM    6  C   UNL     1      28.815  44.542  54.455  1.00  0.00     0.030 A 
HETATM    7  C   UNL     1      29.276  45.098  55.657  1.00  0.00     0.019 A 
HETATM    8  C   UNL     1      30.335  44.506  56.353  1.00  0.00     0.032 A 
HETATM    9  C   UNL     1      30.933  43.358  55.819  1.00  0.00     0.019 A 
HETATM   10  C   UNL     1      30.479  42.812  54.613  1.00  0.00     0.030 A 
BRANCH   8  11
HETATM   11  C   UNL     1      30.879  45.046  57.632  1.00  0.00     0.249 C 
HETATM   12  N   UNL     1      30.421  46.252  58.082  1.00  0.00    -0.366 N 
HETATM   13  H   UNL     1      29.672  46.780  57.666  1.00  0.00     0.159 HD
HETATM   14  H   UNL     1      30.785  46.570  58.972  1.00  0.00     0.159 HD
HETATM   15  O   UNL     1      31.712  44.425  58.282  1.00  0.00    -0.268 OA
ENDBRANCH   8  11
ENDBRANCH   2   5
BRANCH   1  16
HETATM   16  C   UNL     1      28.097  41.251  51.136  1.00  0.00     0.050 A 
HETATM   17  C   UNL     1      28.512  40.087  50.366  1.00  0.00    -0.003 A 
HETATM   18  C   UNL     1      29.229  38.916  50.733  1.00  0.00     0.014 A 
HETATM   19  C   UNL     1      28.091  40.183  49.034  1.00  0.00     0.016 A 
HETATM   20  C   UNL     1      29.545  37.934  49.786  1.00  0.00     0.001 A 
HETATM   21  C   UNL     1      29.145  38.081  48.469  1.00  0.00     0.001 A 
HETATM   22  C   UNL     1      28.408  39.198  48.077  1.00  0.00     0.019 A 
HETATM   23  S   UNL     1      27.162  41.603  48.758  1.00  0.00    -0.100 SA
HETATM   24  C   UNL     1      27.311  42.098  50.376  1.00  0.00     0.068 A 
ENDBRANCH   1  16
TORSDOF 3
ENDMDL
MODEL 5
REMARK VINA RESULT:      -8.2      4.963      7.120
REMARK  3 active torsions:
REMARK  status: ('A' for Active; 'I' for Inactive)
REMARK    1  A    between atoms: C_7  and  C_8 
REMARK       I    between atoms: C_8  and  N_9 
REMARK    2  A    between atoms: N_9  and  C_10 
REMARK    3  A    between atoms: C_13  and  C_14 
REMARK       I    between atoms: C_14  and  N_15 
ROOT
HETATM    1  C   UNL     1      22.481  48.557  48.755  1.00  0.00     0.257 C 
HETATM    2  N   UNL     1      21.925  49.394  49.705  1.00  0.00    -0.323 N 
HETATM    3  O   UNL     1      22.020  48.334  47.642  1.00  0.00    -0.267 OA
HETATM    4  H   UNL     1      22.475  49.551  50.540  1.00  0.00     0.169 HD
ENDROOT
BRANCH   2   5
HETATM    5  C   UNL     1      20.720  50.121  49.618  1.00  0.00     0.035 A 
HETATM    6  C   UNL     1      19.523  49.728  50.220  1.00  0.00     0.030 A 
HETATM    7  C   UNL     1      18.359  50.497  50.071  1.00  0.00     0.019 A 
HETATM    8  C   UNL     1      18.382  51.683  49.330  1.00  0.00     0.032 A 
HETATM    9  C   UNL     1      19.584  52.079  48.731  1.00  0.00     0.019 A 
HETATM   10  C   UNL     1      20.741  51.303  48.870  1.00  0.00     0.030 A 
BRANCH   8  11
HETATM   11  C   UNL     1      17.184  52.547  49.127  1.00  0.00     0.249 C 
HETATM   12  N   UNL     1      16.759  52.789  47.850  1.00  0.00    -0.366 N 
HETATM   13  H   UNL     1      17.137  52.357  47.022  1.00  0.00     0.159 HD
HETATM   14  H   UNL     1      15.922  53.348  47.752  1.00  0.00     0.159 HD
HETATM   15  O   UNL     1      16.576  53.028  50.076  1.00  0.00    -0.268 OA
ENDBRANCH   8  11
ENDBRANCH   2   5
BRANCH   1  16
HETATM   16  C   UNL     1      23.767  47.973  49.160  1.00  0.00     0.050 A 
HETATM   17  C   UNL     1      25.100  48.548  49.064  1.00  0.00    -0.003 A 
HETATM   18  C   UNL     1      25.550  49.828  48.637  1.00  0.00     0.014 A 
HETATM   19  C   UNL     1      26.077  47.642  49.494  1.00  0.00     0.016 A 
HETATM   20  C   UNL     1      26.915  50.139  48.599  1.00  0.00     0.001 A 
HETATM   21  C   UNL     1      27.856  49.204  48.997  1.00  0.00     0.001 A 
HETATM   22  C   UNL     1      27.452  47.951  49.457  1.00  0.00     0.019 A 
HETATM   23  S   UNL     1      25.382  46.177  50.063  1.00  0.00    -0.100 SA
HETATM   24  C   UNL     1      23.805  46.720  49.744  1.00  0.00     0.068 A 
ENDBRANCH   1  16
TORSDOF 3
ENDMDL
MODEL 6
REMARK VINA RESULT:      -8.0      3.882      8.132
REMARK  3 active torsions:
REMARK  status: ('A' for Active; 'I' for Inactive)
REMARK    1  A    between atoms: C_7  and  C_8 
REMARK       I    between atoms: C_8  and  N_9 
REMARK    2  A    between atoms: N_9  and  C_10 
REMARK    3  A    between atoms: C_13  and  C_14 
REMARK       I    between atoms: C_14  and  N_15 
ROOT
HETATM    1  C   UNL     1      26.663  44.047  52.933  1.00  0.00     0.257 C 
HETATM    2  N   UNL     1      28.043  44.030  53.011  1.00  0.00    -0.323 N 
HETATM    3  O   UNL     1      25.897  44.213  53.874  1.00  0.00    -0.267 OA
HETATM    4  H   UNL     1      28.540  43.979  52.130  1.00  0.00     0.169 HD
ENDROOT
BRANCH   2   5
HETATM    5  C   UNL     1      28.846  44.156  54.162  1.00  0.00     0.035 A 
HETATM    6  C   UNL     1      28.785  45.234  55.048  1.00  0.00     0.030 A 
HETATM    7  C   UNL     1      29.633  45.295  56.164  1.00  0.00     0.019 A 
HETATM    8  C   UNL     1      30.544  44.266  56.419  1.00  0.00     0.032 A 
HETATM    9  C   UNL     1      30.603  43.183  55.533  1.00  0.00     0.019 A 
HETATM   10  C   UNL     1      29.765  43.131  54.413  1.00  0.00     0.030 A 
BRANCH   8  11
HETATM   11  C   UNL     1      31.478  44.267  57.581  1.00  0.00     0.249 C 
HETATM   12  N   UNL     1      31.248  45.141  58.606  1.00  0.00    -0.366 N 
HETATM   13  H   UNL     1      30.440  45.736  58.691  1.00  0.00     0.159 HD
HETATM   14  H   UNL     1      31.880  45.088  59.395  1.00  0.00     0.159 HD
HETATM   15  O   UNL     1      32.431  43.496  57.635  1.00  0.00    -0.268 OA
ENDBRANCH   8  11
ENDBRANCH   2   5
BRANCH   1  16
HETATM   16  C   UNL     1      26.145  43.915  51.565  1.00  0.00     0.050 A 
HETATM   17  C   UNL     1      26.022  42.717  50.747  1.00  0.00    -0.003 A 
HETATM   18  C   UNL     1      26.283  41.348  51.029  1.00  0.00     0.014 A 
HETATM   19  C   UNL     1      25.544  43.023  49.466  1.00  0.00     0.016 A 
HETATM   20  C   UNL     1      26.120  40.364  50.047  1.00  0.00     0.001 A 
HETATM   21  C   UNL     1      25.682  40.708  48.779  1.00  0.00     0.001 A 
HETATM   22  C   UNL     1      25.380  42.035  48.474  1.00  0.00     0.019 A 
HETATM   23  S   UNL     1      25.189  44.696  49.300  1.00  0.00    -0.100 SA
HETATM   24  C   UNL     1      25.663  45.026  50.897  1.00  0.00     0.068 A 
ENDBRANCH   1  16
TORSDOF 3
ENDMDL
MODEL 7
REMARK VINA RESULT:      -7.8      2.991      8.242
REMARK  3 active torsions:
REMARK  status: ('A' for Active; 'I' for Inactive)
REMARK    1  A    between atoms: C_7  and  C_8 
REMARK       I    between atoms: C_8  and  N_9 
REMARK    2  A    between atoms: N_9  and  C_10 
REMARK    3  A    between atoms: C_13  and  C_14 
REMARK       I    between atoms: C_14  and  N_15 
ROOT
HETATM    1  C   UNL     1      25.416  47.356  50.691  1.00  0.00     0.257 C 
HETATM    2  N   UNL     1      25.144  46.783  51.920  1.00  0.00    -0.323 N 
HETATM    3  O   UNL     1      26.501  47.794  50.331  1.00  0.00    -0.267 OA
HETATM    4  H   UNL     1      24.222  46.381  52.032  1.00  0.00     0.169 HD
ENDROOT
BRANCH   2   5
HETATM    5  C   UNL     1      26.021  46.620  53.011  1.00  0.00     0.035 A 
HETATM    6  C   UNL     1      26.192  47.562  54.028  1.00  0.00     0.030 A 
HETATM    7  C   UNL     1      27.100  47.334  55.072  1.00  0.00     0.019 A 
HETATM    8  C   UNL     1      27.840  46.149  55.122  1.00  0.00     0.032 A 
HETATM    9  C   UNL     1      27.666  45.203  54.105  1.00  0.00     0.019 A 
HETATM   10  C   UNL     1      26.768  45.438  53.057  1.00  0.00     0.030 A 
BRANCH   8  11
HETATM   11  C   UNL     1      28.826  45.842  56.198  1.00  0.00     0.249 C 
HETATM   12  N   UNL     1      29.936  45.111  55.881  1.00  0.00    -0.366 N 
HETATM   13  H   UNL     1      30.199  44.829  54.950  1.00  0.00     0.159 HD
HETATM   14  H   UNL     1      30.602  44.954  56.627  1.00  0.00     0.159 HD
HETATM   15  O   UNL     1      28.662  46.241  57.346  1.00  0.00    -0.268 OA
ENDBRANCH   8  11
ENDBRANCH   2   5
BRANCH   1  16
HETATM   16  C   UNL     1      24.274  47.343  49.766  1.00  0.00     0.050 A 
HETATM   17  C   UNL     1      23.617  48.465  49.112  1.00  0.00    -0.003 A 
HETATM   18  C   UNL     1      23.906  49.857  49.103  1.00  0.00     0.014 A 
HETATM   19  C   UNL     1      22.516  48.040  48.358  1.00  0.00     0.016 A 
HETATM   20  C   UNL     1      23.089  50.761  48.414  1.00  0.00     0.001 A 
HETATM   21  C   UNL     1      21.986  50.309  47.710  1.00  0.00     0.001 A 
HETATM   22  C   UNL     1      21.690  48.947  47.664  1.00  0.00     0.019 A 
HETATM   23  S   UNL     1      22.342  46.330  48.389  1.00  0.00    -0.100 SA
HETATM   24  C   UNL     1      23.701  46.142  49.392  1.00  0.00     0.068 A 
ENDBRANCH   1  16
TORSDOF 3
ENDMDL
MODEL 8
REMARK VINA RESULT:      -7.7      4.627      6.824
REMARK  3 active torsions:
REMARK  status: ('A' for Active; 'I' for Inactive)
REMARK    1  A    between atoms: C_7  and  C_8 
REMARK       I    between atoms: C_8  and  N_9 
REMARK    2  A    between atoms: N_9  and  C_10 
REMARK    3  A    between atoms: C_13  and  C_14 
REMARK       I    between atoms: C_14  and  N_15 
ROOT
HETATM    1  C   UNL     1      27.871  43.708  52.321  1.00  0.00     0.257 C 
HETATM    2  N   UNL     1      27.832  42.343  52.545  1.00  0.00    -0.323 N 
HETATM    3  O   UNL     1      27.652  44.262  51.251  1.00  0.00    -0.267 OA
HETATM    4  H   UNL     1      27.941  42.044  53.506  1.00  0.00     0.169 HD
ENDROOT
BRANCH   2   5
HETATM    5  C   UNL     1      27.580  41.320  51.608  1.00  0.00     0.035 A 
HETATM    6  C   UNL     1      26.337  41.087  51.017  1.00  0.00     0.030 A 
HETATM    7  C   UNL     1      26.161  40.035  50.106  1.00  0.00     0.019 A 
HETATM    8  C   UNL     1      27.236  39.210  49.760  1.00  0.00     0.032 A 
HETATM    9  C   UNL     1      28.484  39.447  50.350  1.00  0.00     0.019 A 
HETATM   10  C   UNL     1      28.653  40.490  51.268  1.00  0.00     0.030 A 
BRANCH   8  11
HETATM   11  C   UNL     1      27.122  38.071  48.804  1.00  0.00     0.249 C 
HETATM   12  N   UNL     1      28.046  37.067  48.867  1.00  0.00    -0.366 N 
HETATM   13  H   UNL     1      28.762  36.981  49.570  1.00  0.00     0.159 HD
HETATM   14  H   UNL     1      27.916  36.293  48.228  1.00  0.00     0.159 HD
HETATM   15  O   UNL     1      26.214  38.019  47.981  1.00  0.00    -0.268 OA
ENDBRANCH   8  11
ENDBRANCH   2   5
BRANCH   1  16
HETATM   16  C   UNL     1      28.137  44.498  53.530  1.00  0.00     0.050 A 
HETATM   17  C   UNL     1      29.170  44.305  54.537  1.00  0.00    -0.003 A 
HETATM   18  C   UNL     1      30.244  43.377  54.626  1.00  0.00     0.014 A 
HETATM   19  C   UNL     1      29.046  45.234  55.578  1.00  0.00     0.016 A 
HETATM   20  C   UNL     1      31.099  43.364  55.734  1.00  0.00     0.001 A 
HETATM   21  C   UNL     1      30.923  44.274  56.763  1.00  0.00     0.001 A 
HETATM   22  C   UNL     1      29.905  45.224  56.696  1.00  0.00     0.019 A 
HETATM   23  S   UNL     1      27.765  46.344  55.293  1.00  0.00    -0.100 SA
HETATM   24  C   UNL     1      27.367  45.611  53.814  1.00  0.00     0.068 A 
ENDBRANCH   1  16
TORSDOF 3
ENDMDL
MODEL 9
REMARK VINA RESULT:      -7.5      5.468      8.153
REMARK  3 active torsions:
REMARK  status: ('A' for Active; 'I' for Inactive)
REMARK    1  A    between atoms: C_7  and  C_8 
REMARK       I    between atoms: C_8  and  N_9 
REMARK    2  A    between atoms: N_9  and  C_10 
REMARK    3  A    between atoms: C_13  and  C_14 
REMARK       I    between atoms: C_14  and  N_15 
ROOT
HETATM    1  C   UNL     1      27.995  41.543  51.801  1.00  0.00     0.257 C 
HETATM    2  N   UNL     1      28.960  42.515  51.989  1.00  0.00    -0.323 N 
HETATM    3  O   UNL     1      27.271  41.077  52.672  1.00  0.00    -0.267 OA
HETATM    4  H   UNL     1      29.409  42.867  51.153  1.00  0.00     0.169 HD
ENDROOT
BRANCH   2   5
HETATM    5  C   UNL     1      29.339  43.134  53.197  1.00  0.00     0.035 A 
HETATM    6  C   UNL     1      30.511  42.838  53.897  1.00  0.00     0.030 A 
HETATM    7  C   UNL     1      30.809  43.486  55.105  1.00  0.00     0.019 A 
HETATM    8  C   UNL     1      29.944  44.455  55.622  1.00  0.00     0.032 A 
HETATM    9  C   UNL     1      28.771  44.756  54.918  1.00  0.00     0.019 A 
HETATM   10  C   UNL     1      28.470  44.099  53.719  1.00  0.00     0.030 A 
BRANCH   8  11
HETATM   11  C   UNL     1      30.194  45.179  56.901  1.00  0.00     0.249 C 
HETATM   12  N   UNL     1      31.098  44.658  57.784  1.00  0.00    -0.366 N 
HETATM   13  H   UNL     1      31.686  43.859  57.608  1.00  0.00     0.159 HD
HETATM   14  H   UNL     1      31.270  45.195  58.624  1.00  0.00     0.159 HD
HETATM   15  O   UNL     1      29.617  46.229  57.163  1.00  0.00    -0.268 OA
ENDBRANCH   8  11
ENDBRANCH   2   5
BRANCH   1  16
HETATM   16  C   UNL     1      27.835  41.131  50.400  1.00  0.00     0.050 A 
HETATM   17  C   UNL     1      28.336  39.936  49.737  1.00  0.00    -0.003 A 
HETATM   18  C   UNL     1      29.042  38.805  50.232  1.00  0.00     0.014 A 
HETATM   19  C   UNL     1      28.029  39.945  48.371  1.00  0.00     0.016 A 
HETATM   20  C   UNL     1      29.456  37.778  49.375  1.00  0.00     0.001 A 
HETATM   21  C   UNL     1      29.167  37.839  48.022  1.00  0.00     0.001 A 
HETATM   22  C   UNL     1      28.445  38.914  47.504  1.00  0.00     0.019 A 
HETATM   23  S   UNL     1      27.100  41.324  47.935  1.00  0.00    -0.100 SA
HETATM   24  C   UNL     1      27.101  41.914  49.527  1.00  0.00     0.068 A 
ENDBRANCH   1  16
TORSDOF 3
ENDMDL
MODEL 10
REMARK VINA RESULT:      -7.5      4.386      4.887
REMARK  3 active torsions:
REMARK  status: ('A' for Active; 'I' for Inactive)
REMARK    1  A    between atoms: C_7  and  C_8 
REMARK       I    between atoms: C_8  and  N_9 
REMARK    2  A    between atoms: N_9  and  C_10 
REMARK    3  A    between atoms: C_13  and  C_14 
REMARK       I    between atoms: C_14  and  N_15 
ROOT
HETATM    1  C   UNL     1      27.442  43.470  53.296  1.00  0.00     0.257 C 
HETATM    2  N   UNL     1      26.773  44.065  52.242  1.00  0.00    -0.323 N 
HETATM    3  O   UNL     1      27.617  42.267  53.442  1.00  0.00    -0.267 OA
HETATM    4  H   UNL     1      26.797  45.077  52.212  1.00  0.00     0.169 HD
ENDROOT
BRANCH   2   5
HETATM    5  C   UNL     1      26.129  43.434  51.159  1.00  0.00     0.035 A 
HETATM    6  C   UNL     1      24.759  43.163  51.112  1.00  0.00     0.030 A 
HETATM    7  C   UNL     1      24.195  42.512  50.004  1.00  0.00     0.019 A 
HETATM    8  C   UNL     1      24.993  42.138  48.919  1.00  0.00     0.032 A 
HETATM    9  C   UNL     1      26.365  42.414  48.965  1.00  0.00     0.019 A 
HETATM   10  C   UNL     1      26.928  43.052  50.076  1.00  0.00     0.030 A 
BRANCH   8  11
HETATM   11  C   UNL     1      24.462  41.440  47.713  1.00  0.00     0.249 C 
HETATM   12  N   UNL     1      25.183  41.495  46.553  1.00  0.00    -0.366 N 
HETATM   13  H   UNL     1      26.101  41.898  46.460  1.00  0.00     0.159 HD
HETATM   14  H   UNL     1      24.812  40.979  45.766  1.00  0.00     0.159 HD
HETATM   15  O   UNL     1      23.407  40.817  47.750  1.00  0.00    -0.268 OA
ENDBRANCH   8  11
ENDBRANCH   2   5
BRANCH   1  16
HETATM   16  C   UNL     1      28.024  44.428  54.245  1.00  0.00     0.050 A 
HETATM   17  C   UNL     1      29.187  44.268  55.106  1.00  0.00    -0.003 A 
HETATM   18  C   UNL     1      30.127  43.210  55.238  1.00  0.00     0.014 A 
HETATM   19  C   UNL     1      29.375  45.392  55.920  1.00  0.00     0.016 A 
HETATM   20  C   UNL     1      31.160  43.274  56.182  1.00  0.00     0.001 A 
HETATM   21  C   UNL     1      31.293  44.386  56.997  1.00  0.00     0.001 A 
HETATM   22  C   UNL     1      30.413  45.460  56.872  1.00  0.00     0.019 A 
HETATM   23  S   UNL     1      28.221  46.622  55.588  1.00  0.00    -0.100 SA
HETATM   24  C   UNL     1      27.470  45.688  54.385  1.00  0.00     0.068 A 
ENDBRANCH   1  16
TORSDOF 3
ENDMDL
