MODEL 1
REMARK VINA RESULT:     -10.4      0.000      0.000
REMARK  5 active torsions:
REMARK  status: ('A' for Active; 'I' for Inactive)
REMARK    1  A    between atoms: C_2  and  C_3 
REMARK    2  A    between atoms: C_5  and  N_6 
REMARK       I    between atoms: N_6  and  C_7 
REMARK    3  A    between atoms: C_7  and  C_8 
REMARK    4  A    between atoms: C_16  and  C_17 
REMARK    5  A    between atoms: C_20  and  O_21 
ROOT
HETATM    1  C   UNL     1      26.426  44.535  51.399  1.00  0.00     0.047 A 
HETATM    2  C   UNL     1      26.263  43.220  50.914  1.00  0.00     0.008 A 
HETATM    3  C   UNL     1      26.930  42.218  51.639  1.00  0.00     0.068 A 
HETATM    4  C   UNL     1      26.793  40.895  51.242  1.00  0.00     0.032 A 
HETATM    5  C   UNL     1      26.035  40.531  50.126  1.00  0.00     0.002 A 
HETATM    6  C   UNL     1      25.407  41.513  49.375  1.00  0.00     0.001 A 
HETATM    7  C   UNL     1      25.523  42.847  49.758  1.00  0.00     0.015 A 
HETATM    8  N   UNL     1      27.717  42.478  52.696  1.00  0.00    -0.248 NA
HETATM    9  C   UNL     1      27.926  43.755  53.102  1.00  0.00     0.068 A 
HETATM   10  C   UNL     1      27.278  44.805  52.475  1.00  0.00     0.050 A 
ENDROOT
BRANCH   1  11
HETATM   11  C   UNL     1      25.742  45.722  50.820  1.00  0.00     0.257 C 
HETATM   12  N   UNL     1      26.574  46.636  50.200  1.00  0.00    -0.323 N 
HETATM   13  H   UNL     1      27.569  46.444  50.221  1.00  0.00     0.169 HD
HETATM   14  O   UNL     1      24.520  45.768  50.891  1.00  0.00    -0.267 OA
BRANCH  12  15
HETATM   15  C   UNL     1      26.191  47.822  49.538  1.00  0.00     0.035 A 
HETATM   16  C   UNL     1      24.863  48.158  49.253  1.00  0.00     0.044 A 
HETATM   17  C   UNL     1      24.558  49.350  48.580  1.00  0.00     0.011 A 
HETATM   18  C   UNL     1      25.591  50.221  48.213  1.00  0.00     0.015 A 
HETATM   19  C   UNL     1      26.916  49.893  48.494  1.00  0.00     0.003 A 
HETATM   20  C   UNL     1      27.214  48.693  49.144  1.00  0.00     0.029 A 
BRANCH  17  21
HETATM   21  C   UNL     1      23.156  49.722  48.228  1.00  0.00     0.155 C 
HETATM   22  C   UNL     1      22.581  51.006  48.770  1.00  0.00     0.096 C 
HETATM   23  O   UNL     1      22.488  48.977  47.513  1.00  0.00    -0.293 OA
ENDBRANCH  17  21
ENDBRANCH  12  15
ENDBRANCH   1  11
BRANCH   9  24
HETATM   24  C   UNL     1      28.907  43.935  54.201  1.00  0.00    -0.007 A 
HETATM   25  C   UNL     1      28.860  45.077  55.024  1.00  0.00     0.016 A 
HETATM   26  C   UNL     1      29.731  45.242  56.108  1.00  0.00     0.037 A 
HETATM   27  C   UNL     1      30.672  44.263  56.413  1.00  0.00     0.068 A 
HETATM   28  C   UNL     1      30.772  43.144  55.593  1.00  0.00     0.037 A 
HETATM   29  C   UNL     1      29.903  42.986  54.502  1.00  0.00     0.016 A 
BRANCH  27  30
HETATM   30  O   UNL     1      31.444  44.517  57.512  1.00  0.00    -0.356 OA
HETATM   31  C   UNL     1      30.900  45.427  58.461  1.00  0.00     0.210 C 
ENDBRANCH  27  30
ENDBRANCH   9  24
TORSDOF 5
ENDMDL
MODEL 2
REMARK VINA RESULT:     -10.2      1.689      2.248
REMARK  5 active torsions:
REMARK  status: ('A' for Active; 'I' for Inactive)
REMARK    1  A    between atoms: C_2  and  C_3 
REMARK    2  A    between atoms: C_5  and  N_6 
REMARK       I    between atoms: N_6  and  C_7 
REMARK    3  A    between atoms: C_7  and  C_8 
REMARK    4  A    between atoms: C_16  and  C_17 
REMARK    5  A    between atoms: C_20  and  O_21 
ROOT
HETATM    1  C   UNL     1      27.188  43.861  50.673  1.00  0.00     0.047 A 
HETATM    2  C   UNL     1      27.329  42.519  50.259  1.00  0.00     0.008 A 
HETATM    3  C   UNL     1      28.003  41.674  51.156  1.00  0.00     0.068 A 
HETATM    4  C   UNL     1      28.153  40.332  50.833  1.00  0.00     0.032 A 
HETATM    5  C   UNL     1      27.681  39.802  49.630  1.00  0.00     0.002 A 
HETATM    6  C   UNL     1      27.053  40.633  48.715  1.00  0.00     0.001 A 
HETATM    7  C   UNL     1      26.883  41.982  49.020  1.00  0.00     0.015 A 
HETATM    8  N   UNL     1      28.531  42.104  52.314  1.00  0.00    -0.248 NA
HETATM    9  C   UNL     1      28.456  43.413  52.661  1.00  0.00     0.068 A 
HETATM   10  C   UNL     1      27.775  44.312  51.860  1.00  0.00     0.050 A 
ENDROOT
BRANCH   1  11
HETATM   11  C   UNL     1      26.441  44.891  49.904  1.00  0.00     0.257 C 
HETATM   12  N   UNL     1      25.078  44.922  50.131  1.00  0.00    -0.323 N 
HETATM   13  H   UNL     1      24.699  44.228  50.766  1.00  0.00     0.169 HD
HETATM   14  O   UNL     1      27.086  45.647  49.187  1.00  0.00    -0.267 OA
BRANCH  12  15
HETATM   15  C   UNL     1      24.142  45.817  49.569  1.00  0.00     0.035 A 
HETATM   16  C   UNL     1      24.278  47.208  49.608  1.00  0.00     0.044 A 
HETATM   17  C   UNL     1      23.299  48.036  49.039  1.00  0.00     0.011 A 
HETATM   18  C   UNL     1      22.191  47.462  48.405  1.00  0.00     0.015 A 
HETATM   19  C   UNL     1      22.049  46.077  48.362  1.00  0.00     0.003 A 
HETATM   20  C   UNL     1      23.015  45.258  48.951  1.00  0.00     0.029 A 
BRANCH  17  21
HETATM   21  C   UNL     1      23.394  49.525  49.094  1.00  0.00     0.155 C 
HETATM   22  C   UNL     1      24.214  50.246  48.055  1.00  0.00     0.096 C 
HETATM   23  O   UNL     1      22.815  50.141  49.987  1.00  0.00    -0.293 OA
ENDBRANCH  17  21
ENDBRANCH  12  15
ENDBRANCH   1  11
BRANCH   9  24
HETATM   24  C   UNL     1      29.178  43.800  53.899  1.00  0.00    -0.007 A 
HETATM   25  C   UNL     1      28.797  44.947  54.622  1.00  0.00     0.016 A 
HETATM   26  C   UNL     1      29.417  45.298  55.827  1.00  0.00     0.037 A 
HETATM   27  C   UNL     1      30.432  44.508  56.357  1.00  0.00     0.068 A 
HETATM   28  C   UNL     1      30.859  43.391  55.644  1.00  0.00     0.037 A 
HETATM   29  C   UNL     1      30.242  43.046  54.432  1.00  0.00     0.016 A 
BRANCH  27  30
HETATM   30  O   UNL     1      30.939  44.930  57.553  1.00  0.00    -0.356 OA
HETATM   31  C   UNL     1      30.281  46.040  58.153  1.00  0.00     0.210 C 
ENDBRANCH  27  30
ENDBRANCH   9  24
TORSDOF 5
ENDMDL
MODEL 3
REMARK VINA RESULT:      -9.8      2.102      5.152
REMARK  5 active torsions:
REMARK  status: ('A' for Active; 'I' for Inactive)
REMARK    1  A    between atoms: C_2  and  C_3 
REMARK    2  A    between atoms: C_5  and  N_6 
REMARK       I    between atoms: N_6  and  C_7 
REMARK    3  A    between atoms: C_7  and  C_8 
REMARK    4  A    between atoms: C_16  and  C_17 
REMARK    5  A    between atoms: C_20  and  O_21 
ROOT
HETATM    1  C   UNL     1      26.644  45.764  52.246  1.00  0.00     0.047 A 
HETATM    2  C   UNL     1      27.286  45.802  53.502  1.00  0.00     0.008 A 
HETATM    3  C   UNL     1      27.946  44.620  53.883  1.00  0.00     0.068 A 
HETATM    4  C   UNL     1      28.628  44.591  55.093  1.00  0.00     0.032 A 
HETATM    5  C   UNL     1      28.654  45.688  55.956  1.00  0.00     0.002 A 
HETATM    6  C   UNL     1      27.969  46.845  55.614  1.00  0.00     0.001 A 
HETATM    7  C   UNL     1      27.285  46.902  54.402  1.00  0.00     0.015 A 
HETATM    8  N   UNL     1      27.936  43.502  53.139  1.00  0.00    -0.248 NA
HETATM    9  C   UNL     1      27.249  43.457  51.971  1.00  0.00     0.068 A 
HETATM   10  C   UNL     1      26.603  44.584  51.495  1.00  0.00     0.050 A 
ENDROOT
BRANCH   1  11
HETATM   11  C   UNL     1      25.959  46.931  51.631  1.00  0.00     0.257 C 
HETATM   12  N   UNL     1      26.319  47.202  50.324  1.00  0.00    -0.323 N 
HETATM   13  H   UNL     1      27.035  46.616  49.910  1.00  0.00     0.169 HD
HETATM   14  O   UNL     1      25.111  47.512  52.297  1.00  0.00    -0.267 OA
BRANCH  12  15
HETATM   15  C   UNL     1      25.801  48.219  49.492  1.00  0.00     0.035 A 
HETATM   16  C   UNL     1      24.439  48.376  49.215  1.00  0.00     0.044 A 
HETATM   17  C   UNL     1      23.998  49.403  48.368  1.00  0.00     0.011 A 
HETATM   18  C   UNL     1      24.929  50.292  47.817  1.00  0.00     0.015 A 
HETATM   19  C   UNL     1      26.287  50.142  48.089  1.00  0.00     0.003 A 
HETATM   20  C   UNL     1      26.721  49.103  48.914  1.00  0.00     0.029 A 
BRANCH  17  21
HETATM   21  C   UNL     1      22.557  49.578  48.022  1.00  0.00     0.155 C 
HETATM   22  C   UNL     1      21.847  50.835  48.453  1.00  0.00     0.096 C 
HETATM   23  O   UNL     1      21.967  48.695  47.401  1.00  0.00    -0.293 OA
ENDBRANCH  17  21
ENDBRANCH  12  15
ENDBRANCH   1  11
BRANCH   9  24
HETATM   24  C   UNL     1      27.205  42.138  51.293  1.00  0.00    -0.007 A 
HETATM   25  C   UNL     1      28.334  41.295  51.291  1.00  0.00     0.016 A 
HETATM   26  C   UNL     1      28.299  40.019  50.715  1.00  0.00     0.037 A 
HETATM   27  C   UNL     1      27.132  39.538  50.132  1.00  0.00     0.068 A 
HETATM   28  C   UNL     1      26.013  40.363  50.081  1.00  0.00     0.037 A 
HETATM   29  C   UNL     1      26.053  41.645  50.651  1.00  0.00     0.016 A 
BRANCH  27  30
HETATM   30  O   UNL     1      27.207  38.268  49.633  1.00  0.00    -0.356 OA
HETATM   31  C   UNL     1      28.484  37.859  49.156  1.00  0.00     0.210 C 
ENDBRANCH  27  30
ENDBRANCH   9  24
TORSDOF 5
ENDMDL
MODEL 4
REMARK VINA RESULT:      -9.7      1.967      8.612
REMARK  5 active torsions:
REMARK  status: ('A' for Active; 'I' for Inactive)
REMARK    1  A    between atoms: C_2  and  C_3 
REMARK    2  A    between atoms: C_5  and  N_6 
REMARK       I    between atoms: N_6  and  C_7 
REMARK    3  A    between atoms: C_7  and  C_8 
REMARK    4  A    between atoms: C_16  and  C_17 
REMARK    5  A    between atoms: C_20  and  O_21 
ROOT
HETATM    1  C   UNL     1      26.548  44.092  52.136  1.00  0.00     0.047 A 
HETATM    2  C   UNL     1      26.966  43.039  51.295  1.00  0.00     0.008 A 
HETATM    3  C   UNL     1      26.577  43.145  49.948  1.00  0.00     0.068 A 
HETATM    4  C   UNL     1      26.978  42.162  49.053  1.00  0.00     0.032 A 
HETATM    5  C   UNL     1      27.731  41.056  49.455  1.00  0.00     0.002 A 
HETATM    6  C   UNL     1      28.083  40.915  50.788  1.00  0.00     0.001 A 
HETATM    7  C   UNL     1      27.701  41.892  51.704  1.00  0.00     0.015 A 
HETATM    8  N   UNL     1      25.815  44.148  49.482  1.00  0.00    -0.248 NA
HETATM    9  C   UNL     1      25.356  45.111  50.318  1.00  0.00     0.068 A 
HETATM   10  C   UNL     1      25.721  45.112  51.653  1.00  0.00     0.050 A 
ENDROOT
BRANCH   1  11
HETATM   11  C   UNL     1      26.920  44.205  53.571  1.00  0.00     0.257 C 
HETATM   12  N   UNL     1      28.073  44.925  53.824  1.00  0.00    -0.323 N 
HETATM   13  H   UNL     1      28.582  45.281  53.023  1.00  0.00     0.169 HD
HETATM   14  O   UNL     1      26.166  43.708  54.397  1.00  0.00    -0.267 OA
BRANCH  12  15
HETATM   15  C   UNL     1      28.631  45.219  55.087  1.00  0.00     0.035 A 
HETATM   16  C   UNL     1      29.735  44.548  55.623  1.00  0.00     0.044 A 
HETATM   17  C   UNL     1      30.228  44.887  56.891  1.00  0.00     0.011 A 
HETATM   18  C   UNL     1      29.624  45.922  57.614  1.00  0.00     0.015 A 
HETATM   19  C   UNL     1      28.524  46.594  57.087  1.00  0.00     0.003 A 
HETATM   20  C   UNL     1      28.023  46.237  55.833  1.00  0.00     0.029 A 
BRANCH  17  21
HETATM   21  C   UNL     1      31.382  44.168  57.509  1.00  0.00     0.155 C 
HETATM   22  C   UNL     1      31.912  42.925  56.841  1.00  0.00     0.096 C 
HETATM   23  O   UNL     1      31.876  44.590  58.553  1.00  0.00    -0.293 OA
ENDBRANCH  17  21
ENDBRANCH  12  15
ENDBRANCH   1  11
BRANCH   9  24
HETATM   24  C   UNL     1      24.425  46.100  49.720  1.00  0.00    -0.007 A 
HETATM   25  C   UNL     1      23.379  45.681  48.876  1.00  0.00     0.016 A 
HETATM   26  C   UNL     1      22.447  46.586  48.352  1.00  0.00     0.037 A 
HETATM   27  C   UNL     1      22.523  47.940  48.665  1.00  0.00     0.068 A 
HETATM   28  C   UNL     1      23.571  48.390  49.462  1.00  0.00     0.037 A 
HETATM   29  C   UNL     1      24.509  47.482  49.978  1.00  0.00     0.016 A 
BRANCH  27  30
HETATM   30  O   UNL     1      21.541  48.721  48.123  1.00  0.00    -0.356 OA
HETATM   31  C   UNL     1      20.458  49.049  48.985  1.00  0.00     0.210 C 
ENDBRANCH  27  30
ENDBRANCH   9  24
TORSDOF 5
ENDMDL
MODEL 5
REMARK VINA RESULT:      -9.6      1.846      8.317
REMARK  5 active torsions:
REMARK  status: ('A' for Active; 'I' for Inactive)
REMARK    1  A    between atoms: C_2  and  C_3 
REMARK    2  A    between atoms: C_5  and  N_6 
REMARK       I    between atoms: N_6  and  C_7 
REMARK    3  A    between atoms: C_7  and  C_8 
REMARK    4  A    between atoms: C_16  and  C_17 
REMARK    5  A    between atoms: C_20  and  O_21 
ROOT
HETATM    1  C   UNL     1      25.722  43.914  51.348  1.00  0.00     0.047 A 
HETATM    2  C   UNL     1      25.655  42.795  50.491  1.00  0.00     0.008 A 
HETATM    3  C   UNL     1      25.037  43.018  49.248  1.00  0.00     0.068 A 
HETATM    4  C   UNL     1      24.961  41.973  48.337  1.00  0.00     0.032 A 
HETATM    5  C   UNL     1      25.452  40.698  48.629  1.00  0.00     0.002 A 
HETATM    6  C   UNL     1      26.024  40.452  49.868  1.00  0.00     0.001 A 
HETATM    7  C   UNL     1      26.120  41.486  50.796  1.00  0.00     0.015 A 
HETATM    8  N   UNL     1      24.495  44.197  48.899  1.00  0.00    -0.248 NA
HETATM    9  C   UNL     1      24.499  45.240  49.765  1.00  0.00     0.068 A 
HETATM   10  C   UNL     1      25.121  45.127  50.996  1.00  0.00     0.050 A 
ENDROOT
BRANCH   1  11
HETATM   11  C   UNL     1      26.402  43.904  52.670  1.00  0.00     0.257 C 
HETATM   12  N   UNL     1      27.777  44.044  52.625  1.00  0.00    -0.323 N 
HETATM   13  H   UNL     1      28.206  44.105  51.709  1.00  0.00     0.169 HD
HETATM   14  O   UNL     1      25.702  43.829  53.672  1.00  0.00    -0.267 OA
BRANCH  12  15
HETATM   15  C   UNL     1      28.662  44.107  53.724  1.00  0.00     0.035 A 
HETATM   16  C   UNL     1      28.517  45.005  54.787  1.00  0.00     0.044 A 
HETATM   17  C   UNL     1      29.443  45.018  55.839  1.00  0.00     0.011 A 
HETATM   18  C   UNL     1      30.507  44.109  55.836  1.00  0.00     0.015 A 
HETATM   19  C   UNL     1      30.658  43.212  54.780  1.00  0.00     0.003 A 
HETATM   20  C   UNL     1      29.745  43.219  53.723  1.00  0.00     0.029 A 
BRANCH  17  21
HETATM   21  C   UNL     1      29.339  45.986  56.971  1.00  0.00     0.155 C 
HETATM   22  C   UNL     1      30.420  46.004  58.022  1.00  0.00     0.096 C 
HETATM   23  O   UNL     1      28.375  46.747  57.037  1.00  0.00    -0.293 OA
ENDBRANCH  17  21
ENDBRANCH  12  15
ENDBRANCH   1  11
BRANCH   9  24
HETATM   24  C   UNL     1      23.767  46.454  49.323  1.00  0.00    -0.007 A 
HETATM   25  C   UNL     1      22.702  46.355  48.408  1.00  0.00     0.016 A 
HETATM   26  C   UNL     1      21.953  47.475  48.025  1.00  0.00     0.037 A 
HETATM   27  C   UNL     1      22.237  48.730  48.554  1.00  0.00     0.068 A 
HETATM   28  C   UNL     1      23.311  48.866  49.429  1.00  0.00     0.037 A 
HETATM   29  C   UNL     1      24.065  47.744  49.804  1.00  0.00     0.016 A 
BRANCH  27  30
HETATM   30  O   UNL     1      21.419  49.740  48.134  1.00  0.00    -0.356 OA
HETATM   31  C   UNL     1      21.663  51.020  48.705  1.00  0.00     0.210 C 
ENDBRANCH  27  30
ENDBRANCH   9  24
TORSDOF 5
ENDMDL
MODEL 6
REMARK VINA RESULT:      -9.4      2.487      8.994
REMARK  5 active torsions:
REMARK  status: ('A' for Active; 'I' for Inactive)
REMARK    1  A    between atoms: C_2  and  C_3 
REMARK    2  A    between atoms: C_5  and  N_6 
REMARK       I    between atoms: N_6  and  C_7 
REMARK    3  A    between atoms: C_7  and  C_8 
REMARK    4  A    between atoms: C_16  and  C_17 
REMARK    5  A    between atoms: C_20  and  O_21 
ROOT
HETATM    1  C   UNL     1      24.623  45.963  49.873  1.00  0.00     0.047 A 
HETATM    2  C   UNL     1      24.029  44.826  49.284  1.00  0.00     0.008 A 
HETATM    3  C   UNL     1      22.908  45.078  48.474  1.00  0.00     0.068 A 
HETATM    4  C   UNL     1      22.288  44.012  47.835  1.00  0.00     0.032 A 
HETATM    5  C   UNL     1      22.725  42.696  47.995  1.00  0.00     0.002 A 
HETATM    6  C   UNL     1      23.802  42.428  48.827  1.00  0.00     0.001 A 
HETATM    7  C   UNL     1      24.446  43.481  49.473  1.00  0.00     0.015 A 
HETATM    8  N   UNL     1      22.389  46.304  48.299  1.00  0.00    -0.248 NA
HETATM    9  C   UNL     1      22.924  47.376  48.934  1.00  0.00     0.068 A 
HETATM   10  C   UNL     1      24.054  47.232  49.720  1.00  0.00     0.050 A 
ENDROOT
BRANCH   1  11
HETATM   11  C   UNL     1      25.859  45.918  50.699  1.00  0.00     0.257 C 
HETATM   12  N   UNL     1      25.652  45.862  52.065  1.00  0.00    -0.323 N 
HETATM   13  H   UNL     1      24.692  45.891  52.389  1.00  0.00     0.169 HD
HETATM   14  O   UNL     1      26.935  45.882  50.115  1.00  0.00    -0.267 OA
BRANCH  12  15
HETATM   15  C   UNL     1      26.638  45.772  53.071  1.00  0.00     0.035 A 
HETATM   16  C   UNL     1      27.442  44.645  53.272  1.00  0.00     0.044 A 
HETATM   17  C   UNL     1      28.394  44.623  54.302  1.00  0.00     0.011 A 
HETATM   18  C   UNL     1      28.555  45.749  55.118  1.00  0.00     0.015 A 
HETATM   19  C   UNL     1      27.757  46.874  54.924  1.00  0.00     0.003 A 
HETATM   20  C   UNL     1      26.796  46.881  53.912  1.00  0.00     0.029 A 
BRANCH  17  21
HETATM   21  C   UNL     1      29.243  43.425  54.567  1.00  0.00     0.155 C 
HETATM   22  C   UNL     1      30.529  43.594  55.335  1.00  0.00     0.096 C 
HETATM   23  O   UNL     1      28.891  42.323  54.150  1.00  0.00    -0.293 OA
ENDBRANCH  17  21
ENDBRANCH  12  15
ENDBRANCH   1  11
BRANCH   9  24
HETATM   24  C   UNL     1      22.200  48.660  48.766  1.00  0.00    -0.007 A 
HETATM   25  C   UNL     1      20.821  48.747  49.041  1.00  0.00     0.016 A 
HETATM   26  C   UNL     1      20.127  49.960  48.953  1.00  0.00     0.037 A 
HETATM   27  C   UNL     1      20.790  51.130  48.599  1.00  0.00     0.068 A 
HETATM   28  C   UNL     1      22.143  51.069  48.280  1.00  0.00     0.037 A 
HETATM   29  C   UNL     1      22.835  49.850  48.360  1.00  0.00     0.016 A 
BRANCH  27  30
HETATM   30  O   UNL     1      20.018  52.257  48.580  1.00  0.00    -0.356 OA
HETATM   31  C   UNL     1      18.611  52.050  48.544  1.00  0.00     0.210 C 
ENDBRANCH  27  30
ENDBRANCH   9  24
TORSDOF 5
ENDMDL
MODEL 7
REMARK VINA RESULT:      -9.4      3.201      8.466
REMARK  5 active torsions:
REMARK  status: ('A' for Active; 'I' for Inactive)
REMARK    1  A    between atoms: C_2  and  C_3 
REMARK    2  A    between atoms: C_5  and  N_6 
REMARK       I    between atoms: N_6  and  C_7 
REMARK    3  A    between atoms: C_7  and  C_8 
REMARK    4  A    between atoms: C_16  and  C_17 
REMARK    5  A    between atoms: C_20  and  O_21 
ROOT
HETATM    1  C   UNL     1      27.024  43.287  51.976  1.00  0.00     0.047 A 
HETATM    2  C   UNL     1      26.268  44.215  51.227  1.00  0.00     0.008 A 
HETATM    3  C   UNL     1      25.945  43.818  49.918  1.00  0.00     0.068 A 
HETATM    4  C   UNL     1      25.177  44.664  49.129  1.00  0.00     0.032 A 
HETATM    5  C   UNL     1      24.740  45.910  49.586  1.00  0.00     0.002 A 
HETATM    6  C   UNL     1      25.089  46.333  50.859  1.00  0.00     0.001 A 
HETATM    7  C   UNL     1      25.852  45.499  51.673  1.00  0.00     0.015 A 
HETATM    8  N   UNL     1      26.360  42.660  49.378  1.00  0.00    -0.248 NA
HETATM    9  C   UNL     1      27.151  41.815  50.085  1.00  0.00     0.068 A 
HETATM   10  C   UNL     1      27.487  42.101  51.396  1.00  0.00     0.050 A 
ENDROOT
BRANCH   1  11
HETATM   11  C   UNL     1      27.400  43.484  53.401  1.00  0.00     0.257 C 
HETATM   12  N   UNL     1      28.282  44.523  53.638  1.00  0.00    -0.323 N 
HETATM   13  H   UNL     1      28.623  45.034  52.831  1.00  0.00     0.169 HD
HETATM   14  O   UNL     1      26.871  42.763  54.237  1.00  0.00    -0.267 OA
BRANCH  12  15
HETATM   15  C   UNL     1      28.772  44.953  54.890  1.00  0.00     0.035 A 
HETATM   16  C   UNL     1      29.850  44.354  55.549  1.00  0.00     0.044 A 
HETATM   17  C   UNL     1      30.274  44.829  56.799  1.00  0.00     0.011 A 
HETATM   18  C   UNL     1      29.626  45.928  57.377  1.00  0.00     0.015 A 
HETATM   19  C   UNL     1      28.552  46.529  56.726  1.00  0.00     0.003 A 
HETATM   20  C   UNL     1      28.120  46.037  55.493  1.00  0.00     0.029 A 
BRANCH  17  21
HETATM   21  C   UNL     1      31.397  44.191  57.547  1.00  0.00     0.155 C 
HETATM   22  C   UNL     1      32.016  42.930  57.003  1.00  0.00     0.096 C 
HETATM   23  O   UNL     1      31.795  44.694  58.597  1.00  0.00    -0.293 OA
ENDBRANCH  17  21
ENDBRANCH  12  15
ENDBRANCH   1  11
BRANCH   9  24
HETATM   24  C   UNL     1      27.649  40.625  49.351  1.00  0.00    -0.007 A 
HETATM   25  C   UNL     1      27.347  40.445  47.987  1.00  0.00     0.016 A 
HETATM   26  C   UNL     1      27.858  39.366  47.255  1.00  0.00     0.037 A 
HETATM   27  C   UNL     1      28.699  38.437  47.859  1.00  0.00     0.068 A 
HETATM   28  C   UNL     1      28.982  38.565  49.215  1.00  0.00     0.037 A 
HETATM   29  C   UNL     1      28.461  39.642  49.949  1.00  0.00     0.016 A 
BRANCH  27  30
HETATM   30  O   UNL     1      29.163  37.448  47.038  1.00  0.00    -0.356 OA
HETATM   31  C   UNL     1      28.174  36.686  46.357  1.00  0.00     0.210 C 
ENDBRANCH  27  30
ENDBRANCH   9  24
TORSDOF 5
ENDMDL
MODEL 8
REMARK VINA RESULT:      -9.4      2.894      9.934
REMARK  5 active torsions:
REMARK  status: ('A' for Active; 'I' for Inactive)
REMARK    1  A    between atoms: C_2  and  C_3 
REMARK    2  A    between atoms: C_5  and  N_6 
REMARK       I    between atoms: N_6  and  C_7 
REMARK    3  A    between atoms: C_7  and  C_8 
REMARK    4  A    between atoms: C_16  and  C_17 
REMARK    5  A    between atoms: C_20  and  O_21 
ROOT
HETATM    1  C   UNL     1      24.580  46.972  49.800  1.00  0.00     0.047 A 
HETATM    2  C   UNL     1      25.493  47.968  49.393  1.00  0.00     0.008 A 
HETATM    3  C   UNL     1      24.927  49.089  48.760  1.00  0.00     0.068 A 
HETATM    4  C   UNL     1      25.758  50.126  48.359  1.00  0.00     0.032 A 
HETATM    5  C   UNL     1      27.142  50.078  48.538  1.00  0.00     0.002 A 
HETATM    6  C   UNL     1      27.719  48.959  49.120  1.00  0.00     0.001 A 
HETATM    7  C   UNL     1      26.906  47.909  49.539  1.00  0.00     0.015 A 
HETATM    8  N   UNL     1      23.613  49.201  48.505  1.00  0.00    -0.248 NA
HETATM    9  C   UNL     1      22.759  48.200  48.832  1.00  0.00     0.068 A 
HETATM   10  C   UNL     1      23.218  47.076  49.495  1.00  0.00     0.050 A 
ENDROOT
BRANCH   1  11
HETATM   11  C   UNL     1      24.969  45.749  50.552  1.00  0.00     0.257 C 
HETATM   12  N   UNL     1      25.787  45.967  51.645  1.00  0.00    -0.323 N 
HETATM   13  H   UNL     1      26.079  46.922  51.821  1.00  0.00     0.169 HD
HETATM   14  O   UNL     1      24.502  44.679  50.183  1.00  0.00    -0.267 OA
BRANCH  12  15
HETATM   15  C   UNL     1      26.271  44.999  52.551  1.00  0.00     0.035 A 
HETATM   16  C   UNL     1      27.377  44.182  52.296  1.00  0.00     0.044 A 
HETATM   17  C   UNL     1      27.794  43.231  53.240  1.00  0.00     0.011 A 
HETATM   18  C   UNL     1      27.110  43.119  54.456  1.00  0.00     0.015 A 
HETATM   19  C   UNL     1      26.007  43.929  54.716  1.00  0.00     0.003 A 
HETATM   20  C   UNL     1      25.583  44.857  53.763  1.00  0.00     0.029 A 
BRANCH  17  21
HETATM   21  C   UNL     1      28.948  42.319  52.985  1.00  0.00     0.155 C 
HETATM   22  C   UNL     1      30.342  42.797  53.299  1.00  0.00     0.096 C 
HETATM   23  O   UNL     1      28.749  41.199  52.518  1.00  0.00    -0.293 OA
ENDBRANCH  17  21
ENDBRANCH  12  15
ENDBRANCH   1  11
BRANCH   9  24
HETATM   24  C   UNL     1      21.351  48.377  48.395  1.00  0.00    -0.007 A 
HETATM   25  C   UNL     1      20.408  47.349  48.582  1.00  0.00     0.016 A 
HETATM   26  C   UNL     1      19.060  47.513  48.239  1.00  0.00     0.037 A 
HETATM   27  C   UNL     1      18.608  48.716  47.707  1.00  0.00     0.068 A 
HETATM   28  C   UNL     1      19.524  49.736  47.470  1.00  0.00     0.037 A 
HETATM   29  C   UNL     1      20.877  49.565  47.807  1.00  0.00     0.016 A 
BRANCH  27  30
HETATM   30  O   UNL     1      17.269  48.772  47.443  1.00  0.00    -0.356 OA
HETATM   31  C   UNL     1      16.462  47.796  48.093  1.00  0.00     0.210 C 
ENDBRANCH  27  30
ENDBRANCH   9  24
TORSDOF 5
ENDMDL
MODEL 9
REMARK VINA RESULT:      -9.1      2.127      2.708
REMARK  5 active torsions:
REMARK  status: ('A' for Active; 'I' for Inactive)
REMARK    1  A    between atoms: C_2  and  C_3 
REMARK    2  A    between atoms: C_5  and  N_6 
REMARK       I    between atoms: N_6  and  C_7 
REMARK    3  A    between atoms: C_7  and  C_8 
REMARK    4  A    between atoms: C_16  and  C_17 
REMARK    5  A    between atoms: C_20  and  O_21 
ROOT
HETATM    1  C   UNL     1      25.792  43.521  51.436  1.00  0.00     0.047 A 
HETATM    2  C   UNL     1      26.343  42.343  50.887  1.00  0.00     0.008 A 
HETATM    3  C   UNL     1      27.456  41.818  51.568  1.00  0.00     0.068 A 
HETATM    4  C   UNL     1      28.034  40.644  51.106  1.00  0.00     0.032 A 
HETATM    5  C   UNL     1      27.563  39.983  49.969  1.00  0.00     0.002 A 
HETATM    6  C   UNL     1      26.495  40.513  49.262  1.00  0.00     0.001 A 
HETATM    7  C   UNL     1      25.892  41.686  49.710  1.00  0.00     0.015 A 
HETATM    8  N   UNL     1      28.005  42.410  52.641  1.00  0.00    -0.248 NA
HETATM    9  C   UNL     1      27.512  43.582  53.109  1.00  0.00     0.068 A 
HETATM   10  C   UNL     1      26.393  44.154  52.529  1.00  0.00     0.050 A 
ENDROOT
BRANCH   1  11
HETATM   11  C   UNL     1      24.571  44.187  50.911  1.00  0.00     0.257 C 
HETATM   12  N   UNL     1      24.802  45.274  50.088  1.00  0.00    -0.323 N 
HETATM   13  H   UNL     1      25.767  45.546  49.942  1.00  0.00     0.169 HD
HETATM   14  O   UNL     1      23.485  43.698  51.199  1.00  0.00    -0.267 OA
BRANCH  12  15
HETATM   15  C   UNL     1      23.834  46.060  49.427  1.00  0.00     0.035 A 
HETATM   16  C   UNL     1      22.854  45.534  48.579  1.00  0.00     0.044 A 
HETATM   17  C   UNL     1      21.931  46.379  47.945  1.00  0.00     0.011 A 
HETATM   18  C   UNL     1      21.979  47.758  48.184  1.00  0.00     0.015 A 
HETATM   19  C   UNL     1      22.953  48.289  49.027  1.00  0.00     0.003 A 
HETATM   20  C   UNL     1      23.883  47.444  49.637  1.00  0.00     0.029 A 
BRANCH  17  21
HETATM   21  C   UNL     1      20.895  45.856  47.006  1.00  0.00     0.155 C 
HETATM   22  C   UNL     1      20.200  46.814  46.074  1.00  0.00     0.096 C 
HETATM   23  O   UNL     1      20.616  44.658  47.012  1.00  0.00    -0.293 OA
ENDBRANCH  17  21
ENDBRANCH  12  15
ENDBRANCH   1  11
BRANCH   9  24
HETATM   24  C   UNL     1      28.269  44.208  54.223  1.00  0.00    -0.007 A 
HETATM   25  C   UNL     1      29.465  43.630  54.690  1.00  0.00     0.016 A 
HETATM   26  C   UNL     1      30.232  44.234  55.694  1.00  0.00     0.037 A 
HETATM   27  C   UNL     1      29.836  45.443  56.256  1.00  0.00     0.068 A 
HETATM   28  C   UNL     1      28.637  46.017  55.845  1.00  0.00     0.037 A 
HETATM   29  C   UNL     1      27.865  45.405  54.845  1.00  0.00     0.016 A 
BRANCH  27  30
HETATM   30  O   UNL     1      30.680  45.953  57.201  1.00  0.00    -0.356 OA
HETATM   31  C   UNL     1      30.973  45.102  58.303  1.00  0.00     0.210 C 
ENDBRANCH  27  30
ENDBRANCH   9  24
TORSDOF 5
ENDMDL
MODEL 10
REMARK VINA RESULT:      -8.9      2.851      8.520
REMARK  5 active torsions:
REMARK  status: ('A' for Active; 'I' for Inactive)
REMARK    1  A    between atoms: C_2  and  C_3 
REMARK    2  A    between atoms: C_5  and  N_6 
REMARK       I    between atoms: N_6  and  C_7 
REMARK    3  A    between atoms: C_7  and  C_8 
REMARK    4  A    between atoms: C_16  and  C_17 
REMARK    5  A    between atoms: C_20  and  O_21 
ROOT
HETATM    1  C   UNL     1      26.588  43.595  52.092  1.00  0.00     0.047 A 
HETATM    2  C   UNL     1      26.041  44.727  51.449  1.00  0.00     0.008 A 
HETATM    3  C   UNL     1      25.434  44.484  50.205  1.00  0.00     0.068 A 
HETATM    4  C   UNL     1      24.845  45.543  49.526  1.00  0.00     0.032 A 
HETATM    5  C   UNL     1      24.863  46.847  50.028  1.00  0.00     0.002 A 
HETATM    6  C   UNL     1      25.497  47.108  51.232  1.00  0.00     0.001 A 
HETATM    7  C   UNL     1      26.088  46.062  51.937  1.00  0.00     0.015 A 
HETATM    8  N   UNL     1      25.410  43.274  49.624  1.00  0.00    -0.248 NA
HETATM    9  C   UNL     1      26.008  42.212  50.218  1.00  0.00     0.068 A 
HETATM   10  C   UNL     1      26.596  42.345  51.464  1.00  0.00     0.050 A 
ENDROOT
BRANCH   1  11
HETATM   11  C   UNL     1      27.203  43.628  53.445  1.00  0.00     0.257 C 
HETATM   12  N   UNL     1      28.561  43.888  53.468  1.00  0.00    -0.323 N 
HETATM   13  H   UNL     1      29.026  43.997  52.574  1.00  0.00     0.169 HD
HETATM   14  O   UNL     1      26.465  43.479  54.411  1.00  0.00    -0.267 OA
BRANCH  12  15
HETATM   15  C   UNL     1      29.383  44.014  54.608  1.00  0.00     0.035 A 
HETATM   16  C   UNL     1      29.186  44.974  55.605  1.00  0.00     0.044 A 
HETATM   17  C   UNL     1      30.053  45.048  56.705  1.00  0.00     0.011 A 
HETATM   18  C   UNL     1      31.109  44.135  56.816  1.00  0.00     0.015 A 
HETATM   19  C   UNL     1      31.311  43.175  55.827  1.00  0.00     0.003 A 
HETATM   20  C   UNL     1      30.459  43.123  54.722  1.00  0.00     0.029 A 
BRANCH  17  21
HETATM   21  C   UNL     1      29.894  46.083  57.769  1.00  0.00     0.155 C 
HETATM   22  C   UNL     1      28.511  46.575  58.111  1.00  0.00     0.096 C 
HETATM   23  O   UNL     1      30.887  46.526  58.343  1.00  0.00    -0.293 OA
ENDBRANCH  17  21
ENDBRANCH  12  15
ENDBRANCH   1  11
BRANCH   9  24
HETATM   24  C   UNL     1      26.026  40.952  49.433  1.00  0.00    -0.007 A 
HETATM   25  C   UNL     1      25.379  40.877  48.185  1.00  0.00     0.016 A 
HETATM   26  C   UNL     1      25.436  39.722  47.394  1.00  0.00     0.037 A 
HETATM   27  C   UNL     1      26.152  38.608  47.820  1.00  0.00     0.068 A 
HETATM   28  C   UNL     1      26.766  38.637  49.068  1.00  0.00     0.037 A 
HETATM   29  C   UNL     1      26.700  39.793  49.863  1.00  0.00     0.016 A 
BRANCH  27  30
HETATM   30  O   UNL     1      26.164  37.553  46.951  1.00  0.00    -0.356 OA
HETATM   31  C   UNL     1      26.654  36.322  47.470  1.00  0.00     0.210 C 
ENDBRANCH  27  30
ENDBRANCH   9  24
TORSDOF 5
ENDMDL
