MODEL 1
REMARK VINA RESULT:      -9.0      0.000      0.000
REMARK  6 active torsions:
REMARK  status: ('A' for Active; 'I' for Inactive)
REMARK    1  A    between atoms: C_2  and  N_3 
REMARK    2  A    between atoms: C_11  and  C_12 
REMARK    3  A    between atoms: C_14  and  C_15 
REMARK    4  A    between atoms: C_15  and  O_16 
REMARK    5  A    between atoms: O_16  and  C_17 
REMARK    6  A    between atoms: C_25  and  O_26 
ROOT
HETATM    1  N   UNL     1      15.684  48.616  45.520  1.00  0.00    -0.067 N 
HETATM    2  H   UNL     1      16.487  48.078  45.167  1.00  0.00     0.280 HD
HETATM    3  C   UNL     1      16.162  50.064  45.633  1.00  0.00     0.281 C 
HETATM    4  C   UNL     1      17.120  50.224  46.762  1.00  0.00     0.018 A 
HETATM    5  C   UNL     1      17.323  49.305  47.775  1.00  0.00    -0.023 A 
HETATM    6  C   UNL     1      18.285  49.784  48.722  1.00  0.00     0.073 A 
HETATM    7  C   UNL     1      18.753  51.032  48.387  1.00  0.00     0.088 A 
HETATM    8  N   UNL     1      19.648  51.711  49.134  1.00  0.00    -0.358 N 
HETATM    9  C   UNL     1      20.456  50.983  50.095  1.00  0.00     0.219 C 
HETATM   10  N   UNL     1      19.694  49.888  50.644  1.00  0.00    -0.332 N 
HETATM   11  C   UNL     1      18.774  49.161  49.939  1.00  0.00     0.256 C 
HETATM   12  O   UNL     1      18.385  48.064  50.324  1.00  0.00    -0.267 OA
HETATM   13  S   UNL     1      18.065  51.627  46.951  1.00  0.00    -0.074 SA
HETATM   14  C   UNL     1      16.590  48.000  47.803  1.00  0.00     0.068 C 
HETATM   15  C   UNL     1      15.345  48.037  46.899  1.00  0.00     0.240 C 
HETATM   16  H   UNL     1      20.091  52.535  48.740  1.00  0.00     0.162 HD
HETATM   17  H   UNL     1      20.060  49.429  51.465  1.00  0.00     0.165 HD
ENDROOT
BRANCH   9  18
HETATM   18  C   UNL     1      21.789  50.575  49.482  1.00  0.00    -0.016 A 
HETATM   19  C   UNL     1      22.373  49.350  49.860  1.00  0.00     0.023 A 
HETATM   20  C   UNL     1      23.601  48.912  49.321  1.00  0.00    -0.000 A 
HETATM   21  C   UNL     1      24.256  49.712  48.373  1.00  0.00     0.076 A 
HETATM   22  C   UNL     1      23.688  50.930  47.991  1.00  0.00     0.038 A 
HETATM   23  C   UNL     1      22.471  51.355  48.539  1.00  0.00     0.014 A 
BRANCH  20  24
HETATM   24  C   UNL     1      24.191  47.599  49.795  1.00  0.00     0.217 C 
BRANCH  24  25
HETATM   25  O   UNL     1      25.065  47.855  50.900  1.00  0.00    -0.347 OA
BRANCH  25  26
HETATM   26  C   UNL     1      25.303  46.812  51.753  1.00  0.00     0.070 A 
HETATM   27  C   UNL     1      26.148  47.117  52.826  1.00  0.00     0.063 A 
HETATM   28  C   UNL     1      26.471  46.141  53.769  1.00  0.00     0.075 A 
HETATM   29 CL   UNL     1      27.510  46.540  55.081  1.00  0.00    -0.081 Cl
HETATM   30  C   UNL     1      25.951  44.856  53.640  1.00  0.00     0.138 A 
HETATM   31  F   UNL     1      26.247  43.900  54.532  1.00  0.00    -0.204 F 
HETATM   32  C   UNL     1      25.114  44.540  52.575  1.00  0.00     0.047 A 
HETATM   33  C   UNL     1      24.790  45.517  51.628  1.00  0.00     0.040 A 
ENDBRANCH  25  26
ENDBRANCH  24  25
ENDBRANCH  20  24
BRANCH  21  34
HETATM   34  O   UNL     1      25.454  49.246  47.902  1.00  0.00    -0.355 OA
HETATM   35  C   UNL     1      26.625  49.950  48.300  1.00  0.00     0.210 C 
ENDBRANCH  21  34
ENDBRANCH   9  18
BRANCH   1  36
HETATM   36  C   UNL     1      14.539  48.440  44.554  1.00  0.00     0.231 C 
HETATM   37  C   UNL     1      13.320  47.862  45.249  1.00  0.00     0.034 C 
ENDBRANCH   1  36
TORSDOF 6
ENDMDL
MODEL 2
REMARK VINA RESULT:      -8.8      7.319      9.792
REMARK  6 active torsions:
REMARK  status: ('A' for Active; 'I' for Inactive)
REMARK    1  A    between atoms: C_2  and  N_3 
REMARK    2  A    between atoms: C_11  and  C_12 
REMARK    3  A    between atoms: C_14  and  C_15 
REMARK    4  A    between atoms: C_15  and  O_16 
REMARK    5  A    between atoms: O_16  and  C_17 
REMARK    6  A    between atoms: C_25  and  O_26 
ROOT
HETATM    1  N   UNL     1      27.830  39.362  45.544  1.00  0.00    -0.067 N 
HETATM    2  H   UNL     1      28.418  40.205  45.570  1.00  0.00     0.280 HD
HETATM    3  C   UNL     1      26.384  39.855  45.508  1.00  0.00     0.281 C 
HETATM    4  C   UNL     1      25.982  40.432  46.820  1.00  0.00     0.018 A 
HETATM    5  C   UNL     1      26.670  40.271  48.009  1.00  0.00    -0.023 A 
HETATM    6  C   UNL     1      25.993  40.923  49.090  1.00  0.00     0.073 A 
HETATM    7  C   UNL     1      24.834  41.533  48.673  1.00  0.00     0.088 A 
HETATM    8  N   UNL     1      24.004  42.192  49.507  1.00  0.00    -0.358 N 
HETATM    9  C   UNL     1      24.508  42.632  50.795  1.00  0.00     0.219 C 
HETATM   10  N   UNL     1      25.477  41.685  51.291  1.00  0.00    -0.332 N 
HETATM   11  C   UNL     1      26.347  40.987  50.497  1.00  0.00     0.256 C 
HETATM   12  O   UNL     1      27.346  40.445  50.955  1.00  0.00    -0.267 OA
HETATM   13  S   UNL     1      24.557  41.344  47.007  1.00  0.00    -0.074 SA
HETATM   14  C   UNL     1      27.951  39.499  48.070  1.00  0.00     0.068 C 
HETATM   15  C   UNL     1      28.118  38.591  46.839  1.00  0.00     0.240 C 
HETATM   16  H   UNL     1      23.273  42.774  49.112  1.00  0.00     0.162 HD
HETATM   17  H   UNL     1      25.752  41.761  52.259  1.00  0.00     0.165 HD
ENDROOT
BRANCH   9  18
HETATM   18  C   UNL     1      25.015  44.066  50.716  1.00  0.00    -0.016 A 
HETATM   19  C   UNL     1      25.165  44.808  51.903  1.00  0.00     0.023 A 
HETATM   20  C   UNL     1      25.640  46.137  51.897  1.00  0.00    -0.000 A 
HETATM   21  C   UNL     1      25.981  46.735  50.675  1.00  0.00     0.076 A 
HETATM   22  C   UNL     1      25.834  46.010  49.490  1.00  0.00     0.038 A 
HETATM   23  C   UNL     1      25.357  44.694  49.511  1.00  0.00     0.014 A 
BRANCH  20  24
HETATM   24  C   UNL     1      25.747  46.891  53.207  1.00  0.00     0.217 C 
BRANCH  24  25
HETATM   25  O   UNL     1      25.902  45.949  54.275  1.00  0.00    -0.347 OA
BRANCH  25  26
HETATM   26  C   UNL     1      27.178  45.709  54.707  1.00  0.00     0.070 A 
HETATM   27  C   UNL     1      27.692  44.461  54.340  1.00  0.00     0.063 A 
HETATM   28  C   UNL     1      28.983  44.092  54.718  1.00  0.00     0.075 A 
HETATM   29 CL   UNL     1      29.596  42.552  54.253  1.00  0.00    -0.081 Cl
HETATM   30  C   UNL     1      29.762  44.970  55.467  1.00  0.00     0.138 A 
HETATM   31  F   UNL     1      31.005  44.639  55.843  1.00  0.00    -0.204 F 
HETATM   32  C   UNL     1      29.259  46.212  55.841  1.00  0.00     0.047 A 
HETATM   33  C   UNL     1      27.965  46.583  55.464  1.00  0.00     0.040 A 
ENDBRANCH  25  26
ENDBRANCH  24  25
ENDBRANCH  20  24
BRANCH  21  34
HETATM   34  O   UNL     1      26.414  48.033  50.729  1.00  0.00    -0.355 OA
HETATM   35  C   UNL     1      26.922  48.596  49.526  1.00  0.00     0.210 C 
ENDBRANCH  21  34
ENDBRANCH   9  18
BRANCH   1  36
HETATM   36  C   UNL     1      28.217  38.556  44.329  1.00  0.00     0.231 C 
HETATM   37  C   UNL     1      28.819  37.221  44.725  1.00  0.00     0.034 C 
ENDBRANCH   1  36
TORSDOF 6
ENDMDL
MODEL 3
REMARK VINA RESULT:      -8.8      5.673     10.159
REMARK  6 active torsions:
REMARK  status: ('A' for Active; 'I' for Inactive)
REMARK    1  A    between atoms: C_2  and  N_3 
REMARK    2  A    between atoms: C_11  and  C_12 
REMARK    3  A    between atoms: C_14  and  C_15 
REMARK    4  A    between atoms: C_15  and  O_16 
REMARK    5  A    between atoms: O_16  and  C_17 
REMARK    6  A    between atoms: C_25  and  O_26 
ROOT
HETATM    1  N   UNL     1      28.429  39.770  49.160  1.00  0.00    -0.067 N 
HETATM    2  H   UNL     1      29.041  40.539  48.858  1.00  0.00     0.280 HD
HETATM    3  C   UNL     1      27.043  40.086  48.599  1.00  0.00     0.281 C 
HETATM    4  C   UNL     1      26.423  41.231  49.320  1.00  0.00     0.018 A 
HETATM    5  C   UNL     1      26.859  41.748  50.527  1.00  0.00    -0.023 A 
HETATM    6  C   UNL     1      26.017  42.822  50.963  1.00  0.00     0.073 A 
HETATM    7  C   UNL     1      24.992  43.059  50.079  1.00  0.00     0.088 A 
HETATM    8  N   UNL     1      24.049  44.003  50.277  1.00  0.00    -0.358 N 
HETATM    9  C   UNL     1      24.315  45.073  51.220  1.00  0.00     0.219 C 
HETATM   10  N   UNL     1      25.122  44.576  52.308  1.00  0.00    -0.332 N 
HETATM   11  C   UNL     1      26.094  43.623  52.172  1.00  0.00     0.256 C 
HETATM   12  O   UNL     1      26.959  43.455  53.024  1.00  0.00    -0.267 OA
HETATM   13  S   UNL     1      25.035  42.023  48.733  1.00  0.00    -0.074 SA
HETATM   14  C   UNL     1      28.065  41.196  51.220  1.00  0.00     0.068 C 
HETATM   15  C   UNL     1      28.423  39.796  50.694  1.00  0.00     0.240 C 
HETATM   16  H   UNL     1      23.437  44.253  49.506  1.00  0.00     0.162 HD
HETATM   17  H   UNL     1      25.208  45.157  53.129  1.00  0.00     0.165 HD
ENDROOT
BRANCH   9  18
HETATM   18  C   UNL     1      24.896  46.288  50.510  1.00  0.00    -0.016 A 
HETATM   19  C   UNL     1      24.022  47.228  49.929  1.00  0.00     0.023 A 
HETATM   20  C   UNL     1      24.498  48.379  49.267  1.00  0.00    -0.000 A 
HETATM   21  C   UNL     1      25.882  48.600  49.190  1.00  0.00     0.076 A 
HETATM   22  C   UNL     1      26.759  47.674  49.760  1.00  0.00     0.038 A 
HETATM   23  C   UNL     1      26.272  46.534  50.410  1.00  0.00     0.014 A 
BRANCH  20  24
HETATM   24  C   UNL     1      23.506  49.334  48.636  1.00  0.00     0.217 C 
BRANCH  24  25
HETATM   25  O   UNL     1      22.674  49.886  49.662  1.00  0.00    -0.347 OA
BRANCH  25  26
HETATM   26  C   UNL     1      21.322  49.743  49.505  1.00  0.00     0.070 A 
HETATM   27  C   UNL     1      20.584  50.912  49.716  1.00  0.00     0.063 A 
HETATM   28  C   UNL     1      19.194  50.900  49.587  1.00  0.00     0.075 A 
HETATM   29 CL   UNL     1      18.306  52.352  49.849  1.00  0.00    -0.081 Cl
HETATM   30  C   UNL     1      18.540  49.719  49.249  1.00  0.00     0.138 A 
HETATM   31  F   UNL     1      17.207  49.682  49.120  1.00  0.00    -0.204 F 
HETATM   32  C   UNL     1      19.264  48.549  49.042  1.00  0.00     0.047 A 
HETATM   33  C   UNL     1      20.657  48.558  49.171  1.00  0.00     0.040 A 
ENDBRANCH  25  26
ENDBRANCH  24  25
ENDBRANCH  20  24
BRANCH  21  34
HETATM   34  O   UNL     1      26.285  49.722  48.516  1.00  0.00    -0.355 OA
HETATM   35  C   UNL     1      27.611  50.179  48.756  1.00  0.00     0.210 C 
ENDBRANCH  21  34
ENDBRANCH   9  18
BRANCH   1  36
HETATM   36  C   UNL     1      29.005  38.478  48.636  1.00  0.00     0.231 C 
HETATM   37  C   UNL     1      30.175  38.015  49.483  1.00  0.00     0.034 C 
ENDBRANCH   1  36
TORSDOF 6
ENDMDL
MODEL 4
REMARK VINA RESULT:      -8.7      6.254     10.193
REMARK  6 active torsions:
REMARK  status: ('A' for Active; 'I' for Inactive)
REMARK    1  A    between atoms: C_2  and  N_3 
REMARK    2  A    between atoms: C_11  and  C_12 
REMARK    3  A    between atoms: C_14  and  C_15 
REMARK    4  A    between atoms: C_15  and  O_16 
REMARK    5  A    between atoms: O_16  and  C_17 
REMARK    6  A    between atoms: C_25  and  O_26 
ROOT
HETATM    1  N   UNL     1      27.711  39.559  46.632  1.00  0.00    -0.067 N 
HETATM    2  H   UNL     1      28.101  40.452  46.303  1.00  0.00     0.280 HD
HETATM    3  C   UNL     1      26.214  39.799  46.830  1.00  0.00     0.281 C 
HETATM    4  C   UNL     1      25.964  40.663  48.016  1.00  0.00     0.018 A 
HETATM    5  C   UNL     1      26.888  40.958  49.002  1.00  0.00    -0.023 A 
HETATM    6  C   UNL     1      26.314  41.785  50.020  1.00  0.00     0.073 A 
HETATM    7  C   UNL     1      24.994  42.069  49.762  1.00  0.00     0.088 A 
HETATM    8  N   UNL     1      24.222  42.809  50.584  1.00  0.00    -0.358 N 
HETATM    9  C   UNL     1      24.863  43.673  51.559  1.00  0.00     0.219 C 
HETATM   10  N   UNL     1      26.088  43.065  52.020  1.00  0.00    -0.332 N 
HETATM   11  C   UNL     1      26.913  42.306  51.236  1.00  0.00     0.256 C 
HETATM   12  O   UNL     1      28.074  42.074  51.553  1.00  0.00    -0.267 OA
HETATM   13  S   UNL     1      24.443  41.368  48.315  1.00  0.00    -0.074 SA
HETATM   14  C   UNL     1      28.290  40.437  48.935  1.00  0.00     0.068 C 
HETATM   15  C   UNL     1      28.402  39.248  47.966  1.00  0.00     0.240 C 
HETATM   16  H   UNL     1      23.321  43.136  50.250  1.00  0.00     0.162 HD
HETATM   17  H   UNL     1      26.524  43.458  52.841  1.00  0.00     0.165 HD
ENDROOT
BRANCH   9  18
HETATM   18  C   UNL     1      25.031  45.081  51.005  1.00  0.00    -0.016 A 
HETATM   19  C   UNL     1      24.066  45.589  50.114  1.00  0.00     0.023 A 
HETATM   20  C   UNL     1      24.159  46.889  49.575  1.00  0.00    -0.000 A 
HETATM   21  C   UNL     1      25.240  47.705  49.942  1.00  0.00     0.076 A 
HETATM   22  C   UNL     1      26.206  47.212  50.823  1.00  0.00     0.038 A 
HETATM   23  C   UNL     1      26.102  45.918  51.347  1.00  0.00     0.014 A 
BRANCH  20  24
HETATM   24  C   UNL     1      23.104  47.363  48.596  1.00  0.00     0.217 C 
BRANCH  24  25
HETATM   25  O   UNL     1      21.936  47.755  49.325  1.00  0.00    -0.347 OA
BRANCH  25  26
HETATM   26  C   UNL     1      21.447  49.010  49.081  1.00  0.00     0.070 A 
HETATM   27  C   UNL     1      20.120  49.205  49.476  1.00  0.00     0.063 A 
HETATM   28  C   UNL     1      19.502  50.441  49.282  1.00  0.00     0.075 A 
HETATM   29 CL   UNL     1      17.868  50.660  49.779  1.00  0.00    -0.081 Cl
HETATM   30  C   UNL     1      20.210  51.483  48.690  1.00  0.00     0.138 A 
HETATM   31  F   UNL     1      19.639  52.680  48.492  1.00  0.00    -0.204 F 
HETATM   32  C   UNL     1      21.529  51.298  48.289  1.00  0.00     0.047 A 
HETATM   33  C   UNL     1      22.150  50.060  48.482  1.00  0.00     0.040 A 
ENDBRANCH  25  26
ENDBRANCH  24  25
ENDBRANCH  20  24
BRANCH  21  34
HETATM   34  O   UNL     1      25.290  48.948  49.370  1.00  0.00    -0.355 OA
HETATM   35  C   UNL     1      26.531  49.351  48.803  1.00  0.00     0.210 C 
ENDBRANCH  21  34
ENDBRANCH   9  18
BRANCH   1  36
HETATM   36  C   UNL     1      28.014  38.504  45.598  1.00  0.00     0.231 C 
HETATM   37  C   UNL     1      26.739  37.887  45.053  1.00  0.00     0.034 C 
ENDBRANCH   1  36
TORSDOF 6
ENDMDL
MODEL 5
REMARK VINA RESULT:      -8.7      2.695      3.915
REMARK  6 active torsions:
REMARK  status: ('A' for Active; 'I' for Inactive)
REMARK    1  A    between atoms: C_2  and  N_3 
REMARK    2  A    between atoms: C_11  and  C_12 
REMARK    3  A    between atoms: C_14  and  C_15 
REMARK    4  A    between atoms: C_15  and  O_16 
REMARK    5  A    between atoms: O_16  and  C_17 
REMARK    6  A    between atoms: C_25  and  O_26 
ROOT
HETATM    1  N   UNL     1      16.673  51.409  48.668  1.00  0.00    -0.067 N 
HETATM    2  H   UNL     1      16.601  50.511  49.164  1.00  0.00     0.280 HD
HETATM    3  C   UNL     1      17.482  51.130  47.401  1.00  0.00     0.281 C 
HETATM    4  C   UNL     1      18.913  50.878  47.726  1.00  0.00     0.018 A 
HETATM    5  C   UNL     1      19.522  51.162  48.934  1.00  0.00    -0.023 A 
HETATM    6  C   UNL     1      20.916  50.832  48.902  1.00  0.00     0.073 A 
HETATM    7  C   UNL     1      21.291  50.326  47.680  1.00  0.00     0.088 A 
HETATM    8  N   UNL     1      22.558  49.964  47.388  1.00  0.00    -0.358 N 
HETATM    9  C   UNL     1      23.483  49.709  48.477  1.00  0.00     0.219 C 
HETATM   10  N   UNL     1      23.187  50.585  49.585  1.00  0.00    -0.332 N 
HETATM   11  C   UNL     1      21.926  50.987  49.932  1.00  0.00     0.256 C 
HETATM   12  O   UNL     1      21.680  51.458  51.037  1.00  0.00    -0.267 OA
HETATM   13  S   UNL     1      19.997  50.231  46.583  1.00  0.00    -0.074 SA
HETATM   14  C   UNL     1      18.749  51.740  50.079  1.00  0.00     0.068 C 
HETATM   15  C   UNL     1      17.426  52.363  49.605  1.00  0.00     0.240 C 
HETATM   16  H   UNL     1      22.732  49.427  46.544  1.00  0.00     0.162 HD
HETATM   17  H   UNL     1      23.875  50.656  50.321  1.00  0.00     0.165 HD
ENDROOT
BRANCH   9  18
HETATM   18  C   UNL     1      23.504  48.229  48.835  1.00  0.00    -0.016 A 
HETATM   19  C   UNL     1      24.259  47.801  49.944  1.00  0.00     0.023 A 
HETATM   20  C   UNL     1      24.310  46.446  50.333  1.00  0.00    -0.000 A 
HETATM   21  C   UNL     1      23.583  45.497  49.599  1.00  0.00     0.076 A 
HETATM   22  C   UNL     1      22.833  45.908  48.495  1.00  0.00     0.038 A 
HETATM   23  C   UNL     1      22.795  47.256  48.118  1.00  0.00     0.014 A 
BRANCH  20  24
HETATM   24  C   UNL     1      25.167  46.047  51.517  1.00  0.00     0.217 C 
BRANCH  24  25
HETATM   25  O   UNL     1      25.319  47.177  52.383  1.00  0.00    -0.347 OA
BRANCH  25  26
HETATM   26  C   UNL     1      26.135  47.017  53.469  1.00  0.00     0.070 A 
HETATM   27  C   UNL     1      26.875  45.830  53.473  1.00  0.00     0.063 A 
HETATM   28  C   UNL     1      27.746  45.546  54.526  1.00  0.00     0.075 A 
HETATM   29 CL   UNL     1      28.649  44.080  54.507  1.00  0.00    -0.081 Cl
HETATM   30  C   UNL     1      27.877  46.448  55.578  1.00  0.00     0.138 A 
HETATM   31  F   UNL     1      28.707  46.198  56.601  1.00  0.00    -0.204 F 
HETATM   32  C   UNL     1      27.143  47.629  55.587  1.00  0.00     0.047 A 
HETATM   33  C   UNL     1      26.269  47.915  54.533  1.00  0.00     0.040 A 
ENDBRANCH  25  26
ENDBRANCH  24  25
ENDBRANCH  20  24
BRANCH  21  34
HETATM   34  O   UNL     1      23.689  44.195  50.009  1.00  0.00    -0.355 OA
HETATM   35  C   UNL     1      22.631  43.314  49.649  1.00  0.00     0.210 C 
ENDBRANCH  21  34
ENDBRANCH   9  18
BRANCH   1  36
HETATM   36  C   UNL     1      15.277  51.904  48.387  1.00  0.00     0.231 C 
HETATM   37  C   UNL     1      15.234  52.736  47.118  1.00  0.00     0.034 C 
ENDBRANCH   1  36
TORSDOF 6
ENDMDL
MODEL 6
REMARK VINA RESULT:      -8.5      5.005      8.011
REMARK  6 active torsions:
REMARK  status: ('A' for Active; 'I' for Inactive)
REMARK    1  A    between atoms: C_2  and  N_3 
REMARK    2  A    between atoms: C_11  and  C_12 
REMARK    3  A    between atoms: C_14  and  C_15 
REMARK    4  A    between atoms: C_15  and  O_16 
REMARK    5  A    between atoms: O_16  and  C_17 
REMARK    6  A    between atoms: C_25  and  O_26 
ROOT
HETATM    1  N   UNL     1      23.972  49.013  48.238  1.00  0.00    -0.067 N 
HETATM    2  H   UNL     1      24.657  48.590  47.598  1.00  0.00     0.280 HD
HETATM    3  C   UNL     1      24.452  48.682  49.651  1.00  0.00     0.281 C 
HETATM    4  C   UNL     1      24.259  47.238  49.957  1.00  0.00     0.018 A 
HETATM    5  C   UNL     1      23.475  46.363  49.227  1.00  0.00    -0.023 A 
HETATM    6  C   UNL     1      23.477  45.056  49.812  1.00  0.00     0.073 A 
HETATM    7  C   UNL     1      24.248  45.007  50.949  1.00  0.00     0.088 A 
HETATM    8  N   UNL     1      24.391  43.894  51.698  1.00  0.00    -0.358 N 
HETATM    9  C   UNL     1      24.070  42.607  51.110  1.00  0.00     0.219 C 
HETATM   10  N   UNL     1      22.976  42.753  50.180  1.00  0.00    -0.332 N 
HETATM   11  C   UNL     1      22.779  43.854  49.393  1.00  0.00     0.256 C 
HETATM   12  O   UNL     1      22.048  43.822  48.409  1.00  0.00    -0.267 OA
HETATM   13  S   UNL     1      24.976  46.499  51.312  1.00  0.00    -0.074 SA
HETATM   14  C   UNL     1      22.751  46.808  47.994  1.00  0.00     0.068 C 
HETATM   15  C   UNL     1      22.626  48.340  47.939  1.00  0.00     0.240 C 
HETATM   16  H   UNL     1      25.115  43.871  52.410  1.00  0.00     0.162 HD
HETATM   17  H   UNL     1      22.522  41.911  49.858  1.00  0.00     0.165 HD
ENDROOT
BRANCH   9  18
HETATM   18  C   UNL     1      25.314  41.957  50.520  1.00  0.00    -0.016 A 
HETATM   19  C   UNL     1      26.469  41.833  51.316  1.00  0.00     0.023 A 
HETATM   20  C   UNL     1      27.648  41.231  50.831  1.00  0.00    -0.000 A 
HETATM   21  C   UNL     1      27.672  40.734  49.519  1.00  0.00     0.076 A 
HETATM   22  C   UNL     1      26.534  40.853  48.718  1.00  0.00     0.038 A 
HETATM   23  C   UNL     1      25.371  41.457  49.212  1.00  0.00     0.014 A 
BRANCH  20  24
HETATM   24  C   UNL     1      28.866  41.158  51.729  1.00  0.00     0.217 C 
BRANCH  24  25
HETATM   25  O   UNL     1      29.500  42.442  51.759  1.00  0.00    -0.347 OA
BRANCH  25  26
HETATM   26  C   UNL     1      29.335  43.187  52.894  1.00  0.00     0.070 A 
HETATM   27  C   UNL     1      30.277  42.938  53.898  1.00  0.00     0.063 A 
HETATM   28  C   UNL     1      30.219  43.632  55.107  1.00  0.00     0.075 A 
HETATM   29 CL   UNL     1      31.391  43.311  56.326  1.00  0.00    -0.081 Cl
HETATM   30  C   UNL     1      29.217  44.575  55.316  1.00  0.00     0.138 A 
HETATM   31  F   UNL     1      29.139  45.254  56.469  1.00  0.00    -0.204 F 
HETATM   32  C   UNL     1      28.271  44.827  54.327  1.00  0.00     0.047 A 
HETATM   33  C   UNL     1      28.327  44.132  53.114  1.00  0.00     0.040 A 
ENDBRANCH  25  26
ENDBRANCH  24  25
ENDBRANCH  20  24
BRANCH  21  34
HETATM   34  O   UNL     1      28.851  40.181  49.096  1.00  0.00    -0.355 OA
HETATM   35  C   UNL     1      28.887  38.767  48.947  1.00  0.00     0.210 C 
ENDBRANCH  21  34
ENDBRANCH   9  18
BRANCH   1  36
HETATM   36  C   UNL     1      23.919  50.494  47.957  1.00  0.00     0.231 C 
HETATM   37  C   UNL     1      22.532  51.052  48.214  1.00  0.00     0.034 C 
ENDBRANCH   1  36
TORSDOF 6
ENDMDL
MODEL 7
REMARK VINA RESULT:      -8.4     11.641     14.814
REMARK  6 active torsions:
REMARK  status: ('A' for Active; 'I' for Inactive)
REMARK    1  A    between atoms: C_2  and  N_3 
REMARK    2  A    between atoms: C_11  and  C_12 
REMARK    3  A    between atoms: C_14  and  C_15 
REMARK    4  A    between atoms: C_15  and  O_16 
REMARK    5  A    between atoms: O_16  and  C_17 
REMARK    6  A    between atoms: C_25  and  O_26 
ROOT
HETATM    1  N   UNL     1      34.099  51.347  41.992  1.00  0.00    -0.067 N 
HETATM    2  H   UNL     1      33.867  50.346  41.943  1.00  0.00     0.280 HD
HETATM    3  C   UNL     1      32.826  52.054  42.455  1.00  0.00     0.281 C 
HETATM    4  C   UNL     1      31.796  52.061  41.379  1.00  0.00     0.018 A 
HETATM    5  C   UNL     1      32.029  51.772  40.047  1.00  0.00    -0.023 A 
HETATM    6  C   UNL     1      30.833  51.908  39.272  1.00  0.00     0.073 A 
HETATM    7  C   UNL     1      29.765  52.295  40.045  1.00  0.00     0.088 A 
HETATM    8  N   UNL     1      28.531  52.515  39.545  1.00  0.00    -0.358 N 
HETATM    9  C   UNL     1      28.189  51.957  38.250  1.00  0.00     0.219 C 
HETATM   10  N   UNL     1      29.355  51.945  37.400  1.00  0.00    -0.332 N 
HETATM   11  C   UNL     1      30.630  51.726  37.846  1.00  0.00     0.256 C 
HETATM   12  O   UNL     1      31.536  51.411  37.082  1.00  0.00    -0.267 OA
HETATM   13  S   UNL     1      30.176  52.485  41.683  1.00  0.00    -0.074 SA
HETATM   14  C   UNL     1      33.390  51.377  39.562  1.00  0.00     0.068 C 
HETATM   15  C   UNL     1      34.482  51.774  40.569  1.00  0.00     0.240 C 
HETATM   16  H   UNL     1      27.752  52.614  40.188  1.00  0.00     0.162 HD
HETATM   17  H   UNL     1      29.213  51.774  36.415  1.00  0.00     0.165 HD
ENDROOT
BRANCH   9  18
HETATM   18  C   UNL     1      27.512  50.602  38.407  1.00  0.00    -0.016 A 
HETATM   19  C   UNL     1      28.274  49.430  38.241  1.00  0.00     0.023 A 
HETATM   20  C   UNL     1      27.708  48.146  38.384  1.00  0.00    -0.000 A 
HETATM   21  C   UNL     1      26.347  48.031  38.707  1.00  0.00     0.076 A 
HETATM   22  C   UNL     1      25.580  49.186  38.872  1.00  0.00     0.038 A 
HETATM   23  C   UNL     1      26.154  50.454  38.723  1.00  0.00     0.014 A 
BRANCH  20  24
HETATM   24  C   UNL     1      28.576  46.924  38.161  1.00  0.00     0.217 C 
BRANCH  24  25
HETATM   25  O   UNL     1      28.851  46.312  39.426  1.00  0.00    -0.347 OA
BRANCH  25  26
HETATM   26  C   UNL     1      29.381  47.115  40.399  1.00  0.00     0.070 A 
HETATM   27  C   UNL     1      30.773  47.248  40.351  1.00  0.00     0.063 A 
HETATM   28  C   UNL     1      31.437  48.040  41.288  1.00  0.00     0.075 A 
HETATM   29 CL   UNL     1      33.150  48.191  41.208  1.00  0.00    -0.081 Cl
HETATM   30  C   UNL     1      30.712  48.699  42.276  1.00  0.00     0.138 A 
HETATM   31  F   UNL     1      31.327  49.465  43.188  1.00  0.00    -0.204 F 
HETATM   32  C   UNL     1      29.328  48.570  42.336  1.00  0.00     0.047 A 
HETATM   33  C   UNL     1      28.660  47.776  41.398  1.00  0.00     0.040 A 
ENDBRANCH  25  26
ENDBRANCH  24  25
ENDBRANCH  20  24
BRANCH  21  34
HETATM   34  O   UNL     1      25.848  46.760  38.811  1.00  0.00    -0.355 OA
HETATM   35  C   UNL     1      25.387  46.348  40.092  1.00  0.00     0.210 C 
ENDBRANCH  21  34
ENDBRANCH   9  18
BRANCH   1  36
HETATM   36  C   UNL     1      35.255  51.516  42.946  1.00  0.00     0.231 C 
HETATM   37  C   UNL     1      36.491  50.794  42.442  1.00  0.00     0.034 C 
ENDBRANCH   1  36
TORSDOF 6
ENDMDL
MODEL 8
REMARK VINA RESULT:      -8.2      7.537      9.982
REMARK  6 active torsions:
REMARK  status: ('A' for Active; 'I' for Inactive)
REMARK    1  A    between atoms: C_2  and  N_3 
REMARK    2  A    between atoms: C_11  and  C_12 
REMARK    3  A    between atoms: C_14  and  C_15 
REMARK    4  A    between atoms: C_15  and  O_16 
REMARK    5  A    between atoms: O_16  and  C_17 
REMARK    6  A    between atoms: C_25  and  O_26 
ROOT
HETATM    1  N   UNL     1      26.756  40.224  43.610  1.00  0.00    -0.067 N 
HETATM    2  H   UNL     1      27.039  41.213  43.601  1.00  0.00     0.280 HD
HETATM    3  C   UNL     1      25.419  40.172  44.348  1.00  0.00     0.281 C 
HETATM    4  C   UNL     1      25.603  40.419  45.805  1.00  0.00     0.018 A 
HETATM    5  C   UNL     1      26.811  40.382  46.477  1.00  0.00    -0.023 A 
HETATM    6  C   UNL     1      26.633  40.627  47.877  1.00  0.00     0.073 A 
HETATM    7  C   UNL     1      25.311  40.828  48.194  1.00  0.00     0.088 A 
HETATM    8  N   UNL     1      24.879  41.052  49.452  1.00  0.00    -0.358 N 
HETATM    9  C   UNL     1      25.832  41.497  50.453  1.00  0.00     0.219 C 
HETATM   10  N   UNL     1      27.123  40.907  50.194  1.00  0.00    -0.332 N 
HETATM   11  C   UNL     1      27.617  40.656  48.943  1.00  0.00     0.256 C 
HETATM   12  O   UNL     1      28.811  40.457  48.748  1.00  0.00    -0.267 OA
HETATM   13  S   UNL     1      24.289  40.739  46.839  1.00  0.00    -0.074 SA
HETATM   14  C   UNL     1      28.096  40.115  45.755  1.00  0.00     0.068 C 
HETATM   15  C   UNL     1      27.844  39.468  44.383  1.00  0.00     0.240 C 
HETATM   16  H   UNL     1      23.927  41.377  49.594  1.00  0.00     0.162 HD
HETATM   17  H   UNL     1      27.819  40.968  50.922  1.00  0.00     0.165 HD
ENDROOT
BRANCH   9  18
HETATM   18  C   UNL     1      25.844  43.017  50.550  1.00  0.00    -0.016 A 
HETATM   19  C   UNL     1      26.350  43.627  51.714  1.00  0.00     0.023 A 
HETATM   20  C   UNL     1      26.398  45.029  51.861  1.00  0.00    -0.000 A 
HETATM   21  C   UNL     1      25.936  45.841  50.815  1.00  0.00     0.076 A 
HETATM   22  C   UNL     1      25.429  45.249  49.656  1.00  0.00     0.038 A 
HETATM   23  C   UNL     1      25.383  43.855  49.526  1.00  0.00     0.014 A 
BRANCH  20  24
HETATM   24  C   UNL     1      26.925  45.621  53.152  1.00  0.00     0.217 C 
BRANCH  24  25
HETATM   25  O   UNL     1      27.048  44.578  54.126  1.00  0.00    -0.347 OA
BRANCH  25  26
HETATM   26  C   UNL     1      28.297  44.358  54.641  1.00  0.00     0.070 A 
HETATM   27  C   UNL     1      28.644  45.197  55.705  1.00  0.00     0.063 A 
HETATM   28  C   UNL     1      29.891  45.076  56.319  1.00  0.00     0.075 A 
HETATM   29 CL   UNL     1      30.296  46.117  57.629  1.00  0.00    -0.081 Cl
HETATM   30  C   UNL     1      30.794  44.117  55.869  1.00  0.00     0.138 A 
HETATM   31  F   UNL     1      31.998  43.981  56.442  1.00  0.00    -0.204 F 
HETATM   32  C   UNL     1      30.461  43.281  54.808  1.00  0.00     0.047 A 
HETATM   33  C   UNL     1      29.212  43.401  54.191  1.00  0.00     0.040 A 
ENDBRANCH  25  26
ENDBRANCH  24  25
ENDBRANCH  20  24
BRANCH  21  34
HETATM   34  O   UNL     1      25.986  47.194  51.023  1.00  0.00    -0.355 OA
HETATM   35  C   UNL     1      26.554  47.988  49.987  1.00  0.00     0.210 C 
ENDBRANCH  21  34
ENDBRANCH   9  18
BRANCH   1  36
HETATM   36  C   UNL     1      26.668  39.749  42.181  1.00  0.00     0.231 C 
HETATM   37  C   UNL     1      27.467  40.645  41.254  1.00  0.00     0.034 C 
ENDBRANCH   1  36
TORSDOF 6
ENDMDL
MODEL 9
REMARK VINA RESULT:      -8.2      9.047     12.245
REMARK  6 active torsions:
REMARK  status: ('A' for Active; 'I' for Inactive)
REMARK    1  A    between atoms: C_2  and  N_3 
REMARK    2  A    between atoms: C_11  and  C_12 
REMARK    3  A    between atoms: C_14  and  C_15 
REMARK    4  A    between atoms: C_15  and  O_16 
REMARK    5  A    between atoms: O_16  and  C_17 
REMARK    6  A    between atoms: C_25  and  O_26 
ROOT
HETATM    1  N   UNL     1      29.007  38.008  43.507  1.00  0.00    -0.067 N 
HETATM    2  H   UNL     1      29.373  38.959  43.646  1.00  0.00     0.280 HD
HETATM    3  C   UNL     1      27.530  38.060  43.895  1.00  0.00     0.281 C 
HETATM    4  C   UNL     1      27.369  38.205  45.369  1.00  0.00     0.018 A 
HETATM    5  C   UNL     1      28.365  38.001  46.306  1.00  0.00    -0.023 A 
HETATM    6  C   UNL     1      27.869  38.186  47.637  1.00  0.00     0.073 A 
HETATM    7  C   UNL     1      26.534  38.511  47.642  1.00  0.00     0.088 A 
HETATM    8  N   UNL     1      25.827  38.712  48.773  1.00  0.00    -0.358 N 
HETATM    9  C   UNL     1      26.539  38.995  50.006  1.00  0.00     0.219 C 
HETATM   10  N   UNL     1      27.795  38.283  50.019  1.00  0.00    -0.332 N 
HETATM   11  C   UNL     1      28.558  38.050  48.907  1.00  0.00     0.256 C 
HETATM   12  O   UNL     1      29.740  37.733  48.990  1.00  0.00    -0.267 OA
HETATM   13  S   UNL     1      25.876  38.609  46.078  1.00  0.00    -0.074 SA
HETATM   14  C   UNL     1      29.758  37.636  45.896  1.00  0.00     0.068 C 
HETATM   15  C   UNL     1      29.796  37.096  44.456  1.00  0.00     0.240 C 
HETATM   16  H   UNL     1      24.903  39.129  48.708  1.00  0.00     0.162 HD
HETATM   17  H   UNL     1      28.291  38.228  50.896  1.00  0.00     0.165 HD
ENDROOT
BRANCH   9  18
HETATM   18  C   UNL     1      26.666  40.496  50.224  1.00  0.00    -0.016 A 
HETATM   19  C   UNL     1      27.738  40.991  50.992  1.00  0.00     0.023 A 
HETATM   20  C   UNL     1      27.916  42.371  51.222  1.00  0.00    -0.000 A 
HETATM   21  C   UNL     1      27.005  43.280  50.664  1.00  0.00     0.076 A 
HETATM   22  C   UNL     1      25.936  42.802  49.902  1.00  0.00     0.038 A 
HETATM   23  C   UNL     1      25.769  41.429  49.686  1.00  0.00     0.014 A 
BRANCH  20  24
HETATM   24  C   UNL     1      29.073  42.835  52.084  1.00  0.00     0.217 C 
BRANCH  24  25
HETATM   25  O   UNL     1      28.764  42.572  53.457  1.00  0.00    -0.347 OA
BRANCH  25  26
HETATM   26  C   UNL     1      29.170  43.505  54.372  1.00  0.00     0.070 A 
HETATM   27  C   UNL     1      30.257  43.113  55.161  1.00  0.00     0.063 A 
HETATM   28  C   UNL     1      30.768  43.975  56.133  1.00  0.00     0.075 A 
HETATM   29 CL   UNL     1      32.108  43.473  57.090  1.00  0.00    -0.081 Cl
HETATM   30  C   UNL     1      30.191  45.227  56.319  1.00  0.00     0.138 A 
HETATM   31  F   UNL     1      30.664  46.072  57.247  1.00  0.00    -0.204 F 
HETATM   32  C   UNL     1      29.107  45.625  55.544  1.00  0.00     0.047 A 
HETATM   33  C   UNL     1      28.593  44.764  54.570  1.00  0.00     0.040 A 
ENDBRANCH  25  26
ENDBRANCH  24  25
ENDBRANCH  20  24
BRANCH  21  34
HETATM   34  O   UNL     1      27.216  44.605  50.939  1.00  0.00    -0.355 OA
HETATM   35  C   UNL     1      27.123  45.516  49.850  1.00  0.00     0.210 C 
ENDBRANCH  21  34
ENDBRANCH   9  18
BRANCH   1  36
HETATM   36  C   UNL     1      29.231  37.624  42.065  1.00  0.00     0.231 C 
HETATM   37  C   UNL     1      30.686  37.800  41.670  1.00  0.00     0.034 C 
ENDBRANCH   1  36
TORSDOF 6
ENDMDL
MODEL 10
REMARK VINA RESULT:      -8.2     12.497     16.505
REMARK  6 active torsions:
REMARK  status: ('A' for Active; 'I' for Inactive)
REMARK    1  A    between atoms: C_2  and  N_3 
REMARK    2  A    between atoms: C_11  and  C_12 
REMARK    3  A    between atoms: C_14  and  C_15 
REMARK    4  A    between atoms: C_15  and  O_16 
REMARK    5  A    between atoms: O_16  and  C_17 
REMARK    6  A    between atoms: C_25  and  O_26 
ROOT
HETATM    1  N   UNL     1      36.532  53.046  38.287  1.00  0.00    -0.067 N 
HETATM    2  H   UNL     1      35.887  52.695  37.567  1.00  0.00     0.280 HD
HETATM    3  C   UNL     1      36.876  51.847  39.170  1.00  0.00     0.281 C 
HETATM    4  C   UNL     1      35.712  51.451  40.011  1.00  0.00     0.018 A 
HETATM    5  C   UNL     1      34.584  52.221  40.230  1.00  0.00    -0.023 A 
HETATM    6  C   UNL     1      33.673  51.563  41.118  1.00  0.00     0.073 A 
HETATM    7  C   UNL     1      34.154  50.343  41.529  1.00  0.00     0.088 A 
HETATM    8  N   UNL     1      33.493  49.540  42.389  1.00  0.00    -0.358 N 
HETATM    9  C   UNL     1      32.071  49.747  42.589  1.00  0.00     0.219 C 
HETATM   10  N   UNL     1      31.761  51.152  42.482  1.00  0.00    -0.332 N 
HETATM   11  C   UNL     1      32.393  52.016  41.630  1.00  0.00     0.256 C 
HETATM   12  O   UNL     1      31.908  53.103  41.336  1.00  0.00    -0.267 OA
HETATM   13  S   UNL     1      35.670  49.974  40.857  1.00  0.00    -0.074 SA
HETATM   14  C   UNL     1      34.418  53.560  39.581  1.00  0.00     0.068 C 
HETATM   15  C   UNL     1      35.762  54.112  39.078  1.00  0.00     0.240 C 
HETATM   16  H   UNL     1      33.807  48.582  42.505  1.00  0.00     0.162 HD
HETATM   17  H   UNL     1      30.852  51.455  42.800  1.00  0.00     0.165 HD
ENDROOT
BRANCH   9  18
HETATM   18  C   UNL     1      31.258  48.852  41.663  1.00  0.00    -0.016 A 
HETATM   19  C   UNL     1      29.852  48.895  41.724  1.00  0.00     0.023 A 
HETATM   20  C   UNL     1      29.044  48.099  40.886  1.00  0.00    -0.000 A 
HETATM   21  C   UNL     1      29.657  47.245  39.957  1.00  0.00     0.076 A 
HETATM   22  C   UNL     1      31.051  47.191  39.887  1.00  0.00     0.038 A 
HETATM   23  C   UNL     1      31.841  47.984  40.729  1.00  0.00     0.014 A 
BRANCH  20  24
HETATM   24  C   UNL     1      27.537  48.168  41.026  1.00  0.00     0.217 C 
BRANCH  24  25
HETATM   25  O   UNL     1      27.027  49.123  40.088  1.00  0.00    -0.347 OA
BRANCH  25  26
HETATM   26  C   UNL     1      27.526  50.394  40.167  1.00  0.00     0.070 A 
HETATM   27  C   UNL     1      28.154  50.847  39.002  1.00  0.00     0.063 A 
HETATM   28  C   UNL     1      28.706  52.127  38.951  1.00  0.00     0.075 A 
HETATM   29 CL   UNL     1      29.472  52.664  37.506  1.00  0.00    -0.081 Cl
HETATM   30  C   UNL     1      28.633  52.957  40.066  1.00  0.00     0.138 A 
HETATM   31  F   UNL     1      29.157  54.191  40.043  1.00  0.00    -0.204 F 
HETATM   32  C   UNL     1      28.015  52.515  41.232  1.00  0.00     0.047 A 
HETATM   33  C   UNL     1      27.462  51.232  41.285  1.00  0.00     0.040 A 
ENDBRANCH  25  26
ENDBRANCH  24  25
ENDBRANCH  20  24
BRANCH  21  34
HETATM   34  O   UNL     1      28.823  46.480  39.186  1.00  0.00    -0.355 OA
HETATM   35  C   UNL     1      29.353  45.969  37.969  1.00  0.00     0.210 C 
ENDBRANCH  21  34
ENDBRANCH   9  18
BRANCH   1  36
HETATM   36  C   UNL     1      37.733  53.639  37.593  1.00  0.00     0.231 C 
HETATM   37  C   UNL     1      38.893  53.812  38.556  1.00  0.00     0.034 C 
ENDBRANCH   1  36
TORSDOF 6
ENDMDL
