MODEL 1
REMARK VINA RESULT:      -8.5      0.000      0.000
REMARK  4 active torsions:
REMARK  status: ('A' for Active; 'I' for Inactive)
REMARK    1  A    between atoms: C_3  and  N_4 
REMARK       I    between atoms: N_4  and  C_5 
REMARK    2  A    between atoms: C_5  and  C_6 
REMARK    3  A    between atoms: C_6  and  C_7 
REMARK    4  A    between atoms: C_10  and  O_11 
ROOT
HETATM    1  N   UNL     1      25.838  46.774  50.726  1.00  0.00    -0.326 N 
HETATM    2  C   UNL     1      25.577  46.774  52.088  1.00  0.00     0.226 C 
HETATM    3  O   UNL     1      25.370  47.755  52.796  1.00  0.00    -0.273 OA
HETATM    4  H   UNL     1      25.936  45.862  50.305  1.00  0.00     0.169 HD
ENDROOT
BRANCH   1   5
HETATM    5  C   UNL     1      25.958  47.893  49.855  1.00  0.00     0.047 A 
HETATM    6  C   UNL     1      27.197  48.497  49.615  1.00  0.00     0.030 A 
HETATM    7  C   UNL     1      27.302  49.589  48.760  1.00  0.00     0.005 A 
HETATM    8  C   UNL     1      26.166  50.087  48.133  1.00  0.00     0.032 A 
HETATM    9  C   UNL     1      24.919  49.523  48.334  1.00  0.00     0.069 A 
HETATM   10  C   UNL     1      24.791  48.412  49.205  1.00  0.00     0.019 A 
HETATM   11  N   UNL     1      23.886  50.075  47.675  1.00  0.00    -0.260 NA
HETATM   12  C   UNL     1      23.476  47.900  49.344  1.00  0.00     0.017 A 
HETATM   13  C   UNL     1      22.404  48.468  48.661  1.00  0.00     0.020 A 
HETATM   14  C   UNL     1      22.659  49.546  47.845  1.00  0.00     0.117 A 
ENDBRANCH   1   5
BRANCH   2  15
HETATM   15  C   UNL     1      25.570  45.377  52.691  1.00  0.00     0.141 C 
BRANCH  15  16
HETATM   16  C   UNL     1      26.915  44.871  53.164  1.00  0.00    -0.049 A 
HETATM   17  C   UNL     1      27.360  45.220  54.451  1.00  0.00     0.010 A 
HETATM   18  C   UNL     1      28.565  44.722  54.953  1.00  0.00     0.037 A 
HETATM   19  C   UNL     1      29.329  43.865  54.170  1.00  0.00     0.065 A 
HETATM   20  C   UNL     1      28.905  43.498  52.900  1.00  0.00     0.037 A 
HETATM   21  C   UNL     1      27.696  43.989  52.401  1.00  0.00     0.010 A 
BRANCH  19  22
HETATM   22  O   UNL     1      30.505  43.346  54.621  1.00  0.00    -0.361 OA
HETATM   23  H   UNL     1      30.493  42.383  54.486  1.00  0.00     0.217 HD
ENDBRANCH  19  22
ENDBRANCH  15  16
ENDBRANCH   2  15
TORSDOF 4
ENDMDL
MODEL 2
REMARK VINA RESULT:      -8.3      2.578      7.860
REMARK  4 active torsions:
REMARK  status: ('A' for Active; 'I' for Inactive)
REMARK    1  A    between atoms: C_3  and  N_4 
REMARK       I    between atoms: N_4  and  C_5 
REMARK    2  A    between atoms: C_5  and  C_6 
REMARK    3  A    between atoms: C_6  and  C_7 
REMARK    4  A    between atoms: C_10  and  O_11 
ROOT
HETATM    1  N   UNL     1      26.940  45.248  52.895  1.00  0.00    -0.326 N 
HETATM    2  C   UNL     1      26.364  45.345  51.637  1.00  0.00     0.226 C 
HETATM    3  O   UNL     1      26.704  44.739  50.626  1.00  0.00    -0.273 OA
HETATM    4  H   UNL     1      26.492  45.792  53.618  1.00  0.00     0.169 HD
ENDROOT
BRANCH   1   5
HETATM    5  C   UNL     1      28.058  44.463  53.291  1.00  0.00     0.047 A 
HETATM    6  C   UNL     1      28.498  43.383  52.517  1.00  0.00     0.030 A 
HETATM    7  C   UNL     1      29.594  42.624  52.913  1.00  0.00     0.005 A 
HETATM    8  C   UNL     1      30.264  42.939  54.089  1.00  0.00     0.032 A 
HETATM    9  C   UNL     1      29.871  43.997  54.887  1.00  0.00     0.069 A 
HETATM   10  C   UNL     1      28.754  44.781  54.503  1.00  0.00     0.019 A 
HETATM   11  N   UNL     1      30.591  44.223  56.000  1.00  0.00    -0.260 NA
HETATM   12  C   UNL     1      28.431  45.847  55.380  1.00  0.00     0.017 A 
HETATM   13  C   UNL     1      29.175  46.083  56.533  1.00  0.00     0.020 A 
HETATM   14  C   UNL     1      30.238  45.249  56.797  1.00  0.00     0.117 A 
ENDBRANCH   1   5
BRANCH   2  15
HETATM   15  C   UNL     1      25.204  46.330  51.590  1.00  0.00     0.141 C 
BRANCH  15  16
HETATM   16  C   UNL     1      25.316  47.410  50.536  1.00  0.00    -0.049 A 
HETATM   17  C   UNL     1      26.588  47.904  50.202  1.00  0.00     0.010 A 
HETATM   18  C   UNL     1      26.745  48.854  49.188  1.00  0.00     0.037 A 
HETATM   19  C   UNL     1      25.627  49.309  48.501  1.00  0.00     0.065 A 
HETATM   20  C   UNL     1      24.361  48.828  48.808  1.00  0.00     0.037 A 
HETATM   21  C   UNL     1      24.206  47.872  49.814  1.00  0.00     0.010 A 
BRANCH  19  22
HETATM   22  O   UNL     1      25.731  50.227  47.498  1.00  0.00    -0.361 OA
HETATM   23  H   UNL     1      25.626  49.771  46.647  1.00  0.00     0.217 HD
ENDBRANCH  19  22
ENDBRANCH  15  16
ENDBRANCH   2  15
TORSDOF 4
ENDMDL
MODEL 3
REMARK VINA RESULT:      -8.2      3.339      5.112
REMARK  4 active torsions:
REMARK  status: ('A' for Active; 'I' for Inactive)
REMARK    1  A    between atoms: C_3  and  N_4 
REMARK       I    between atoms: N_4  and  C_5 
REMARK    2  A    between atoms: C_5  and  C_6 
REMARK    3  A    between atoms: C_6  and  C_7 
REMARK    4  A    between atoms: C_10  and  O_11 
ROOT
HETATM    1  N   UNL     1      28.680  43.345  52.206  1.00  0.00    -0.326 N 
HETATM    2  C   UNL     1      28.689  42.747  53.458  1.00  0.00     0.226 C 
HETATM    3  O   UNL     1      27.727  42.263  54.047  1.00  0.00    -0.273 OA
HETATM    4  H   UNL     1      29.581  43.644  51.864  1.00  0.00     0.169 HD
ENDROOT
BRANCH   1   5
HETATM    5  C   UNL     1      27.568  43.562  51.345  1.00  0.00     0.047 A 
HETATM    6  C   UNL     1      27.254  42.660  50.322  1.00  0.00     0.030 A 
HETATM    7  C   UNL     1      26.164  42.883  49.487  1.00  0.00     0.005 A 
HETATM    8  C   UNL     1      25.373  44.010  49.671  1.00  0.00     0.032 A 
HETATM    9  C   UNL     1      25.638  44.930  50.669  1.00  0.00     0.069 A 
HETATM   10  C   UNL     1      26.748  44.723  51.527  1.00  0.00     0.019 A 
HETATM   11  N   UNL     1      24.807  45.982  50.766  1.00  0.00    -0.260 NA
HETATM   12  C   UNL     1      26.936  45.715  52.523  1.00  0.00     0.017 A 
HETATM   13  C   UNL     1      26.076  46.805  52.627  1.00  0.00     0.020 A 
HETATM   14  C   UNL     1      25.035  46.893  51.731  1.00  0.00     0.117 A 
ENDBRANCH   1   5
BRANCH   2  15
HETATM   15  C   UNL     1      30.069  42.737  54.100  1.00  0.00     0.141 C 
BRANCH  15  16
HETATM   16  C   UNL     1      30.221  43.621  55.318  1.00  0.00    -0.049 A 
HETATM   17  C   UNL     1      31.128  43.244  56.323  1.00  0.00     0.010 A 
HETATM   18  C   UNL     1      31.349  44.064  57.434  1.00  0.00     0.037 A 
HETATM   19  C   UNL     1      30.666  45.269  57.539  1.00  0.00     0.065 A 
HETATM   20  C   UNL     1      29.773  45.666  56.554  1.00  0.00     0.037 A 
HETATM   21  C   UNL     1      29.558  44.852  55.440  1.00  0.00     0.010 A 
BRANCH  19  22
HETATM   22  O   UNL     1      30.857  46.106  58.598  1.00  0.00    -0.361 OA
HETATM   23  H   UNL     1      31.797  46.089  58.843  1.00  0.00     0.217 HD
ENDBRANCH  19  22
ENDBRANCH  15  16
ENDBRANCH   2  15
TORSDOF 4
ENDMDL
MODEL 4
REMARK VINA RESULT:      -8.2      3.233      5.189
REMARK  4 active torsions:
REMARK  status: ('A' for Active; 'I' for Inactive)
REMARK    1  A    between atoms: C_3  and  N_4 
REMARK       I    between atoms: N_4  and  C_5 
REMARK    2  A    between atoms: C_5  and  C_6 
REMARK    3  A    between atoms: C_6  and  C_7 
REMARK    4  A    between atoms: C_10  and  O_11 
ROOT
HETATM    1  N   UNL     1      26.881  46.128  54.461  1.00  0.00    -0.326 N 
HETATM    2  C   UNL     1      27.825  46.995  54.992  1.00  0.00     0.226 C 
HETATM    3  O   UNL     1      28.425  47.883  54.393  1.00  0.00    -0.273 OA
HETATM    4  H   UNL     1      26.459  45.493  55.122  1.00  0.00     0.169 HD
ENDROOT
BRANCH   1   5
HETATM    5  C   UNL     1      26.423  46.046  53.117  1.00  0.00     0.047 A 
HETATM    6  C   UNL     1      25.632  47.055  52.556  1.00  0.00     0.030 A 
HETATM    7  C   UNL     1      25.191  46.964  51.240  1.00  0.00     0.005 A 
HETATM    8  C   UNL     1      25.540  45.862  50.469  1.00  0.00     0.032 A 
HETATM    9  C   UNL     1      26.322  44.840  50.975  1.00  0.00     0.069 A 
HETATM   10  C   UNL     1      26.778  44.912  52.316  1.00  0.00     0.019 A 
HETATM   11  N   UNL     1      26.610  43.823  50.145  1.00  0.00    -0.260 NA
HETATM   12  C   UNL     1      27.578  43.822  52.743  1.00  0.00     0.017 A 
HETATM   13  C   UNL     1      27.878  42.767  51.885  1.00  0.00     0.020 A 
HETATM   14  C   UNL     1      27.374  42.814  50.605  1.00  0.00     0.117 A 
ENDBRANCH   1   5
BRANCH   2  15
HETATM   15  C   UNL     1      28.090  46.750  56.471  1.00  0.00     0.141 C 
BRANCH  15  16
HETATM   16  C   UNL     1      29.205  45.774  56.774  1.00  0.00    -0.049 A 
HETATM   17  C   UNL     1      29.624  44.886  55.768  1.00  0.00     0.010 A 
HETATM   18  C   UNL     1      30.694  44.012  55.983  1.00  0.00     0.037 A 
HETATM   19  C   UNL     1      31.354  44.029  57.205  1.00  0.00     0.065 A 
HETATM   20  C   UNL     1      30.964  44.905  58.209  1.00  0.00     0.037 A 
HETATM   21  C   UNL     1      29.901  45.784  57.992  1.00  0.00     0.010 A 
BRANCH  19  22
HETATM   22  O   UNL     1      32.409  43.204  57.456  1.00  0.00    -0.361 OA
HETATM   23  H   UNL     1      32.110  42.282  57.375  1.00  0.00     0.217 HD
ENDBRANCH  19  22
ENDBRANCH  15  16
ENDBRANCH   2  15
TORSDOF 4
ENDMDL
MODEL 5
REMARK VINA RESULT:      -8.1      4.159      5.712
REMARK  4 active torsions:
REMARK  status: ('A' for Active; 'I' for Inactive)
REMARK    1  A    between atoms: C_3  and  N_4 
REMARK       I    between atoms: N_4  and  C_5 
REMARK    2  A    between atoms: C_5  and  C_6 
REMARK    3  A    between atoms: C_6  and  C_7 
REMARK    4  A    between atoms: C_10  and  O_11 
ROOT
HETATM    1  N   UNL     1      28.098  43.799  52.541  1.00  0.00    -0.326 N 
HETATM    2  C   UNL     1      28.434  43.082  53.680  1.00  0.00     0.226 C 
HETATM    3  O   UNL     1      27.666  42.468  54.414  1.00  0.00    -0.273 OA
HETATM    4  H   UNL     1      28.875  44.201  52.038  1.00  0.00     0.169 HD
ENDROOT
BRANCH   1   5
HETATM    5  C   UNL     1      26.804  44.013  51.989  1.00  0.00     0.047 A 
HETATM    6  C   UNL     1      26.062  45.158  52.298  1.00  0.00     0.030 A 
HETATM    7  C   UNL     1      24.799  45.357  51.751  1.00  0.00     0.005 A 
HETATM    8  C   UNL     1      24.266  44.411  50.883  1.00  0.00     0.032 A 
HETATM    9  C   UNL     1      24.960  43.265  50.542  1.00  0.00     0.069 A 
HETATM   10  C   UNL     1      26.247  43.042  51.093  1.00  0.00     0.019 A 
HETATM   11  N   UNL     1      24.359  42.418  49.689  1.00  0.00    -0.260 NA
HETATM   12  C   UNL     1      26.884  41.844  50.682  1.00  0.00     0.017 A 
HETATM   13  C   UNL     1      26.263  40.965  49.798  1.00  0.00     0.020 A 
HETATM   14  C   UNL     1      25.011  41.295  49.333  1.00  0.00     0.117 A 
ENDBRANCH   1   5
BRANCH   2  15
HETATM   15  C   UNL     1      29.925  43.117  53.984  1.00  0.00     0.141 C 
BRANCH  15  16
HETATM   16  C   UNL     1      30.303  43.773  55.293  1.00  0.00    -0.049 A 
HETATM   17  C   UNL     1      29.701  44.994  55.641  1.00  0.00     0.010 A 
HETATM   18  C   UNL     1      29.971  45.603  56.870  1.00  0.00     0.037 A 
HETATM   19  C   UNL     1      30.841  44.987  57.760  1.00  0.00     0.065 A 
HETATM   20  C   UNL     1      31.440  43.775  57.442  1.00  0.00     0.037 A 
HETATM   21  C   UNL     1      31.164  43.163  56.218  1.00  0.00     0.010 A 
BRANCH  19  22
HETATM   22  O   UNL     1      31.126  45.537  58.974  1.00  0.00    -0.361 OA
HETATM   23  H   UNL     1      31.325  44.822  59.601  1.00  0.00     0.217 HD
ENDBRANCH  19  22
ENDBRANCH  15  16
ENDBRANCH   2  15
TORSDOF 4
ENDMDL
MODEL 6
REMARK VINA RESULT:      -8.1      4.309      6.078
REMARK  4 active torsions:
REMARK  status: ('A' for Active; 'I' for Inactive)
REMARK    1  A    between atoms: C_3  and  N_4 
REMARK       I    between atoms: N_4  and  C_5 
REMARK    2  A    between atoms: C_5  and  C_6 
REMARK    3  A    between atoms: C_6  and  C_7 
REMARK    4  A    between atoms: C_10  and  O_11 
ROOT
HETATM    1  N   UNL     1      27.074  44.775  52.817  1.00  0.00    -0.326 N 
HETATM    2  C   UNL     1      27.101  44.806  54.203  1.00  0.00     0.226 C 
HETATM    3  O   UNL     1      26.368  44.185  54.967  1.00  0.00    -0.273 OA
HETATM    4  H   UNL     1      27.789  45.319  52.359  1.00  0.00     0.169 HD
ENDROOT
BRANCH   1   5
HETATM    5  C   UNL     1      26.184  44.054  51.973  1.00  0.00     0.047 A 
HETATM    6  C   UNL     1      24.948  44.590  51.593  1.00  0.00     0.030 A 
HETATM    7  C   UNL     1      24.087  43.877  50.766  1.00  0.00     0.005 A 
HETATM    8  C   UNL     1      24.456  42.618  50.306  1.00  0.00     0.032 A 
HETATM    9  C   UNL     1      25.667  42.045  50.650  1.00  0.00     0.069 A 
HETATM   10  C   UNL     1      26.557  42.755  51.495  1.00  0.00     0.019 A 
HETATM   11  N   UNL     1      25.931  40.827  50.146  1.00  0.00    -0.260 NA
HETATM   12  C   UNL     1      27.775  42.091  51.787  1.00  0.00     0.017 A 
HETATM   13  C   UNL     1      28.051  40.829  51.265  1.00  0.00     0.020 A 
HETATM   14  C   UNL     1      27.104  40.244  50.456  1.00  0.00     0.117 A 
ENDBRANCH   1   5
BRANCH   2  15
HETATM   15  C   UNL     1      28.175  45.734  54.755  1.00  0.00     0.141 C 
BRANCH  15  16
HETATM   16  C   UNL     1      29.250  45.061  55.579  1.00  0.00    -0.049 A 
HETATM   17  C   UNL     1      29.854  43.892  55.085  1.00  0.00     0.010 A 
HETATM   18  C   UNL     1      30.896  43.274  55.781  1.00  0.00     0.037 A 
HETATM   19  C   UNL     1      31.344  43.829  56.974  1.00  0.00     0.065 A 
HETATM   20  C   UNL     1      30.769  44.989  57.476  1.00  0.00     0.037 A 
HETATM   21  C   UNL     1      29.733  45.611  56.776  1.00  0.00     0.010 A 
BRANCH  19  22
HETATM   22  O   UNL     1      32.364  43.269  57.682  1.00  0.00    -0.361 OA
HETATM   23  H   UNL     1      32.553  42.389  57.314  1.00  0.00     0.217 HD
ENDBRANCH  19  22
ENDBRANCH  15  16
ENDBRANCH   2  15
TORSDOF 4
ENDMDL
MODEL 7
REMARK VINA RESULT:      -7.9      4.352      5.750
REMARK  4 active torsions:
REMARK  status: ('A' for Active; 'I' for Inactive)
REMARK    1  A    between atoms: C_3  and  N_4 
REMARK       I    between atoms: N_4  and  C_5 
REMARK    2  A    between atoms: C_5  and  C_6 
REMARK    3  A    between atoms: C_6  and  C_7 
REMARK    4  A    between atoms: C_10  and  O_11 
ROOT
HETATM    1  N   UNL     1      27.684  43.968  52.674  1.00  0.00    -0.326 N 
HETATM    2  C   UNL     1      27.428  44.250  54.008  1.00  0.00     0.226 C 
HETATM    3  O   UNL     1      26.708  43.611  54.768  1.00  0.00    -0.273 OA
HETATM    4  H   UNL     1      28.343  44.584  52.221  1.00  0.00     0.169 HD
ENDROOT
BRANCH   1   5
HETATM    5  C   UNL     1      27.155  42.910  51.883  1.00  0.00     0.047 A 
HETATM    6  C   UNL     1      27.841  41.699  51.735  1.00  0.00     0.030 A 
HETATM    7  C   UNL     1      27.313  40.672  50.961  1.00  0.00     0.005 A 
HETATM    8  C   UNL     1      26.087  40.844  50.328  1.00  0.00     0.032 A 
HETATM    9  C   UNL     1      25.368  42.019  50.446  1.00  0.00     0.069 A 
HETATM   10  C   UNL     1      25.892  43.080  51.227  1.00  0.00     0.019 A 
HETATM   11  N   UNL     1      24.191  42.081  49.800  1.00  0.00    -0.260 NA
HETATM   12  C   UNL     1      25.082  44.242  51.293  1.00  0.00     0.017 A 
HETATM   13  C   UNL     1      23.861  44.308  50.626  1.00  0.00     0.020 A 
HETATM   14  C   UNL     1      23.463  43.210  49.898  1.00  0.00     0.117 A 
ENDBRANCH   1   5
BRANCH   2  15
HETATM   15  C   UNL     1      28.147  45.500  54.498  1.00  0.00     0.141 C 
BRANCH  15  16
HETATM   16  C   UNL     1      29.059  45.296  55.687  1.00  0.00    -0.049 A 
HETATM   17  C   UNL     1      30.114  44.373  55.585  1.00  0.00     0.010 A 
HETATM   18  C   UNL     1      31.020  44.201  56.635  1.00  0.00     0.037 A 
HETATM   19  C   UNL     1      30.877  44.958  57.792  1.00  0.00     0.065 A 
HETATM   20  C   UNL     1      29.848  45.882  57.911  1.00  0.00     0.037 A 
HETATM   21  C   UNL     1      28.947  46.060  56.858  1.00  0.00     0.010 A 
BRANCH  19  22
HETATM   22  O   UNL     1      31.742  44.832  58.837  1.00  0.00    -0.361 OA
HETATM   23  H   UNL     1      32.559  45.313  58.625  1.00  0.00     0.217 HD
ENDBRANCH  19  22
ENDBRANCH  15  16
ENDBRANCH   2  15
TORSDOF 4
ENDMDL
MODEL 8
REMARK VINA RESULT:      -7.8      3.685      8.435
REMARK  4 active torsions:
REMARK  status: ('A' for Active; 'I' for Inactive)
REMARK    1  A    between atoms: C_3  and  N_4 
REMARK       I    between atoms: N_4  and  C_5 
REMARK    2  A    between atoms: C_5  and  C_6 
REMARK    3  A    between atoms: C_6  and  C_7 
REMARK    4  A    between atoms: C_10  and  O_11 
ROOT
HETATM    1  N   UNL     1      23.564  49.578  48.045  1.00  0.00    -0.326 N 
HETATM    2  C   UNL     1      22.536  50.244  48.697  1.00  0.00     0.226 C 
HETATM    3  O   UNL     1      22.584  50.759  49.809  1.00  0.00    -0.273 OA
HETATM    4  H   UNL     1      23.349  49.261  47.111  1.00  0.00     0.169 HD
ENDROOT
BRANCH   1   5
HETATM    5  C   UNL     1      24.879  49.315  48.520  1.00  0.00     0.047 A 
HETATM    6  C   UNL     1      25.948  50.162  48.207  1.00  0.00     0.030 A 
HETATM    7  C   UNL     1      27.229  49.896  48.679  1.00  0.00     0.005 A 
HETATM    8  C   UNL     1      27.453  48.778  49.473  1.00  0.00     0.032 A 
HETATM    9  C   UNL     1      26.430  47.911  49.814  1.00  0.00     0.069 A 
HETATM   10  C   UNL     1      25.118  48.164  49.340  1.00  0.00     0.019 A 
HETATM   11  N   UNL     1      26.752  46.864  50.593  1.00  0.00    -0.260 NA
HETATM   12  C   UNL     1      24.136  47.225  49.745  1.00  0.00     0.017 A 
HETATM   13  C   UNL     1      24.466  46.140  50.553  1.00  0.00     0.020 A 
HETATM   14  C   UNL     1      25.778  46.005  50.948  1.00  0.00     0.117 A 
ENDBRANCH   1   5
BRANCH   2  15
HETATM   15  C   UNL     1      21.249  50.288  47.884  1.00  0.00     0.141 C 
BRANCH  15  16
HETATM   16  C   UNL     1      20.046  50.850  48.609  1.00  0.00    -0.049 A 
HETATM   17  C   UNL     1      19.651  52.173  48.346  1.00  0.00     0.010 A 
HETATM   18  C   UNL     1      18.508  52.712  48.943  1.00  0.00     0.037 A 
HETATM   19  C   UNL     1      17.751  51.925  49.802  1.00  0.00     0.065 A 
HETATM   20  C   UNL     1      18.117  50.612  50.069  1.00  0.00     0.037 A 
HETATM   21  C   UNL     1      19.254  50.071  49.465  1.00  0.00     0.010 A 
BRANCH  19  22
HETATM   22  O   UNL     1      16.623  52.403  50.399  1.00  0.00    -0.361 OA
HETATM   23  H   UNL     1      15.882  51.811  50.185  1.00  0.00     0.217 HD
ENDBRANCH  19  22
ENDBRANCH  15  16
ENDBRANCH   2  15
TORSDOF 4
ENDMDL
MODEL 9
REMARK VINA RESULT:      -7.7      4.922      7.371
REMARK  4 active torsions:
REMARK  status: ('A' for Active; 'I' for Inactive)
REMARK    1  A    between atoms: C_3  and  N_4 
REMARK       I    between atoms: N_4  and  C_5 
REMARK    2  A    between atoms: C_5  and  C_6 
REMARK    3  A    between atoms: C_6  and  C_7 
REMARK    4  A    between atoms: C_10  and  O_11 
ROOT
HETATM    1  N   UNL     1      26.702  43.626  52.867  1.00  0.00    -0.326 N 
HETATM    2  C   UNL     1      26.894  43.390  51.514  1.00  0.00     0.226 C 
HETATM    3  O   UNL     1      27.618  44.024  50.753  1.00  0.00    -0.273 OA
HETATM    4  H   UNL     1      26.103  42.967  53.341  1.00  0.00     0.169 HD
ENDROOT
BRANCH   1   5
HETATM    5  C   UNL     1      27.265  44.661  53.666  1.00  0.00     0.047 A 
HETATM    6  C   UNL     1      26.656  45.917  53.763  1.00  0.00     0.030 A 
HETATM    7  C   UNL     1      27.215  46.920  54.547  1.00  0.00     0.005 A 
HETATM    8  C   UNL     1      28.390  46.675  55.248  1.00  0.00     0.032 A 
HETATM    9  C   UNL     1      29.029  45.450  55.188  1.00  0.00     0.069 A 
HETATM   10  C   UNL     1      28.478  44.416  54.390  1.00  0.00     0.019 A 
HETATM   11  N   UNL     1      30.155  45.314  55.909  1.00  0.00    -0.260 NA
HETATM   12  C   UNL     1      29.199  43.196  54.397  1.00  0.00     0.017 A 
HETATM   13  C   UNL     1      30.365  43.051  55.143  1.00  0.00     0.020 A 
HETATM   14  C   UNL     1      30.799  44.132  55.878  1.00  0.00     0.117 A 
ENDBRANCH   1   5
BRANCH   2  15
HETATM   15  C   UNL     1      26.082  42.210  50.998  1.00  0.00     0.141 C 
BRANCH  15  16
HETATM   16  C   UNL     1      26.880  40.964  50.684  1.00  0.00    -0.049 A 
HETATM   17  C   UNL     1      26.354  40.032  49.773  1.00  0.00     0.010 A 
HETATM   18  C   UNL     1      27.086  38.900  49.403  1.00  0.00     0.037 A 
HETATM   19  C   UNL     1      28.352  38.700  49.940  1.00  0.00     0.065 A 
HETATM   20  C   UNL     1      28.895  39.613  50.834  1.00  0.00     0.037 A 
HETATM   21  C   UNL     1      28.168  40.749  51.196  1.00  0.00     0.010 A 
BRANCH  19  22
HETATM   22  O   UNL     1      29.107  37.617  49.601  1.00  0.00    -0.361 OA
HETATM   23  H   UNL     1      29.476  37.760  48.714  1.00  0.00     0.217 HD
ENDBRANCH  19  22
ENDBRANCH  15  16
ENDBRANCH   2  15
TORSDOF 4
ENDMDL
MODEL 10
REMARK VINA RESULT:      -7.7      2.680      4.425
REMARK  4 active torsions:
REMARK  status: ('A' for Active; 'I' for Inactive)
REMARK    1  A    between atoms: C_3  and  N_4 
REMARK       I    between atoms: N_4  and  C_5 
REMARK    2  A    between atoms: C_5  and  C_6 
REMARK    3  A    between atoms: C_6  and  C_7 
REMARK    4  A    between atoms: C_10  and  O_11 
ROOT
HETATM    1  N   UNL     1      25.815  42.880  52.181  1.00  0.00    -0.326 N 
HETATM    2  C   UNL     1      27.185  42.683  52.097  1.00  0.00     0.226 C 
HETATM    3  O   UNL     1      27.902  42.912  51.127  1.00  0.00    -0.273 OA
HETATM    4  H   UNL     1      25.404  42.678  53.080  1.00  0.00     0.169 HD
ENDROOT
BRANCH   1   5
HETATM    5  C   UNL     1      24.933  43.353  51.170  1.00  0.00     0.047 A 
HETATM    6  C   UNL     1      24.137  42.472  50.430  1.00  0.00     0.030 A 
HETATM    7  C   UNL     1      23.276  42.947  49.445  1.00  0.00     0.005 A 
HETATM    8  C   UNL     1      23.201  44.312  49.193  1.00  0.00     0.032 A 
HETATM    9  C   UNL     1      23.964  45.224  49.899  1.00  0.00     0.069 A 
HETATM   10  C   UNL     1      24.850  44.760  50.904  1.00  0.00     0.019 A 
HETATM   11  N   UNL     1      23.811  46.521  49.584  1.00  0.00    -0.260 NA
HETATM   12  C   UNL     1      25.585  45.768  51.577  1.00  0.00     0.017 A 
HETATM   13  C   UNL     1      25.428  47.113  51.253  1.00  0.00     0.020 A 
HETATM   14  C   UNL     1      24.535  47.436  50.256  1.00  0.00     0.117 A 
ENDBRANCH   1   5
BRANCH   2  15
HETATM   15  C   UNL     1      27.783  42.117  53.377  1.00  0.00     0.141 C 
BRANCH  15  16
HETATM   16  C   UNL     1      28.481  43.123  54.265  1.00  0.00    -0.049 A 
HETATM   17  C   UNL     1      29.805  42.874  54.666  1.00  0.00     0.010 A 
HETATM   18  C   UNL     1      30.510  43.807  55.431  1.00  0.00     0.037 A 
HETATM   19  C   UNL     1      29.894  44.999  55.793  1.00  0.00     0.065 A 
HETATM   20  C   UNL     1      28.590  45.270  55.400  1.00  0.00     0.037 A 
HETATM   21  C   UNL     1      27.888  44.342  54.628  1.00  0.00     0.010 A 
BRANCH  19  22
HETATM   22  O   UNL     1      30.545  45.943  56.530  1.00  0.00    -0.361 OA
HETATM   23  H   UNL     1      30.362  46.817  56.147  1.00  0.00     0.217 HD
ENDBRANCH  19  22
ENDBRANCH  15  16
ENDBRANCH   2  15
TORSDOF 4
ENDMDL
