MODEL 1
REMARK VINA RESULT:     -10.0      0.000      0.000
REMARK  9 active torsions:
REMARK  status: ('A' for Active; 'I' for Inactive)
REMARK    1  A    between atoms: C_2  and  N_3 
REMARK    2  A    between atoms: C_2  and  C_11 
REMARK    3  A    between atoms: N_3  and  C_4 
REMARK    4  A    between atoms: N_12  and  C_13 
REMARK    5  A    between atoms: C_19  and  S_20 
REMARK    6  A    between atoms: S_20  and  C_21 
REMARK    7  A    between atoms: C_21  and  C_22 
REMARK       I    between atoms: C_22  and  N_23 
REMARK    8  A    between atoms: N_23  and  C_24 
REMARK    9  A    between atoms: C_26  and  N_27 
REMARK       I    between atoms: N_27  and  C_28 
ROOT
HETATM    1  C   UNL     1      25.053  44.467  51.780  1.00  0.00     0.158 A 
HETATM    2  N   UNL     1      24.854  45.130  50.568  1.00  0.00    -0.274 N 
HETATM    3  C   UNL     1      23.832  44.413  49.966  1.00  0.00     0.196 A 
HETATM    4  N   UNL     1      23.521  43.363  50.691  1.00  0.00    -0.122 NA
HETATM    5  N   UNL     1      24.276  43.396  51.821  1.00  0.00    -0.131 NA
ENDROOT
BRANCH   3   6
HETATM    6  S   UNL     1      23.172  44.699  48.388  1.00  0.00    -0.080 SA
BRANCH   6   7
HETATM    7  C   UNL     1      21.475  45.207  48.806  1.00  0.00     0.185 C 
BRANCH   7   8
HETATM    8  C   UNL     1      21.209  46.613  48.292  1.00  0.00     0.231 C 
HETATM    9  N   UNL     1      21.199  47.577  49.289  1.00  0.00    -0.326 N 
HETATM   10  H   UNL     1      21.330  47.244  50.244  1.00  0.00     0.169 HD
HETATM   11  O   UNL     1      21.017  46.804  47.094  1.00  0.00    -0.272 OA
BRANCH   9  12
HETATM   12  C   UNL     1      20.934  48.957  49.141  1.00  0.00     0.036 A 
HETATM   13  C   UNL     1      19.709  49.435  49.646  1.00  0.00     0.059 A 
HETATM   14  C   UNL     1      19.357  50.785  49.531  1.00  0.00     0.036 A 
HETATM   15  C   UNL     1      20.246  51.653  48.885  1.00  0.00     0.029 A 
HETATM   16  C   UNL     1      21.464  51.193  48.390  1.00  0.00     0.004 A 
HETATM   17  C   UNL     1      21.806  49.848  48.520  1.00  0.00     0.029 A 
BRANCH  14  18
HETATM   18  N   UNL     1      18.157  51.365  49.983  1.00  0.00    -0.327 N 
HETATM   19  C   UNL     1      16.922  51.552  49.443  1.00  0.00     0.218 C 
HETATM   20  C   UNL     1      16.547  50.995  48.104  1.00  0.00     0.117 C 
HETATM   21  O   UNL     1      16.094  52.183  50.108  1.00  0.00    -0.274 OA
HETATM   22  H   UNL     1      18.177  51.737  50.927  1.00  0.00     0.169 HD
ENDBRANCH  14  18
ENDBRANCH   9  12
ENDBRANCH   7   8
ENDBRANCH   6   7
ENDBRANCH   3   6
BRANCH   2  23
HETATM   23  C   UNL     1      25.546  46.268  50.077  1.00  0.00     0.043 A 
HETATM   24  C   UNL     1      24.882  47.497  49.967  1.00  0.00     0.030 A 
HETATM   25  C   UNL     1      25.559  48.616  49.478  1.00  0.00     0.002 A 
HETATM   26  C   UNL     1      26.897  48.516  49.103  1.00  0.00     0.000 A 
HETATM   27  C   UNL     1      27.564  47.297  49.218  1.00  0.00     0.002 A 
HETATM   28  C   UNL     1      26.893  46.173  49.705  1.00  0.00     0.030 A 
ENDBRANCH   2  23
BRANCH   1  29
HETATM   29  C   UNL     1      25.892  44.950  52.946  1.00  0.00     0.150 C 
HETATM   30  C   UNL     1      25.455  44.260  54.247  1.00  0.00     0.040 C 
BRANCH  29  31
HETATM   31  N   UNL     1      27.318  44.655  52.724  1.00  0.00    -0.379 N 
HETATM   32  H   UNL     1      27.453  44.054  51.913  1.00  0.00     0.160 HD
BRANCH  31  33
HETATM   33  C   UNL     1      28.226  44.447  53.752  1.00  0.00     0.028 A 
HETATM   34  C   UNL     1      28.941  43.239  53.790  1.00  0.00     0.030 A 
HETATM   35  C   UNL     1      29.911  42.993  54.767  1.00  0.00     0.021 A 
HETATM   36  C   UNL     1      30.199  43.974  55.709  1.00  0.00     0.011 A 
HETATM   37 BR   UNL     1      31.527  43.664  57.017  1.00  0.00    -0.051 Br
HETATM   38  C   UNL     1      29.522  45.188  55.681  1.00  0.00     0.021 A 
HETATM   39  C   UNL     1      28.543  45.420  54.706  1.00  0.00     0.030 A 
ENDBRANCH  31  33
ENDBRANCH  29  31
ENDBRANCH   1  29
TORSDOF 9
ENDMDL
MODEL 2
REMARK VINA RESULT:      -9.8      2.055      3.146
REMARK  9 active torsions:
REMARK  status: ('A' for Active; 'I' for Inactive)
REMARK    1  A    between atoms: C_2  and  N_3 
REMARK    2  A    between atoms: C_2  and  C_11 
REMARK    3  A    between atoms: N_3  and  C_4 
REMARK    4  A    between atoms: N_12  and  C_13 
REMARK    5  A    between atoms: C_19  and  S_20 
REMARK    6  A    between atoms: S_20  and  C_21 
REMARK    7  A    between atoms: C_21  and  C_22 
REMARK       I    between atoms: C_22  and  N_23 
REMARK    8  A    between atoms: N_23  and  C_24 
REMARK    9  A    between atoms: C_26  and  N_27 
REMARK       I    between atoms: N_27  and  C_28 
ROOT
HETATM    1  C   UNL     1      25.684  46.088  52.875  1.00  0.00     0.158 A 
HETATM    2  N   UNL     1      25.432  45.686  51.562  1.00  0.00    -0.274 N 
HETATM    3  C   UNL     1      24.992  46.845  50.943  1.00  0.00     0.196 A 
HETATM    4  N   UNL     1      24.887  47.820  51.818  1.00  0.00    -0.122 NA
HETATM    5  N   UNL     1      25.319  47.353  53.019  1.00  0.00    -0.131 NA
ENDROOT
BRANCH   3   6
HETATM    6  S   UNL     1      24.446  46.986  49.302  1.00  0.00    -0.080 SA
BRANCH   6   7
HETATM    7  C   UNL     1      24.875  48.717  48.940  1.00  0.00     0.185 C 
BRANCH   7   8
HETATM    8  C   UNL     1      23.649  49.463  48.436  1.00  0.00     0.231 C 
HETATM    9  N   UNL     1      22.591  49.463  49.332  1.00  0.00    -0.326 N 
HETATM   10  H   UNL     1      22.730  48.943  50.199  1.00  0.00     0.169 HD
HETATM   11  O   UNL     1      23.659  49.984  47.323  1.00  0.00    -0.272 OA
BRANCH   9  12
HETATM   12  C   UNL     1      21.308  50.024  49.141  1.00  0.00     0.036 A 
HETATM   13  C   UNL     1      20.204  49.156  49.245  1.00  0.00     0.059 A 
HETATM   14  C   UNL     1      18.898  49.621  49.056  1.00  0.00     0.036 A 
HETATM   15  C   UNL     1      18.711  50.974  48.745  1.00  0.00     0.029 A 
HETATM   16  C   UNL     1      19.794  51.843  48.648  1.00  0.00     0.004 A 
HETATM   17  C   UNL     1      21.089  51.368  48.848  1.00  0.00     0.029 A 
BRANCH  14  18
HETATM   18  N   UNL     1      17.728  48.842  49.121  1.00  0.00    -0.327 N 
HETATM   19  C   UNL     1      16.946  48.213  48.201  1.00  0.00     0.218 C 
HETATM   20  C   UNL     1      17.314  48.154  46.751  1.00  0.00     0.117 C 
HETATM   21  O   UNL     1      15.917  47.660  48.604  1.00  0.00    -0.274 OA
HETATM   22  H   UNL     1      17.353  48.687  50.050  1.00  0.00     0.169 HD
ENDBRANCH  14  18
ENDBRANCH   9  12
ENDBRANCH   7   8
ENDBRANCH   6   7
ENDBRANCH   3   6
BRANCH   2  23
HETATM   23  C   UNL     1      25.591  44.389  51.006  1.00  0.00     0.043 A 
HETATM   24  C   UNL     1      24.529  43.476  51.046  1.00  0.00     0.030 A 
HETATM   25  C   UNL     1      24.686  42.198  50.506  1.00  0.00     0.002 A 
HETATM   26  C   UNL     1      25.896  41.828  49.923  1.00  0.00     0.000 A 
HETATM   27  C   UNL     1      26.952  42.736  49.875  1.00  0.00     0.002 A 
HETATM   28  C   UNL     1      26.804  44.015  50.413  1.00  0.00     0.030 A 
ENDBRANCH   2  23
BRANCH   1  29
HETATM   29  C   UNL     1      26.402  45.287  53.943  1.00  0.00     0.150 C 
HETATM   30  C   UNL     1      25.549  44.088  54.383  1.00  0.00     0.040 C 
BRANCH  29  31
HETATM   31  N   UNL     1      27.690  44.778  53.441  1.00  0.00    -0.379 N 
HETATM   32  H   UNL     1      27.559  44.147  52.652  1.00  0.00     0.160 HD
BRANCH  31  33
HETATM   33  C   UNL     1      28.760  44.458  54.264  1.00  0.00     0.028 A 
HETATM   34  C   UNL     1      29.059  45.301  55.346  1.00  0.00     0.030 A 
HETATM   35  C   UNL     1      30.088  45.002  56.244  1.00  0.00     0.021 A 
HETATM   36  C   UNL     1      30.818  43.831  56.084  1.00  0.00     0.011 A 
HETATM   37 BR   UNL     1      32.193  43.402  57.307  1.00  0.00    -0.051 Br
HETATM   38  C   UNL     1      30.529  42.966  55.034  1.00  0.00     0.021 A 
HETATM   39  C   UNL     1      29.504  43.280  54.133  1.00  0.00     0.030 A 
ENDBRANCH  31  33
ENDBRANCH  29  31
ENDBRANCH   1  29
TORSDOF 9
ENDMDL
MODEL 3
REMARK VINA RESULT:      -9.6      1.966      3.023
REMARK  9 active torsions:
REMARK  status: ('A' for Active; 'I' for Inactive)
REMARK    1  A    between atoms: C_2  and  N_3 
REMARK    2  A    between atoms: C_2  and  C_11 
REMARK    3  A    between atoms: N_3  and  C_4 
REMARK    4  A    between atoms: N_12  and  C_13 
REMARK    5  A    between atoms: C_19  and  S_20 
REMARK    6  A    between atoms: S_20  and  C_21 
REMARK    7  A    between atoms: C_21  and  C_22 
REMARK       I    between atoms: C_22  and  N_23 
REMARK    8  A    between atoms: N_23  and  C_24 
REMARK    9  A    between atoms: C_26  and  N_27 
REMARK       I    between atoms: N_27  and  C_28 
ROOT
HETATM    1  C   UNL     1      26.933  42.182  51.782  1.00  0.00     0.158 A 
HETATM    2  N   UNL     1      25.974  43.192  51.698  1.00  0.00    -0.274 N 
HETATM    3  C   UNL     1      25.106  42.740  50.716  1.00  0.00     0.196 A 
HETATM    4  N   UNL     1      25.554  41.624  50.188  1.00  0.00    -0.122 NA
HETATM    5  N   UNL     1      26.688  41.273  50.850  1.00  0.00    -0.131 NA
ENDROOT
BRANCH   3   6
HETATM    6  S   UNL     1      23.729  43.593  50.095  1.00  0.00    -0.080 SA
BRANCH   6   7
HETATM    7  C   UNL     1      24.538  44.919  49.146  1.00  0.00     0.185 C 
BRANCH   7   8
HETATM    8  C   UNL     1      23.569  46.070  48.928  1.00  0.00     0.231 C 
HETATM    9  N   UNL     1      24.172  47.319  48.960  1.00  0.00    -0.326 N 
HETATM   10  H   UNL     1      25.172  47.334  49.159  1.00  0.00     0.169 HD
HETATM   11  O   UNL     1      22.373  45.844  48.757  1.00  0.00    -0.272 OA
BRANCH   9  12
HETATM   12  C   UNL     1      23.540  48.577  48.840  1.00  0.00     0.036 A 
HETATM   13  C   UNL     1      22.330  48.759  49.536  1.00  0.00     0.059 A 
HETATM   14  C   UNL     1      21.628  49.968  49.463  1.00  0.00     0.036 A 
HETATM   15  C   UNL     1      22.150  50.994  48.666  1.00  0.00     0.029 A 
HETATM   16  C   UNL     1      23.351  50.828  47.980  1.00  0.00     0.004 A 
HETATM   17  C   UNL     1      24.044  49.623  48.070  1.00  0.00     0.029 A 
BRANCH  14  18
HETATM   18  N   UNL     1      20.407  50.252  50.102  1.00  0.00    -0.327 N 
HETATM   19  C   UNL     1      19.097  50.063  49.787  1.00  0.00     0.218 C 
HETATM   20  C   UNL     1      18.673  49.315  48.561  1.00  0.00     0.117 C 
HETATM   21  O   UNL     1      18.249  50.511  50.567  1.00  0.00    -0.274 OA
HETATM   22  H   UNL     1      20.479  50.695  51.012  1.00  0.00     0.169 HD
ENDBRANCH  14  18
ENDBRANCH   9  12
ENDBRANCH   7   8
ENDBRANCH   6   7
ENDBRANCH   3   6
BRANCH   2  23
HETATM   23  C   UNL     1      25.916  44.397  52.446  1.00  0.00     0.043 A 
HETATM   24  C   UNL     1      26.359  45.598  51.875  1.00  0.00     0.030 A 
HETATM   25  C   UNL     1      26.309  46.782  52.613  1.00  0.00     0.002 A 
HETATM   26  C   UNL     1      25.815  46.776  53.915  1.00  0.00     0.000 A 
HETATM   27  C   UNL     1      25.366  45.585  54.484  1.00  0.00     0.002 A 
HETATM   28  C   UNL     1      25.414  44.396  53.754  1.00  0.00     0.030 A 
ENDBRANCH   2  23
BRANCH   1  29
HETATM   29  C   UNL     1      27.998  42.033  52.850  1.00  0.00     0.150 C 
HETATM   30  C   UNL     1      28.880  40.808  52.565  1.00  0.00     0.040 C 
BRANCH  29  31
HETATM   31  N   UNL     1      28.862  43.224  52.898  1.00  0.00    -0.379 N 
HETATM   32  H   UNL     1      29.483  43.267  52.092  1.00  0.00     0.160 HD
BRANCH  31  33
HETATM   33  C   UNL     1      29.406  43.729  54.071  1.00  0.00     0.028 A 
HETATM   34  C   UNL     1      28.863  44.902  54.619  1.00  0.00     0.030 A 
HETATM   35  C   UNL     1      29.328  45.429  55.828  1.00  0.00     0.021 A 
HETATM   36  C   UNL     1      30.332  44.765  56.523  1.00  0.00     0.011 A 
HETATM   37 BR   UNL     1      30.950  45.452  58.171  1.00  0.00    -0.051 Br
HETATM   38  C   UNL     1      30.872  43.589  56.014  1.00  0.00     0.021 A 
HETATM   39  C   UNL     1      30.408  43.076  54.797  1.00  0.00     0.030 A 
ENDBRANCH  31  33
ENDBRANCH  29  31
ENDBRANCH   1  29
TORSDOF 9
ENDMDL
MODEL 4
REMARK VINA RESULT:      -9.4      4.333      9.605
REMARK  9 active torsions:
REMARK  status: ('A' for Active; 'I' for Inactive)
REMARK    1  A    between atoms: C_2  and  N_3 
REMARK    2  A    between atoms: C_2  and  C_11 
REMARK    3  A    between atoms: N_3  and  C_4 
REMARK    4  A    between atoms: N_12  and  C_13 
REMARK    5  A    between atoms: C_19  and  S_20 
REMARK    6  A    between atoms: S_20  and  C_21 
REMARK    7  A    between atoms: C_21  and  C_22 
REMARK       I    between atoms: C_22  and  N_23 
REMARK    8  A    between atoms: N_23  and  C_24 
REMARK    9  A    between atoms: C_26  and  N_27 
REMARK       I    between atoms: N_27  and  C_28 
ROOT
HETATM    1  C   UNL     1      22.246  45.015  48.856  1.00  0.00     0.158 A 
HETATM    2  N   UNL     1      23.402  44.696  49.569  1.00  0.00    -0.274 N 
HETATM    3  C   UNL     1      23.493  43.318  49.447  1.00  0.00     0.196 A 
HETATM    4  N   UNL     1      22.442  42.845  48.816  1.00  0.00    -0.122 NA
HETATM    5  N   UNL     1      21.666  43.897  48.446  1.00  0.00    -0.131 NA
ENDROOT
BRANCH   3   6
HETATM    6  S   UNL     1      24.691  42.302  50.181  1.00  0.00    -0.080 SA
BRANCH   6   7
HETATM    7  C   UNL     1      26.187  42.821  49.285  1.00  0.00     0.185 C 
BRANCH   7   8
HETATM    8  C   UNL     1      27.177  43.459  50.247  1.00  0.00     0.231 C 
HETATM    9  N   UNL     1      27.429  42.693  51.376  1.00  0.00    -0.326 N 
HETATM   10  H   UNL     1      26.907  41.820  51.457  1.00  0.00     0.169 HD
HETATM   11  O   UNL     1      27.661  44.559  49.993  1.00  0.00    -0.272 OA
BRANCH   9  12
HETATM   12  C   UNL     1      28.256  43.029  52.471  1.00  0.00     0.036 A 
HETATM   13  C   UNL     1      27.723  43.906  53.436  1.00  0.00     0.059 A 
HETATM   14  C   UNL     1      28.476  44.304  54.545  1.00  0.00     0.036 A 
HETATM   15  C   UNL     1      29.785  43.822  54.670  1.00  0.00     0.029 A 
HETATM   16  C   UNL     1      30.320  42.948  53.727  1.00  0.00     0.004 A 
HETATM   17  C   UNL     1      29.555  42.552  52.631  1.00  0.00     0.029 A 
BRANCH  14  18
HETATM   18  N   UNL     1      28.051  45.184  55.557  1.00  0.00    -0.327 N 
HETATM   19  C   UNL     1      27.993  46.538  55.685  1.00  0.00     0.218 C 
HETATM   20  C   UNL     1      28.334  47.459  54.554  1.00  0.00     0.117 C 
HETATM   21  O   UNL     1      27.621  46.997  56.770  1.00  0.00    -0.274 OA
HETATM   22  H   UNL     1      27.693  44.746  56.400  1.00  0.00     0.169 HD
ENDBRANCH  14  18
ENDBRANCH   9  12
ENDBRANCH   7   8
ENDBRANCH   6   7
ENDBRANCH   3   6
BRANCH   2  23
HETATM   23  C   UNL     1      24.271  45.584  50.257  1.00  0.00     0.043 A 
HETATM   24  C   UNL     1      24.870  46.648  49.569  1.00  0.00     0.030 A 
HETATM   25  C   UNL     1      25.731  47.517  50.243  1.00  0.00     0.002 A 
HETATM   26  C   UNL     1      25.992  47.333  51.599  1.00  0.00     0.000 A 
HETATM   27  C   UNL     1      25.392  46.281  52.287  1.00  0.00     0.002 A 
HETATM   28  C   UNL     1      24.532  45.406  51.621  1.00  0.00     0.030 A 
ENDBRANCH   2  23
BRANCH   1  29
HETATM   29  C   UNL     1      21.783  46.403  48.461  1.00  0.00     0.150 C 
HETATM   30  C   UNL     1      21.500  46.468  46.952  1.00  0.00     0.040 C 
BRANCH  29  31
HETATM   31  N   UNL     1      20.549  46.769  49.177  1.00  0.00    -0.379 N 
HETATM   32  H   UNL     1      19.851  46.029  49.121  1.00  0.00     0.160 HD
BRANCH  31  33
HETATM   33  C   UNL     1      20.026  48.054  49.194  1.00  0.00     0.028 A 
HETATM   34  C   UNL     1      18.635  48.217  49.288  1.00  0.00     0.030 A 
HETATM   35  C   UNL     1      18.050  49.486  49.368  1.00  0.00     0.021 A 
HETATM   36  C   UNL     1      18.862  50.614  49.383  1.00  0.00     0.011 A 
HETATM   37 BR   UNL     1      18.086  52.331  49.517  1.00  0.00    -0.051 Br
HETATM   38  C   UNL     1      20.245  50.480  49.314  1.00  0.00     0.021 A 
HETATM   39  C   UNL     1      20.819  49.206  49.222  1.00  0.00     0.030 A 
ENDBRANCH  31  33
ENDBRANCH  29  31
ENDBRANCH   1  29
TORSDOF 9
ENDMDL
MODEL 5
REMARK VINA RESULT:      -9.4      1.491      2.356
REMARK  9 active torsions:
REMARK  status: ('A' for Active; 'I' for Inactive)
REMARK    1  A    between atoms: C_2  and  N_3 
REMARK    2  A    between atoms: C_2  and  C_11 
REMARK    3  A    between atoms: N_3  and  C_4 
REMARK    4  A    between atoms: N_12  and  C_13 
REMARK    5  A    between atoms: C_19  and  S_20 
REMARK    6  A    between atoms: S_20  and  C_21 
REMARK    7  A    between atoms: C_21  and  C_22 
REMARK       I    between atoms: C_22  and  N_23 
REMARK    8  A    between atoms: N_23  and  C_24 
REMARK    9  A    between atoms: C_26  and  N_27 
REMARK       I    between atoms: N_27  and  C_28 
ROOT
HETATM    1  C   UNL     1      25.707  45.372  52.031  1.00  0.00     0.158 A 
HETATM    2  N   UNL     1      25.339  45.757  50.741  1.00  0.00    -0.274 N 
HETATM    3  C   UNL     1      24.526  44.722  50.310  1.00  0.00     0.196 A 
HETATM    4  N   UNL     1      24.493  43.761  51.205  1.00  0.00    -0.122 NA
HETATM    5  N   UNL     1      25.224  44.164  52.278  1.00  0.00    -0.131 NA
ENDROOT
BRANCH   3   6
HETATM    6  S   UNL     1      23.802  44.573  48.740  1.00  0.00    -0.080 SA
BRANCH   6   7
HETATM    7  C   UNL     1      22.042  44.430  49.178  1.00  0.00     0.185 C 
BRANCH   7   8
HETATM    8  C   UNL     1      21.251  45.559  48.536  1.00  0.00     0.231 C 
HETATM    9  N   UNL     1      20.019  45.785  49.133  1.00  0.00    -0.326 N 
HETATM   10  H   UNL     1      19.764  45.160  49.898  1.00  0.00     0.169 HD
HETATM   11  O   UNL     1      21.714  46.166  47.574  1.00  0.00    -0.272 OA
BRANCH   9  12
HETATM   12  C   UNL     1      19.038  46.723  48.741  1.00  0.00     0.036 A 
HETATM   13  C   UNL     1      19.058  47.980  49.377  1.00  0.00     0.059 A 
HETATM   14  C   UNL     1      18.115  48.964  49.062  1.00  0.00     0.036 A 
HETATM   15  C   UNL     1      17.134  48.667  48.108  1.00  0.00     0.029 A 
HETATM   16  C   UNL     1      17.110  47.431  47.467  1.00  0.00     0.004 A 
HETATM   17  C   UNL     1      18.061  46.463  47.782  1.00  0.00     0.029 A 
BRANCH  14  18
HETATM   18  N   UNL     1      18.033  50.243  49.644  1.00  0.00    -0.327 N 
HETATM   19  C   UNL     1      18.650  51.435  49.423  1.00  0.00     0.218 C 
HETATM   20  C   UNL     1      19.596  51.642  48.280  1.00  0.00     0.117 C 
HETATM   21  O   UNL     1      18.387  52.369  50.189  1.00  0.00    -0.274 OA
HETATM   22  H   UNL     1      17.367  50.339  50.403  1.00  0.00     0.169 HD
ENDBRANCH  14  18
ENDBRANCH   9  12
ENDBRANCH   7   8
ENDBRANCH   6   7
ENDBRANCH   3   6
BRANCH   2  23
HETATM   23  C   UNL     1      25.720  46.935  50.045  1.00  0.00     0.043 A 
HETATM   24  C   UNL     1      27.064  47.147  49.713  1.00  0.00     0.030 A 
HETATM   25  C   UNL     1      27.440  48.309  49.035  1.00  0.00     0.002 A 
HETATM   26  C   UNL     1      26.482  49.257  48.683  1.00  0.00     0.000 A 
HETATM   27  C   UNL     1      25.143  49.045  49.006  1.00  0.00     0.002 A 
HETATM   28  C   UNL     1      24.758  47.887  49.685  1.00  0.00     0.030 A 
ENDBRANCH   2  23
BRANCH   1  29
HETATM   29  C   UNL     1      26.407  46.232  53.065  1.00  0.00     0.150 C 
HETATM   30  C   UNL     1      25.583  47.493  53.366  1.00  0.00     0.040 C 
BRANCH  29  31
HETATM   31  N   UNL     1      26.593  45.491  54.324  1.00  0.00    -0.379 N 
HETATM   32  H   UNL     1      25.971  45.833  55.054  1.00  0.00     0.160 HD
BRANCH  31  33
HETATM   33  C   UNL     1      27.829  45.053  54.780  1.00  0.00     0.028 A 
HETATM   34  C   UNL     1      28.466  45.771  55.804  1.00  0.00     0.030 A 
HETATM   35  C   UNL     1      29.685  45.348  56.345  1.00  0.00     0.021 A 
HETATM   36  C   UNL     1      30.269  44.176  55.883  1.00  0.00     0.011 A 
HETATM   37 BR   UNL     1      31.901  43.580  56.625  1.00  0.00    -0.051 Br
HETATM   38  C   UNL     1      29.648  43.433  54.885  1.00  0.00     0.021 A 
HETATM   39  C   UNL     1      28.434  43.871  54.341  1.00  0.00     0.030 A 
ENDBRANCH  31  33
ENDBRANCH  29  31
ENDBRANCH   1  29
TORSDOF 9
ENDMDL
MODEL 6
REMARK VINA RESULT:      -9.4      2.283      3.368
REMARK  9 active torsions:
REMARK  status: ('A' for Active; 'I' for Inactive)
REMARK    1  A    between atoms: C_2  and  N_3 
REMARK    2  A    between atoms: C_2  and  C_11 
REMARK    3  A    between atoms: N_3  and  C_4 
REMARK    4  A    between atoms: N_12  and  C_13 
REMARK    5  A    between atoms: C_19  and  S_20 
REMARK    6  A    between atoms: S_20  and  C_21 
REMARK    7  A    between atoms: C_21  and  C_22 
REMARK       I    between atoms: C_22  and  N_23 
REMARK    8  A    between atoms: N_23  and  C_24 
REMARK    9  A    between atoms: C_26  and  N_27 
REMARK       I    between atoms: N_27  and  C_28 
ROOT
HETATM    1  C   UNL     1      27.436  41.688  51.320  1.00  0.00     0.158 A 
HETATM    2  N   UNL     1      26.556  42.603  50.739  1.00  0.00    -0.274 N 
HETATM    3  C   UNL     1      26.113  41.952  49.598  1.00  0.00     0.196 A 
HETATM    4  N   UNL     1      26.742  40.808  49.450  1.00  0.00    -0.122 NA
HETATM    5  N   UNL     1      27.564  40.641  50.520  1.00  0.00    -0.131 NA
ENDROOT
BRANCH   3   6
HETATM    6  S   UNL     1      25.041  42.602  48.399  1.00  0.00    -0.080 SA
BRANCH   6   7
HETATM    7  C   UNL     1      23.426  42.347  49.199  1.00  0.00     0.185 C 
BRANCH   7   8
HETATM    8  C   UNL     1      22.837  43.683  49.622  1.00  0.00     0.231 C 
HETATM    9  N   UNL     1      23.016  44.691  48.686  1.00  0.00    -0.326 N 
HETATM   10  H   UNL     1      23.545  44.445  47.849  1.00  0.00     0.169 HD
HETATM   11  O   UNL     1      22.278  43.793  50.710  1.00  0.00    -0.272 OA
BRANCH   9  12
HETATM   12  C   UNL     1      22.630  46.046  48.803  1.00  0.00     0.036 A 
HETATM   13  C   UNL     1      21.274  46.350  48.578  1.00  0.00     0.059 A 
HETATM   14  C   UNL     1      20.806  47.667  48.658  1.00  0.00     0.036 A 
HETATM   15  C   UNL     1      21.723  48.683  48.952  1.00  0.00     0.029 A 
HETATM   16  C   UNL     1      23.065  48.393  49.185  1.00  0.00     0.004 A 
HETATM   17  C   UNL     1      23.515  47.076  49.113  1.00  0.00     0.029 A 
BRANCH  14  18
HETATM   18  N   UNL     1      19.480  48.085  48.438  1.00  0.00    -0.327 N 
HETATM   19  C   UNL     1      18.433  48.408  49.244  1.00  0.00     0.218 C 
HETATM   20  C   UNL     1      18.569  48.481  50.734  1.00  0.00     0.117 C 
HETATM   21  O   UNL     1      17.353  48.672  48.705  1.00  0.00    -0.274 OA
HETATM   22  H   UNL     1      19.206  48.184  47.466  1.00  0.00     0.169 HD
ENDBRANCH  14  18
ENDBRANCH   9  12
ENDBRANCH   7   8
ENDBRANCH   6   7
ENDBRANCH   3   6
BRANCH   2  23
HETATM   23  C   UNL     1      26.208  43.894  51.214  1.00  0.00     0.043 A 
HETATM   24  C   UNL     1      25.358  44.027  52.320  1.00  0.00     0.030 A 
HETATM   25  C   UNL     1      25.008  45.297  52.784  1.00  0.00     0.002 A 
HETATM   26  C   UNL     1      25.506  46.435  52.153  1.00  0.00     0.000 A 
HETATM   27  C   UNL     1      26.358  46.307  51.057  1.00  0.00     0.002 A 
HETATM   28  C   UNL     1      26.711  45.041  50.586  1.00  0.00     0.030 A 
ENDBRANCH   2  23
BRANCH   1  29
HETATM   29  C   UNL     1      28.042  41.774  52.707  1.00  0.00     0.150 C 
HETATM   30  C   UNL     1      28.787  40.475  53.050  1.00  0.00     0.040 C 
BRANCH  29  31
HETATM   31  N   UNL     1      28.997  42.891  52.794  1.00  0.00    -0.379 N 
HETATM   32  H   UNL     1      29.817  42.728  52.213  1.00  0.00     0.160 HD
BRANCH  31  33
HETATM   33  C   UNL     1      29.252  43.590  53.966  1.00  0.00     0.028 A 
HETATM   34  C   UNL     1      30.390  43.259  54.718  1.00  0.00     0.030 A 
HETATM   35  C   UNL     1      30.733  43.964  55.876  1.00  0.00     0.021 A 
HETATM   36  C   UNL     1      29.948  45.037  56.282  1.00  0.00     0.011 A 
HETATM   37 BR   UNL     1      30.416  46.015  57.829  1.00  0.00    -0.051 Br
HETATM   38  C   UNL     1      28.828  45.402  55.543  1.00  0.00     0.021 A 
HETATM   39  C   UNL     1      28.486  44.681  54.391  1.00  0.00     0.030 A 
ENDBRANCH  31  33
ENDBRANCH  29  31
ENDBRANCH   1  29
TORSDOF 9
ENDMDL
MODEL 7
REMARK VINA RESULT:      -9.1      4.369     10.436
REMARK  9 active torsions:
REMARK  status: ('A' for Active; 'I' for Inactive)
REMARK    1  A    between atoms: C_2  and  N_3 
REMARK    2  A    between atoms: C_2  and  C_11 
REMARK    3  A    between atoms: N_3  and  C_4 
REMARK    4  A    between atoms: N_12  and  C_13 
REMARK    5  A    between atoms: C_19  and  S_20 
REMARK    6  A    between atoms: S_20  and  C_21 
REMARK    7  A    between atoms: C_21  and  C_22 
REMARK       I    between atoms: C_22  and  N_23 
REMARK    8  A    between atoms: N_23  and  C_24 
REMARK    9  A    between atoms: C_26  and  N_27 
REMARK       I    between atoms: N_27  and  C_28 
ROOT
HETATM    1  C   UNL     1      22.225  48.953  48.688  1.00  0.00     0.158 A 
HETATM    2  N   UNL     1      21.357  47.861  48.653  1.00  0.00    -0.274 N 
HETATM    3  C   UNL     1      22.208  46.767  48.619  1.00  0.00     0.196 A 
HETATM    4  N   UNL     1      23.457  47.162  48.534  1.00  0.00    -0.122 NA
HETATM    5  N   UNL     1      23.471  48.520  48.579  1.00  0.00    -0.131 NA
ENDROOT
BRANCH   3   6
HETATM    6  S   UNL     1      21.732  45.103  48.494  1.00  0.00    -0.080 SA
BRANCH   6   7
HETATM    7  C   UNL     1      23.327  44.264  48.750  1.00  0.00     0.185 C 
BRANCH   7   8
HETATM    8  C   UNL     1      23.773  44.422  50.195  1.00  0.00     0.231 C 
HETATM    9  N   UNL     1      24.841  45.292  50.357  1.00  0.00    -0.326 N 
HETATM   10  H   UNL     1      25.230  45.695  49.504  1.00  0.00     0.169 HD
HETATM   11  O   UNL     1      23.204  43.797  51.087  1.00  0.00    -0.272 OA
BRANCH   9  12
HETATM   12  C   UNL     1      25.512  45.610  51.559  1.00  0.00     0.036 A 
HETATM   13  C   UNL     1      26.246  44.579  52.179  1.00  0.00     0.059 A 
HETATM   14  C   UNL     1      26.929  44.800  53.380  1.00  0.00     0.036 A 
HETATM   15  C   UNL     1      26.855  46.071  53.965  1.00  0.00     0.029 A 
HETATM   16  C   UNL     1      26.140  47.099  53.356  1.00  0.00     0.004 A 
HETATM   17  C   UNL     1      25.473  46.868  52.155  1.00  0.00     0.029 A 
BRANCH  14  18
HETATM   18  N   UNL     1      27.676  43.843  54.091  1.00  0.00    -0.327 N 
HETATM   19  C   UNL     1      28.790  43.109  53.824  1.00  0.00     0.218 C 
HETATM   20  C   UNL     1      29.588  43.301  52.571  1.00  0.00     0.117 C 
HETATM   21  O   UNL     1      29.149  42.282  54.669  1.00  0.00    -0.274 OA
HETATM   22  H   UNL     1      27.341  43.628  55.024  1.00  0.00     0.169 HD
ENDBRANCH  14  18
ENDBRANCH   9  12
ENDBRANCH   7   8
ENDBRANCH   6   7
ENDBRANCH   3   6
BRANCH   2  23
HETATM   23  C   UNL     1      19.937  47.880  48.650  1.00  0.00     0.043 A 
HETATM   24  C   UNL     1      19.238  48.080  49.847  1.00  0.00     0.030 A 
HETATM   25  C   UNL     1      17.841  48.091  49.846  1.00  0.00     0.002 A 
HETATM   26  C   UNL     1      17.140  47.908  48.657  1.00  0.00     0.000 A 
HETATM   27  C   UNL     1      17.832  47.716  47.463  1.00  0.00     0.002 A 
HETATM   28  C   UNL     1      19.228  47.702  47.455  1.00  0.00     0.030 A 
ENDBRANCH   2  23
BRANCH   1  29
HETATM   29  C   UNL     1      21.850  50.395  48.963  1.00  0.00     0.150 C 
HETATM   30  C   UNL     1      23.103  51.284  48.979  1.00  0.00     0.040 C 
BRANCH  29  31
HETATM   31  N   UNL     1      20.934  50.906  47.930  1.00  0.00    -0.379 N 
HETATM   32  H   UNL     1      21.423  51.492  47.255  1.00  0.00     0.160 HD
BRANCH  31  33
HETATM   33  C   UNL     1      19.627  51.293  48.188  1.00  0.00     0.028 A 
HETATM   34  C   UNL     1      19.300  51.763  49.470  1.00  0.00     0.030 A 
HETATM   35  C   UNL     1      18.015  52.221  49.776  1.00  0.00     0.021 A 
HETATM   36  C   UNL     1      17.041  52.240  48.785  1.00  0.00     0.011 A 
HETATM   37 BR   UNL     1      15.308  52.883  49.179  1.00  0.00    -0.051 Br
HETATM   38  C   UNL     1      17.343  51.802  47.500  1.00  0.00     0.021 A 
HETATM   39  C   UNL     1      18.630  51.334  47.207  1.00  0.00     0.030 A 
ENDBRANCH  31  33
ENDBRANCH  29  31
ENDBRANCH   1  29
TORSDOF 9
ENDMDL
MODEL 8
REMARK VINA RESULT:      -9.1      2.661      4.059
REMARK  9 active torsions:
REMARK  status: ('A' for Active; 'I' for Inactive)
REMARK    1  A    between atoms: C_2  and  N_3 
REMARK    2  A    between atoms: C_2  and  C_11 
REMARK    3  A    between atoms: N_3  and  C_4 
REMARK    4  A    between atoms: N_12  and  C_13 
REMARK    5  A    between atoms: C_19  and  S_20 
REMARK    6  A    between atoms: S_20  and  C_21 
REMARK    7  A    between atoms: C_21  and  C_22 
REMARK       I    between atoms: C_22  and  N_23 
REMARK    8  A    between atoms: N_23  and  C_24 
REMARK    9  A    between atoms: C_26  and  N_27 
REMARK       I    between atoms: N_27  and  C_28 
ROOT
HETATM    1  C   UNL     1      24.789  43.669  51.091  1.00  0.00     0.158 A 
HETATM    2  N   UNL     1      24.855  42.634  50.156  1.00  0.00    -0.274 N 
HETATM    3  C   UNL     1      23.581  42.605  49.610  1.00  0.00     0.196 A 
HETATM    4  N   UNL     1      22.798  43.461  50.226  1.00  0.00    -0.122 NA
HETATM    5  N   UNL     1      23.547  44.125  51.146  1.00  0.00    -0.131 NA
ENDROOT
BRANCH   3   6
HETATM    6  S   UNL     1      23.000  41.477  48.427  1.00  0.00    -0.080 SA
BRANCH   6   7
HETATM    7  C   UNL     1      23.043  42.498  46.920  1.00  0.00     0.185 C 
BRANCH   7   8
HETATM    8  C   UNL     1      21.962  43.566  46.983  1.00  0.00     0.231 C 
HETATM    9  N   UNL     1      22.460  44.856  47.094  1.00  0.00    -0.326 N 
HETATM   10  H   UNL     1      23.474  44.946  47.158  1.00  0.00     0.169 HD
HETATM   11  O   UNL     1      20.777  43.245  46.947  1.00  0.00    -0.272 OA
BRANCH   9  12
HETATM   12  C   UNL     1      21.719  46.051  47.222  1.00  0.00     0.036 A 
HETATM   13  C   UNL     1      22.124  46.957  48.222  1.00  0.00     0.059 A 
HETATM   14  C   UNL     1      21.439  48.159  48.430  1.00  0.00     0.036 A 
HETATM   15  C   UNL     1      20.325  48.438  47.629  1.00  0.00     0.029 A 
HETATM   16  C   UNL     1      19.919  47.554  46.632  1.00  0.00     0.004 A 
HETATM   17  C   UNL     1      20.617  46.365  46.429  1.00  0.00     0.029 A 
BRANCH  14  18
HETATM   18  N   UNL     1      21.746  49.124  49.406  1.00  0.00    -0.327 N 
HETATM   19  C   UNL     1      22.482  50.269  49.420  1.00  0.00     0.218 C 
HETATM   20  C   UNL     1      23.101  50.832  48.178  1.00  0.00     0.117 C 
HETATM   21  O   UNL     1      22.606  50.859  50.499  1.00  0.00    -0.274 OA
HETATM   22  H   UNL     1      21.341  48.968  50.323  1.00  0.00     0.169 HD
ENDBRANCH  14  18
ENDBRANCH   9  12
ENDBRANCH   7   8
ENDBRANCH   6   7
ENDBRANCH   3   6
BRANCH   2  23
HETATM   23  C   UNL     1      25.970  41.812  49.850  1.00  0.00     0.043 A 
HETATM   24  C   UNL     1      26.384  40.828  50.758  1.00  0.00     0.030 A 
HETATM   25  C   UNL     1      27.486  40.023  50.460  1.00  0.00     0.002 A 
HETATM   26  C   UNL     1      28.173  40.192  49.260  1.00  0.00     0.000 A 
HETATM   27  C   UNL     1      27.760  41.164  48.352  1.00  0.00     0.002 A 
HETATM   28  C   UNL     1      26.660  41.974  48.641  1.00  0.00     0.030 A 
ENDBRANCH   2  23
BRANCH   1  29
HETATM   29  C   UNL     1      25.956  44.298  51.825  1.00  0.00     0.150 C 
HETATM   30  C   UNL     1      25.768  45.819  51.931  1.00  0.00     0.040 C 
BRANCH  29  31
HETATM   31  N   UNL     1      26.076  43.752  53.187  1.00  0.00    -0.379 N 
HETATM   32  H   UNL     1      25.237  43.932  53.737  1.00  0.00     0.160 HD
BRANCH  31  33
HETATM   33  C   UNL     1      27.256  43.765  53.917  1.00  0.00     0.028 A 
HETATM   34  C   UNL     1      28.150  42.692  53.778  1.00  0.00     0.030 A 
HETATM   35  C   UNL     1      29.382  42.675  54.442  1.00  0.00     0.021 A 
HETATM   36  C   UNL     1      29.746  43.755  55.237  1.00  0.00     0.011 A 
HETATM   37 BR   UNL     1      31.418  43.755  56.116  1.00  0.00    -0.051 Br
HETATM   38  C   UNL     1      28.889  44.841  55.374  1.00  0.00     0.021 A 
HETATM   39  C   UNL     1      27.653  44.843  54.715  1.00  0.00     0.030 A 
ENDBRANCH  31  33
ENDBRANCH  29  31
ENDBRANCH   1  29
TORSDOF 9
ENDMDL
MODEL 9
REMARK VINA RESULT:      -9.0      4.361      9.786
REMARK  9 active torsions:
REMARK  status: ('A' for Active; 'I' for Inactive)
REMARK    1  A    between atoms: C_2  and  N_3 
REMARK    2  A    between atoms: C_2  and  C_11 
REMARK    3  A    between atoms: N_3  and  C_4 
REMARK    4  A    between atoms: N_12  and  C_13 
REMARK    5  A    between atoms: C_19  and  S_20 
REMARK    6  A    between atoms: S_20  and  C_21 
REMARK    7  A    between atoms: C_21  and  C_22 
REMARK       I    between atoms: C_22  and  N_23 
REMARK    8  A    between atoms: N_23  and  C_24 
REMARK    9  A    between atoms: C_26  and  N_27 
REMARK       I    between atoms: N_27  and  C_28 
ROOT
HETATM    1  C   UNL     1      22.399  48.834  49.167  1.00  0.00     0.158 A 
HETATM    2  N   UNL     1      23.522  48.016  49.032  1.00  0.00    -0.274 N 
HETATM    3  C   UNL     1      22.985  46.762  48.783  1.00  0.00     0.196 A 
HETATM    4  N   UNL     1      21.675  46.800  48.865  1.00  0.00    -0.122 NA
HETATM    5  N   UNL     1      21.308  48.087  49.101  1.00  0.00    -0.131 NA
ENDROOT
BRANCH   3   6
HETATM    6  S   UNL     1      23.877  45.286  48.592  1.00  0.00    -0.080 SA
BRANCH   6   7
HETATM    7  C   UNL     1      23.140  44.261  49.903  1.00  0.00     0.185 C 
BRANCH   7   8
HETATM    8  C   UNL     1      24.233  43.669  50.779  1.00  0.00     0.231 C 
HETATM    9  N   UNL     1      25.277  44.546  51.034  1.00  0.00    -0.326 N 
HETATM   10  H   UNL     1      25.221  45.461  50.587  1.00  0.00     0.169 HD
HETATM   11  O   UNL     1      24.142  42.512  51.179  1.00  0.00    -0.272 OA
BRANCH   9  12
HETATM   12  C   UNL     1      26.456  44.283  51.768  1.00  0.00     0.036 A 
HETATM   13  C   UNL     1      26.551  44.843  53.057  1.00  0.00     0.059 A 
HETATM   14  C   UNL     1      27.688  44.646  53.848  1.00  0.00     0.036 A 
HETATM   15  C   UNL     1      28.743  43.890  53.323  1.00  0.00     0.029 A 
HETATM   16  C   UNL     1      28.657  43.324  52.053  1.00  0.00     0.004 A 
HETATM   17  C   UNL     1      27.514  43.519  51.279  1.00  0.00     0.029 A 
BRANCH  14  18
HETATM   18  N   UNL     1      27.895  45.170  55.138  1.00  0.00    -0.327 N 
HETATM   19  C   UNL     1      28.060  46.421  55.646  1.00  0.00     0.218 C 
HETATM   20  C   UNL     1      27.930  47.649  54.798  1.00  0.00     0.117 C 
HETATM   21  O   UNL     1      28.300  46.523  56.854  1.00  0.00    -0.274 OA
HETATM   22  H   UNL     1      27.930  44.489  55.888  1.00  0.00     0.169 HD
ENDBRANCH  14  18
ENDBRANCH   9  12
ENDBRANCH   7   8
ENDBRANCH   6   7
ENDBRANCH   3   6
BRANCH   2  23
HETATM   23  C   UNL     1      24.887  48.392  49.133  1.00  0.00     0.043 A 
HETATM   24  C   UNL     1      25.391  49.419  48.324  1.00  0.00     0.030 A 
HETATM   25  C   UNL     1      26.736  49.784  48.417  1.00  0.00     0.002 A 
HETATM   26  C   UNL     1      27.578  49.133  49.316  1.00  0.00     0.000 A 
HETATM   27  C   UNL     1      27.079  48.117  50.127  1.00  0.00     0.002 A 
HETATM   28  C   UNL     1      25.736  47.744  50.040  1.00  0.00     0.030 A 
ENDBRANCH   2  23
BRANCH   1  29
HETATM   29  C   UNL     1      22.387  50.349  49.221  1.00  0.00     0.150 C 
HETATM   30  C   UNL     1      22.175  50.937  47.818  1.00  0.00     0.040 C 
BRANCH  29  31
HETATM   31  N   UNL     1      21.305  50.834  50.094  1.00  0.00    -0.379 N 
HETATM   32  H   UNL     1      21.322  50.373  51.002  1.00  0.00     0.160 HD
BRANCH  31  33
HETATM   33  C   UNL     1      20.034  51.152  49.634  1.00  0.00     0.028 A 
HETATM   34  C   UNL     1      18.925  50.524  50.221  1.00  0.00     0.030 A 
HETATM   35  C   UNL     1      17.617  50.844  49.842  1.00  0.00     0.021 A 
HETATM   36  C   UNL     1      17.403  51.825  48.882  1.00  0.00     0.011 A 
HETATM   37 BR   UNL     1      15.641  52.286  48.381  1.00  0.00    -0.051 Br
HETATM   38  C   UNL     1      18.484  52.480  48.300  1.00  0.00     0.021 A 
HETATM   39  C   UNL     1      19.790  52.143  48.678  1.00  0.00     0.030 A 
ENDBRANCH  31  33
ENDBRANCH  29  31
ENDBRANCH   1  29
TORSDOF 9
ENDMDL
MODEL 10
REMARK VINA RESULT:      -8.9      2.335      3.736
REMARK  9 active torsions:
REMARK  status: ('A' for Active; 'I' for Inactive)
REMARK    1  A    between atoms: C_2  and  N_3 
REMARK    2  A    between atoms: C_2  and  C_11 
REMARK    3  A    between atoms: N_3  and  C_4 
REMARK    4  A    between atoms: N_12  and  C_13 
REMARK    5  A    between atoms: C_19  and  S_20 
REMARK    6  A    between atoms: S_20  and  C_21 
REMARK    7  A    between atoms: C_21  and  C_22 
REMARK       I    between atoms: C_22  and  N_23 
REMARK    8  A    between atoms: N_23  and  C_24 
REMARK    9  A    between atoms: C_26  and  N_27 
REMARK       I    between atoms: N_27  and  C_28 
ROOT
HETATM    1  C   UNL     1      24.288  47.164  50.071  1.00  0.00     0.158 A 
HETATM    2  N   UNL     1      23.541  46.256  49.320  1.00  0.00    -0.274 N 
HETATM    3  C   UNL     1      22.673  47.061  48.600  1.00  0.00     0.196 A 
HETATM    4  N   UNL     1      22.809  48.317  48.960  1.00  0.00    -0.122 NA
HETATM    5  N   UNL     1      23.814  48.385  49.873  1.00  0.00    -0.131 NA
ENDROOT
BRANCH   3   6
HETATM    6  S   UNL     1      21.426  46.517  47.524  1.00  0.00    -0.080 SA
BRANCH   6   7
HETATM    7  C   UNL     1      20.042  46.285  48.682  1.00  0.00     0.185 C 
BRANCH   7   8
HETATM    8  C   UNL     1      19.127  47.499  48.652  1.00  0.00     0.231 C 
HETATM    9  N   UNL     1      19.802  48.707  48.751  1.00  0.00    -0.326 N 
HETATM   10  H   UNL     1      20.814  48.652  48.869  1.00  0.00     0.169 HD
HETATM   11  O   UNL     1      17.911  47.353  48.559  1.00  0.00    -0.272 OA
BRANCH   9  12
HETATM   12  C   UNL     1      19.238  50.001  48.801  1.00  0.00     0.036 A 
HETATM   13  C   UNL     1      18.789  50.556  47.587  1.00  0.00     0.059 A 
HETATM   14  C   UNL     1      18.230  51.838  47.541  1.00  0.00     0.036 A 
HETATM   15  C   UNL     1      18.141  52.569  48.732  1.00  0.00     0.029 A 
HETATM   16  C   UNL     1      18.574  52.028  49.939  1.00  0.00     0.004 A 
HETATM   17  C   UNL     1      19.119  50.746  49.973  1.00  0.00     0.029 A 
BRANCH  14  18
HETATM   18  N   UNL     1      17.765  52.493  46.385  1.00  0.00    -0.327 N 
HETATM   19  C   UNL     1      16.578  52.533  45.721  1.00  0.00     0.218 C 
HETATM   20  C   UNL     1      15.348  51.861  46.249  1.00  0.00     0.117 C 
HETATM   21  O   UNL     1      16.532  53.173  44.665  1.00  0.00    -0.274 OA
HETATM   22  H   UNL     1      18.441  53.085  45.913  1.00  0.00     0.169 HD
ENDBRANCH  14  18
ENDBRANCH   9  12
ENDBRANCH   7   8
ENDBRANCH   6   7
ENDBRANCH   3   6
BRANCH   2  23
HETATM   23  C   UNL     1      23.653  44.840  49.309  1.00  0.00     0.043 A 
HETATM   24  C   UNL     1      24.674  44.226  48.572  1.00  0.00     0.030 A 
HETATM   25  C   UNL     1      24.780  42.833  48.553  1.00  0.00     0.002 A 
HETATM   26  C   UNL     1      23.876  42.052  49.270  1.00  0.00     0.000 A 
HETATM   27  C   UNL     1      22.864  42.660  50.010  1.00  0.00     0.002 A 
HETATM   28  C   UNL     1      22.750  44.052  50.033  1.00  0.00     0.030 A 
ENDBRANCH   2  23
BRANCH   1  29
HETATM   29  C   UNL     1      25.540  46.862  50.870  1.00  0.00     0.150 C 
HETATM   30  C   UNL     1      26.678  47.813  50.469  1.00  0.00     0.040 C 
BRANCH  29  31
HETATM   31  N   UNL     1      25.293  47.020  52.313  1.00  0.00    -0.379 N 
HETATM   32  H   UNL     1      24.714  47.836  52.506  1.00  0.00     0.160 HD
BRANCH  31  33
HETATM   33  C   UNL     1      26.242  46.745  53.288  1.00  0.00     0.028 A 
HETATM   34  C   UNL     1      26.810  45.462  53.337  1.00  0.00     0.030 A 
HETATM   35  C   UNL     1      27.813  45.141  54.258  1.00  0.00     0.021 A 
HETATM   36  C   UNL     1      28.281  46.117  55.129  1.00  0.00     0.011 A 
HETATM   37 BR   UNL     1      29.654  45.702  56.359  1.00  0.00    -0.051 Br
HETATM   38  C   UNL     1      27.752  47.402  55.086  1.00  0.00     0.021 A 
HETATM   39  C   UNL     1      26.740  47.711  54.168  1.00  0.00     0.030 A 
ENDBRANCH  31  33
ENDBRANCH  29  31
ENDBRANCH   1  29
TORSDOF 9
ENDMDL
