MODEL 1
REMARK VINA RESULT:      -8.1      0.000      0.000
REMARK  6 active torsions:
REMARK  status: ('A' for Active; 'I' for Inactive)
REMARK    1  A    between atoms: C_2  and  N_3 
REMARK    2  A    between atoms: C_2  and  C_21 
REMARK       I    between atoms: N_3  and  C_4 
REMARK       I    between atoms: C_4  and  N_5 
REMARK    3  A    between atoms: N_5  and  C_6 
REMARK    4  A    between atoms: C_9  and  O_10 
REMARK    5  A    between atoms: O_10  and  C_11 
REMARK    6  A    between atoms: C_11  and  C_12 
ROOT
HETATM    1  C   UNL     1      25.155  46.524  50.661  1.00  0.00     0.036 A 
HETATM    2  C   UNL     1      26.205  46.256  49.782  1.00  0.00     0.032 A 
HETATM    3  C   UNL     1      27.098  45.204  50.029  1.00  0.00     0.039 A 
HETATM    4  C   UNL     1      26.955  44.407  51.163  1.00  0.00     0.068 A 
HETATM    5  C   UNL     1      25.911  44.677  52.048  1.00  0.00     0.039 A 
HETATM    6  C   UNL     1      25.017  45.727  51.802  1.00  0.00     0.032 A 
ENDROOT
BRANCH   1   7
HETATM    7  N   UNL     1      24.230  47.571  50.477  1.00  0.00    -0.309 N 
HETATM    8  C   UNL     1      23.250  47.660  49.514  1.00  0.00     0.321 C 
HETATM    9  N   UNL     1      22.606  48.870  49.568  1.00  0.00    -0.332 N 
HETATM   10  O   UNL     1      22.944  46.800  48.699  1.00  0.00    -0.247 OA
HETATM   11  H   UNL     1      23.036  49.650  50.044  1.00  0.00     0.165 HD
HETATM   12  H   UNL     1      24.217  48.294  51.181  1.00  0.00     0.170 HD
BRANCH   9  13
HETATM   13  C   UNL     1      21.576  49.225  48.595  1.00  0.00     0.155 C 
HETATM   14  C   UNL     1      21.853  50.595  47.972  1.00  0.00     0.041 C 
BRANCH  13  15
HETATM   15  C   UNL     1      20.247  49.222  49.301  1.00  0.00     0.169 A 
HETATM   16  N   UNL     1      19.689  50.321  49.829  1.00  0.00    -0.156 NA
HETATM   17  N   UNL     1      18.551  49.829  50.341  1.00  0.00    -0.270 N 
HETATM   18  H   UNL     1      17.907  50.453  50.815  1.00  0.00     0.190 HD
HETATM   19  C   UNL     1      18.451  48.491  50.126  1.00  0.00     0.227 A 
HETATM   20  N   UNL     1      19.505  48.069  49.470  1.00  0.00    -0.223 NA
ENDBRANCH  13  15
ENDBRANCH   9  13
ENDBRANCH   1   7
BRANCH   4  21
HETATM   21  O   UNL     1      27.757  43.357  51.513  1.00  0.00    -0.351 OA
BRANCH  21  22
HETATM   22  C   UNL     1      28.834  43.644  52.409  1.00  0.00     0.180 C 
BRANCH  22  23
HETATM   23  C   UNL     1      28.448  43.187  53.828  1.00  0.00     0.010 C 
HETATM   24  C   UNL     1      29.602  42.426  54.499  1.00  0.00     0.007 C 
HETATM   25  C   UNL     1      30.753  43.338  54.920  1.00  0.00     0.000 C 
HETATM   26  C   UNL     1      30.268  44.487  55.800  1.00  0.00     0.000 C 
HETATM   27  C   UNL     1      29.132  45.268  55.148  1.00  0.00     0.000 C 
HETATM   28  C   UNL     1      27.986  44.352  54.721  1.00  0.00     0.007 C 
ENDBRANCH  22  23
ENDBRANCH  21  22
ENDBRANCH   4  21
TORSDOF 6
ENDMDL
MODEL 2
REMARK VINA RESULT:      -7.9      3.346      9.740
REMARK  6 active torsions:
REMARK  status: ('A' for Active; 'I' for Inactive)
REMARK    1  A    between atoms: C_2  and  N_3 
REMARK    2  A    between atoms: C_2  and  C_21 
REMARK       I    between atoms: N_3  and  C_4 
REMARK       I    between atoms: C_4  and  N_5 
REMARK    3  A    between atoms: N_5  and  C_6 
REMARK    4  A    between atoms: C_9  and  O_10 
REMARK    5  A    between atoms: O_10  and  C_11 
REMARK    6  A    between atoms: C_11  and  C_12 
ROOT
HETATM    1  C   UNL     1      25.275  47.187  49.744  1.00  0.00     0.036 A 
HETATM    2  C   UNL     1      23.908  46.995  49.540  1.00  0.00     0.032 A 
HETATM    3  C   UNL     1      23.116  48.006  48.979  1.00  0.00     0.039 A 
HETATM    4  C   UNL     1      23.681  49.227  48.618  1.00  0.00     0.068 A 
HETATM    5  C   UNL     1      25.046  49.426  48.827  1.00  0.00     0.039 A 
HETATM    6  C   UNL     1      25.839  48.417  49.387  1.00  0.00     0.032 A 
ENDROOT
BRANCH   1   7
HETATM    7  N   UNL     1      26.125  46.218  50.313  1.00  0.00    -0.309 N 
HETATM    8  C   UNL     1      25.945  45.541  51.498  1.00  0.00     0.321 C 
HETATM    9  N   UNL     1      27.027  44.750  51.791  1.00  0.00    -0.332 N 
HETATM   10  O   UNL     1      24.965  45.592  52.229  1.00  0.00    -0.247 OA
HETATM   11  H   UNL     1      27.914  44.922  51.340  1.00  0.00     0.165 HD
HETATM   12  H   UNL     1      26.905  45.913  49.751  1.00  0.00     0.170 HD
BRANCH   9  13
HETATM   13  C   UNL     1      27.099  43.993  53.038  1.00  0.00     0.155 C 
HETATM   14  C   UNL     1      28.027  44.673  54.046  1.00  0.00     0.041 C 
BRANCH  13  15
HETATM   15  C   UNL     1      27.589  42.608  52.715  1.00  0.00     0.169 A 
HETATM   16  N   UNL     1      27.980  41.727  53.647  1.00  0.00    -0.156 NA
HETATM   17  N   UNL     1      28.329  40.672  52.896  1.00  0.00    -0.270 N 
HETATM   18  H   UNL     1      28.672  39.831  53.347  1.00  0.00     0.190 HD
HETATM   19  C   UNL     1      28.155  40.929  51.573  1.00  0.00     0.227 A 
HETATM   20  N   UNL     1      27.687  42.145  51.417  1.00  0.00    -0.223 NA
ENDBRANCH  13  15
ENDBRANCH   9  13
ENDBRANCH   1   7
BRANCH   4  21
HETATM   21  O   UNL     1      23.017  50.286  48.064  1.00  0.00    -0.351 OA
BRANCH  21  22
HETATM   22  C   UNL     1      21.998  50.893  48.864  1.00  0.00     0.180 C 
BRANCH  22  23
HETATM   23  C   UNL     1      20.677  50.911  48.073  1.00  0.00     0.010 C 
HETATM   24  C   UNL     1      19.967  49.551  48.149  1.00  0.00     0.007 C 
HETATM   25  C   UNL     1      19.344  49.279  49.518  1.00  0.00     0.000 C 
HETATM   26  C   UNL     1      18.413  50.409  49.946  1.00  0.00     0.000 C 
HETATM   27  C   UNL     1      19.101  51.769  49.894  1.00  0.00     0.000 C 
HETATM   28  C   UNL     1      19.729  52.034  48.527  1.00  0.00     0.007 C 
ENDBRANCH  22  23
ENDBRANCH  21  22
ENDBRANCH   4  21
TORSDOF 6
ENDMDL
MODEL 3
REMARK VINA RESULT:      -7.8      3.310      9.780
REMARK  6 active torsions:
REMARK  status: ('A' for Active; 'I' for Inactive)
REMARK    1  A    between atoms: C_2  and  N_3 
REMARK    2  A    between atoms: C_2  and  C_21 
REMARK       I    between atoms: N_3  and  C_4 
REMARK       I    between atoms: C_4  and  N_5 
REMARK    3  A    between atoms: N_5  and  C_6 
REMARK    4  A    between atoms: C_9  and  O_10 
REMARK    5  A    between atoms: O_10  and  C_11 
REMARK    6  A    between atoms: C_11  and  C_12 
ROOT
HETATM    1  C   UNL     1      24.654  45.557  50.876  1.00  0.00     0.036 A 
HETATM    2  C   UNL     1      23.835  44.866  49.982  1.00  0.00     0.032 A 
HETATM    3  C   UNL     1      23.142  45.545  48.970  1.00  0.00     0.039 A 
HETATM    4  C   UNL     1      23.256  46.928  48.841  1.00  0.00     0.068 A 
HETATM    5  C   UNL     1      24.069  47.623  49.738  1.00  0.00     0.039 A 
HETATM    6  C   UNL     1      24.762  46.946  50.748  1.00  0.00     0.032 A 
ENDROOT
BRANCH   1   7
HETATM    7  N   UNL     1      25.369  44.938  51.920  1.00  0.00    -0.309 N 
HETATM    8  C   UNL     1      26.652  44.440  51.874  1.00  0.00     0.321 C 
HETATM    9  N   UNL     1      26.985  43.809  53.046  1.00  0.00    -0.332 N 
HETATM   10  O   UNL     1      27.439  44.529  50.942  1.00  0.00    -0.247 OA
HETATM   11  H   UNL     1      26.259  43.508  53.681  1.00  0.00     0.165 HD
HETATM   12  H   UNL     1      24.934  44.939  52.831  1.00  0.00     0.170 HD
BRANCH   9  13
HETATM   13  C   UNL     1      28.271  43.135  53.206  1.00  0.00     0.155 C 
HETATM   14  C   UNL     1      28.082  41.652  53.530  1.00  0.00     0.041 C 
BRANCH  13  15
HETATM   15  C   UNL     1      29.026  43.828  54.307  1.00  0.00     0.169 A 
HETATM   16  N   UNL     1      30.123  43.315  54.886  1.00  0.00    -0.156 NA
HETATM   17  N   UNL     1      30.422  44.262  55.788  1.00  0.00    -0.270 N 
HETATM   18  H   UNL     1      31.230  44.141  56.387  1.00  0.00     0.190 HD
HETATM   19  C   UNL     1      29.530  45.287  55.743  1.00  0.00     0.227 A 
HETATM   20  N   UNL     1      28.631  45.049  54.817  1.00  0.00    -0.223 NA
ENDBRANCH  13  15
ENDBRANCH   9  13
ENDBRANCH   1   7
BRANCH   4  21
HETATM   21  O   UNL     1      22.635  47.701  47.900  1.00  0.00    -0.351 OA
BRANCH  21  22
HETATM   22  C   UNL     1      21.491  48.442  48.334  1.00  0.00     0.180 C 
BRANCH  22  23
HETATM   23  C   UNL     1      21.676  49.924  47.961  1.00  0.00     0.010 C 
HETATM   24  C   UNL     1      20.403  50.499  47.322  1.00  0.00     0.007 C 
HETATM   25  C   UNL     1      19.275  50.715  48.330  1.00  0.00     0.000 C 
HETATM   26  C   UNL     1      19.732  51.570  49.509  1.00  0.00     0.000 C 
HETATM   27  C   UNL     1      20.987  51.010  50.171  1.00  0.00     0.000 C 
HETATM   28  C   UNL     1      22.109  50.787  49.159  1.00  0.00     0.007 C 
ENDBRANCH  22  23
ENDBRANCH  21  22
ENDBRANCH   4  21
TORSDOF 6
ENDMDL
MODEL 4
REMARK VINA RESULT:      -7.7      1.485      1.727
REMARK  6 active torsions:
REMARK  status: ('A' for Active; 'I' for Inactive)
REMARK    1  A    between atoms: C_2  and  N_3 
REMARK    2  A    between atoms: C_2  and  C_21 
REMARK       I    between atoms: N_3  and  C_4 
REMARK       I    between atoms: C_4  and  N_5 
REMARK    3  A    between atoms: N_5  and  C_6 
REMARK    4  A    between atoms: C_9  and  O_10 
REMARK    5  A    between atoms: O_10  and  C_11 
REMARK    6  A    between atoms: C_11  and  C_12 
ROOT
HETATM    1  C   UNL     1      24.122  46.359  50.013  1.00  0.00     0.036 A 
HETATM    2  C   UNL     1      24.002  45.106  49.412  1.00  0.00     0.032 A 
HETATM    3  C   UNL     1      25.037  44.165  49.500  1.00  0.00     0.039 A 
HETATM    4  C   UNL     1      26.211  44.467  50.188  1.00  0.00     0.068 A 
HETATM    5  C   UNL     1      26.337  45.722  50.784  1.00  0.00     0.039 A 
HETATM    6  C   UNL     1      25.304  46.663  50.699  1.00  0.00     0.032 A 
ENDROOT
BRANCH   1   7
HETATM    7  N   UNL     1      23.125  47.353  49.954  1.00  0.00    -0.309 N 
HETATM    8  C   UNL     1      22.980  48.335  49.000  1.00  0.00     0.321 C 
HETATM    9  N   UNL     1      21.960  49.196  49.320  1.00  0.00    -0.332 N 
HETATM   10  O   UNL     1      23.639  48.465  47.977  1.00  0.00    -0.247 OA
HETATM   11  H   UNL     1      21.619  49.242  50.269  1.00  0.00     0.165 HD
HETATM   12  H   UNL     1      22.379  47.288  50.630  1.00  0.00     0.170 HD
BRANCH   9  13
HETATM   13  C   UNL     1      21.666  50.363  48.494  1.00  0.00     0.155 C 
HETATM   14  C   UNL     1      22.783  51.404  48.589  1.00  0.00     0.041 C 
BRANCH  13  15
HETATM   15  C   UNL     1      20.358  50.945  48.959  1.00  0.00     0.169 A 
HETATM   16  N   UNL     1      19.882  52.125  48.534  1.00  0.00    -0.156 NA
HETATM   17  N   UNL     1      18.730  52.215  49.215  1.00  0.00    -0.270 N 
HETATM   18  H   UNL     1      18.138  53.028  49.087  1.00  0.00     0.190 HD
HETATM   19  C   UNL     1      18.542  51.130  50.012  1.00  0.00     0.227 A 
HETATM   20  N   UNL     1      19.551  50.303  49.878  1.00  0.00    -0.223 NA
ENDBRANCH  13  15
ENDBRANCH   9  13
ENDBRANCH   1   7
BRANCH   4  21
HETATM   21  O   UNL     1      27.287  43.638  50.344  1.00  0.00    -0.351 OA
BRANCH  21  22
HETATM   22  C   UNL     1      28.157  43.919  51.444  1.00  0.00     0.180 C 
BRANCH  22  23
HETATM   23  C   UNL     1      27.959  42.847  52.532  1.00  0.00     0.010 C 
HETATM   24  C   UNL     1      29.228  41.998  52.711  1.00  0.00     0.007 C 
HETATM   25  C   UNL     1      30.355  42.753  53.416  1.00  0.00     0.000 C 
HETATM   26  C   UNL     1      29.893  43.338  54.747  1.00  0.00     0.000 C 
HETATM   27  C   UNL     1      28.643  44.198  54.592  1.00  0.00     0.000 C 
HETATM   28  C   UNL     1      27.521  43.444  53.880  1.00  0.00     0.007 C 
ENDBRANCH  22  23
ENDBRANCH  21  22
ENDBRANCH   4  21
TORSDOF 6
ENDMDL
MODEL 5
REMARK VINA RESULT:      -7.6      1.704      1.909
REMARK  6 active torsions:
REMARK  status: ('A' for Active; 'I' for Inactive)
REMARK    1  A    between atoms: C_2  and  N_3 
REMARK    2  A    between atoms: C_2  and  C_21 
REMARK       I    between atoms: N_3  and  C_4 
REMARK       I    between atoms: C_4  and  N_5 
REMARK    3  A    between atoms: N_5  and  C_6 
REMARK    4  A    between atoms: C_9  and  O_10 
REMARK    5  A    between atoms: O_10  and  C_11 
REMARK    6  A    between atoms: C_11  and  C_12 
ROOT
HETATM    1  C   UNL     1      24.823  45.247  50.247  1.00  0.00     0.036 A 
HETATM    2  C   UNL     1      26.090  45.467  49.705  1.00  0.00     0.032 A 
HETATM    3  C   UNL     1      27.196  44.722  50.138  1.00  0.00     0.039 A 
HETATM    4  C   UNL     1      27.049  43.748  51.123  1.00  0.00     0.068 A 
HETATM    5  C   UNL     1      25.785  43.530  51.672  1.00  0.00     0.039 A 
HETATM    6  C   UNL     1      24.679  44.272  51.240  1.00  0.00     0.032 A 
ENDROOT
BRANCH   1   7
HETATM    7  N   UNL     1      23.673  45.966  49.864  1.00  0.00    -0.309 N 
HETATM    8  C   UNL     1      22.626  45.518  49.091  1.00  0.00     0.321 C 
HETATM    9  N   UNL     1      21.730  46.524  48.831  1.00  0.00    -0.332 N 
HETATM   10  O   UNL     1      22.458  44.380  48.674  1.00  0.00    -0.247 OA
HETATM   11  H   UNL     1      22.010  47.489  48.942  1.00  0.00     0.165 HD
HETATM   12  H   UNL     1      23.553  46.880  50.274  1.00  0.00     0.170 HD
BRANCH   9  13
HETATM   13  C   UNL     1      20.574  46.306  47.967  1.00  0.00     0.155 C 
HETATM   14  C   UNL     1      20.797  46.912  46.580  1.00  0.00     0.041 C 
BRANCH  13  15
HETATM   15  C   UNL     1      19.373  46.926  48.629  1.00  0.00     0.169 A 
HETATM   16  N   UNL     1      18.117  46.501  48.427  1.00  0.00    -0.156 NA
HETATM   17  N   UNL     1      17.417  47.343  49.202  1.00  0.00    -0.270 N 
HETATM   18  H   UNL     1      16.408  47.253  49.250  1.00  0.00     0.190 HD
HETATM   19  C   UNL     1      18.233  48.231  49.829  1.00  0.00     0.227 A 
HETATM   20  N   UNL     1      19.480  47.999  49.492  1.00  0.00    -0.223 NA
ENDBRANCH  13  15
ENDBRANCH   9  13
ENDBRANCH   1   7
BRANCH   4  21
HETATM   21  O   UNL     1      28.046  42.959  51.627  1.00  0.00    -0.351 OA
BRANCH  21  22
HETATM   22  C   UNL     1      28.945  43.576  52.553  1.00  0.00     0.180 C 
BRANCH  22  23
HETATM   23  C   UNL     1      28.494  43.251  53.989  1.00  0.00     0.010 C 
HETATM   24  C   UNL     1      29.668  42.734  54.835  1.00  0.00     0.007 C 
HETATM   25  C   UNL     1      30.661  43.832  55.211  1.00  0.00     0.000 C 
HETATM   26  C   UNL     1      29.968  45.008  55.895  1.00  0.00     0.000 C 
HETATM   27  C   UNL     1      28.808  45.549  55.066  1.00  0.00     0.000 C 
HETATM   28  C   UNL     1      27.821  44.447  54.685  1.00  0.00     0.007 C 
ENDBRANCH  22  23
ENDBRANCH  21  22
ENDBRANCH   4  21
TORSDOF 6
ENDMDL
MODEL 6
REMARK VINA RESULT:      -7.6      4.601     11.920
REMARK  6 active torsions:
REMARK  status: ('A' for Active; 'I' for Inactive)
REMARK    1  A    between atoms: C_2  and  N_3 
REMARK    2  A    between atoms: C_2  and  C_21 
REMARK       I    between atoms: N_3  and  C_4 
REMARK       I    between atoms: C_4  and  N_5 
REMARK    3  A    between atoms: N_5  and  C_6 
REMARK    4  A    between atoms: C_9  and  O_10 
REMARK    5  A    between atoms: O_10  and  C_11 
REMARK    6  A    between atoms: C_11  and  C_12 
ROOT
HETATM    1  C   UNL     1      20.094  50.216  49.577  1.00  0.00     0.036 A 
HETATM    2  C   UNL     1      18.979  49.382  49.487  1.00  0.00     0.032 A 
HETATM    3  C   UNL     1      17.722  49.898  49.144  1.00  0.00     0.039 A 
HETATM    4  C   UNL     1      17.562  51.259  48.890  1.00  0.00     0.068 A 
HETATM    5  C   UNL     1      18.673  52.097  48.986  1.00  0.00     0.039 A 
HETATM    6  C   UNL     1      19.930  51.583  49.327  1.00  0.00     0.032 A 
ENDROOT
BRANCH   1   7
HETATM    7  N   UNL     1      21.382  49.764  49.926  1.00  0.00    -0.309 N 
HETATM    8  C   UNL     1      22.205  48.939  49.193  1.00  0.00     0.321 C 
HETATM    9  N   UNL     1      23.343  48.620  49.891  1.00  0.00    -0.332 N 
HETATM   10  O   UNL     1      22.004  48.523  48.060  1.00  0.00    -0.247 OA
HETATM   11  H   UNL     1      23.368  48.738  50.894  1.00  0.00     0.165 HD
HETATM   12  H   UNL     1      21.791  50.158  50.760  1.00  0.00     0.170 HD
BRANCH   9  13
HETATM   13  C   UNL     1      24.333  47.696  49.346  1.00  0.00     0.155 C 
HETATM   14  C   UNL     1      24.532  46.491  50.269  1.00  0.00     0.041 C 
BRANCH  13  15
HETATM   15  C   UNL     1      25.624  48.447  49.168  1.00  0.00     0.169 A 
HETATM   16  N   UNL     1      26.789  48.052  49.704  1.00  0.00    -0.156 NA
HETATM   17  N   UNL     1      27.621  49.018  49.288  1.00  0.00    -0.270 N 
HETATM   18  H   UNL     1      28.600  48.978  49.549  1.00  0.00     0.190 HD
HETATM   19  C   UNL     1      26.967  49.947  48.542  1.00  0.00     0.227 A 
HETATM   20  N   UNL     1      25.700  49.620  48.443  1.00  0.00    -0.223 NA
ENDBRANCH  13  15
ENDBRANCH   9  13
ENDBRANCH   1   7
BRANCH   4  21
HETATM   21  O   UNL     1      16.393  51.880  48.547  1.00  0.00    -0.351 OA
BRANCH  21  22
HETATM   22  C   UNL     1      16.113  53.122  49.199  1.00  0.00     0.180 C 
BRANCH  22  23
HETATM   23  C   UNL     1      14.588  53.305  49.307  1.00  0.00     0.010 C 
HETATM   24  C   UNL     1      14.123  53.235  50.770  1.00  0.00     0.007 C 
HETATM   25  C   UNL     1      14.503  54.476  51.576  1.00  0.00     0.000 C 
HETATM   26  C   UNL     1      14.010  55.755  50.904  1.00  0.00     0.000 C 
HETATM   27  C   UNL     1      14.473  55.855  49.454  1.00  0.00     0.000 C 
HETATM   28  C   UNL     1      14.099  54.609  48.653  1.00  0.00     0.007 C 
ENDBRANCH  22  23
ENDBRANCH  21  22
ENDBRANCH   4  21
TORSDOF 6
ENDMDL
MODEL 7
REMARK VINA RESULT:      -7.5     14.043     16.906
REMARK  6 active torsions:
REMARK  status: ('A' for Active; 'I' for Inactive)
REMARK    1  A    between atoms: C_2  and  N_3 
REMARK    2  A    between atoms: C_2  and  C_21 
REMARK       I    between atoms: N_3  and  C_4 
REMARK       I    between atoms: C_4  and  N_5 
REMARK    3  A    between atoms: N_5  and  C_6 
REMARK    4  A    between atoms: C_9  and  O_10 
REMARK    5  A    between atoms: O_10  and  C_11 
REMARK    6  A    between atoms: C_11  and  C_12 
ROOT
HETATM    1  C   UNL     1      34.964  52.008  43.694  1.00  0.00     0.036 A 
HETATM    2  C   UNL     1      35.084  51.259  42.523  1.00  0.00     0.032 A 
HETATM    3  C   UNL     1      33.977  50.596  41.977  1.00  0.00     0.039 A 
HETATM    4  C   UNL     1      32.732  50.671  42.598  1.00  0.00     0.068 A 
HETATM    5  C   UNL     1      32.608  51.414  43.773  1.00  0.00     0.039 A 
HETATM    6  C   UNL     1      33.714  52.077  44.319  1.00  0.00     0.032 A 
ENDROOT
BRANCH   1   7
HETATM    7  N   UNL     1      36.038  52.689  44.300  1.00  0.00    -0.309 N 
HETATM    8  C   UNL     1      36.933  53.544  43.696  1.00  0.00     0.321 C 
HETATM    9  N   UNL     1      37.913  53.940  44.571  1.00  0.00    -0.332 N 
HETATM   10  O   UNL     1      36.900  53.940  42.539  1.00  0.00    -0.247 OA
HETATM   11  H   UNL     1      38.083  53.408  45.412  1.00  0.00     0.165 HD
HETATM   12  H   UNL     1      36.109  52.622  45.304  1.00  0.00     0.170 HD
BRANCH   9  13
HETATM   13  C   UNL     1      39.019  54.789  44.137  1.00  0.00     0.155 C 
HETATM   14  C   UNL     1      40.354  54.283  44.686  1.00  0.00     0.041 C 
BRANCH  13  15
HETATM   15  C   UNL     1      38.745  56.190  44.613  1.00  0.00     0.169 A 
HETATM   16  N   UNL     1      39.105  56.642  45.823  1.00  0.00    -0.156 NA
HETATM   17  N   UNL     1      38.650  57.904  45.789  1.00  0.00    -0.270 N 
HETATM   18  H   UNL     1      38.788  58.504  46.594  1.00  0.00     0.190 HD
HETATM   19  C   UNL     1      38.043  58.177  44.604  1.00  0.00     0.227 A 
HETATM   20  N   UNL     1      38.083  57.117  43.832  1.00  0.00    -0.223 NA
ENDBRANCH  13  15
ENDBRANCH   9  13
ENDBRANCH   1   7
BRANCH   4  21
HETATM   21  O   UNL     1      31.581  50.073  42.165  1.00  0.00    -0.351 OA
BRANCH  21  22
HETATM   22  C   UNL     1      30.542  50.941  41.703  1.00  0.00     0.180 C 
BRANCH  22  23
HETATM   23  C   UNL     1      31.087  51.818  40.560  1.00  0.00     0.010 C 
HETATM   24  C   UNL     1      30.797  51.187  39.190  1.00  0.00     0.007 C 
HETATM   25  C   UNL     1      29.325  51.281  38.791  1.00  0.00     0.000 C 
HETATM   26  C   UNL     1      28.816  52.718  38.853  1.00  0.00     0.000 C 
HETATM   27  C   UNL     1      29.079  53.361  40.210  1.00  0.00     0.000 C 
HETATM   28  C   UNL     1      30.550  53.259  40.610  1.00  0.00     0.007 C 
ENDBRANCH  22  23
ENDBRANCH  21  22
ENDBRANCH   4  21
TORSDOF 6
ENDMDL
MODEL 8
REMARK VINA RESULT:      -7.2      3.104     10.338
REMARK  6 active torsions:
REMARK  status: ('A' for Active; 'I' for Inactive)
REMARK    1  A    between atoms: C_2  and  N_3 
REMARK    2  A    between atoms: C_2  and  C_21 
REMARK       I    between atoms: N_3  and  C_4 
REMARK       I    between atoms: C_4  and  N_5 
REMARK    3  A    between atoms: N_5  and  C_6 
REMARK    4  A    between atoms: C_9  and  O_10 
REMARK    5  A    between atoms: O_10  and  C_11 
REMARK    6  A    between atoms: C_11  and  C_12 
ROOT
HETATM    1  C   UNL     1      21.513  47.350  48.461  1.00  0.00     0.036 A 
HETATM    2  C   UNL     1      21.094  46.973  47.185  1.00  0.00     0.032 A 
HETATM    3  C   UNL     1      20.084  47.682  46.521  1.00  0.00     0.039 A 
HETATM    4  C   UNL     1      19.475  48.778  47.128  1.00  0.00     0.068 A 
HETATM    5  C   UNL     1      19.885  49.155  48.407  1.00  0.00     0.039 A 
HETATM    6  C   UNL     1      20.896  48.448  49.071  1.00  0.00     0.032 A 
ENDROOT
BRANCH   1   7
HETATM    7  N   UNL     1      22.515  46.675  49.187  1.00  0.00    -0.309 N 
HETATM    8  C   UNL     1      23.779  47.130  49.486  1.00  0.00     0.321 C 
HETATM    9  N   UNL     1      24.522  46.162  50.115  1.00  0.00    -0.332 N 
HETATM   10  O   UNL     1      24.231  48.243  49.256  1.00  0.00    -0.247 OA
HETATM   11  H   UNL     1      24.244  45.193  50.053  1.00  0.00     0.165 HD
HETATM   12  H   UNL     1      22.252  45.801  49.617  1.00  0.00     0.170 HD
BRANCH   9  13
HETATM   13  C   UNL     1      25.922  46.388  50.464  1.00  0.00     0.155 C 
HETATM   14  C   UNL     1      26.813  45.266  49.928  1.00  0.00     0.041 C 
BRANCH  13  15
HETATM   15  C   UNL     1      26.021  46.474  51.963  1.00  0.00     0.169 A 
HETATM   16  N   UNL     1      25.521  47.493  52.678  1.00  0.00    -0.156 NA
HETATM   17  N   UNL     1      25.854  47.137  53.928  1.00  0.00    -0.270 N 
HETATM   18  H   UNL     1      25.594  47.738  54.702  1.00  0.00     0.190 HD
HETATM   19  C   UNL     1      26.530  45.958  53.942  1.00  0.00     0.227 A 
HETATM   20  N   UNL     1      26.655  45.506  52.716  1.00  0.00    -0.223 NA
ENDBRANCH  13  15
ENDBRANCH   9  13
ENDBRANCH   1   7
BRANCH   4  21
HETATM   21  O   UNL     1      18.483  49.548  46.586  1.00  0.00    -0.351 OA
BRANCH  21  22
HETATM   22  C   UNL     1      17.485  50.035  47.488  1.00  0.00     0.180 C 
BRANCH  22  23
HETATM   23  C   UNL     1      17.346  51.559  47.315  1.00  0.00     0.010 C 
HETATM   24  C   UNL     1      15.936  52.034  47.696  1.00  0.00     0.007 C 
HETATM   25  C   UNL     1      15.686  52.009  49.204  1.00  0.00     0.000 C 
HETATM   26  C   UNL     1      16.753  52.792  49.963  1.00  0.00     0.000 C 
HETATM   27  C   UNL     1      18.163  52.327  49.612  1.00  0.00     0.000 C 
HETATM   28  C   UNL     1      18.407  52.345  48.104  1.00  0.00     0.007 C 
ENDBRANCH  22  23
ENDBRANCH  21  22
ENDBRANCH   4  21
TORSDOF 6
ENDMDL
MODEL 9
REMARK VINA RESULT:      -7.2     13.412     16.949
REMARK  6 active torsions:
REMARK  status: ('A' for Active; 'I' for Inactive)
REMARK    1  A    between atoms: C_2  and  N_3 
REMARK    2  A    between atoms: C_2  and  C_21 
REMARK       I    between atoms: N_3  and  C_4 
REMARK       I    between atoms: C_4  and  N_5 
REMARK    3  A    between atoms: N_5  and  C_6 
REMARK    4  A    between atoms: C_9  and  O_10 
REMARK    5  A    between atoms: O_10  and  C_11 
REMARK    6  A    between atoms: C_11  and  C_12 
ROOT
HETATM    1  C   UNL     1      33.846  51.136  42.540  1.00  0.00     0.036 A 
HETATM    2  C   UNL     1      33.027  51.494  43.612  1.00  0.00     0.032 A 
HETATM    3  C   UNL     1      31.786  52.108  43.395  1.00  0.00     0.039 A 
HETATM    4  C   UNL     1      31.348  52.377  42.100  1.00  0.00     0.068 A 
HETATM    5  C   UNL     1      32.167  52.027  41.025  1.00  0.00     0.039 A 
HETATM    6  C   UNL     1      33.406  51.412  41.241  1.00  0.00     0.032 A 
ENDROOT
BRANCH   1   7
HETATM    7  N   UNL     1      35.107  50.526  42.690  1.00  0.00    -0.309 N 
HETATM    8  C   UNL     1      36.308  51.145  42.955  1.00  0.00     0.321 C 
HETATM    9  N   UNL     1      37.348  50.251  42.926  1.00  0.00    -0.332 N 
HETATM   10  O   UNL     1      36.482  52.330  43.202  1.00  0.00    -0.247 OA
HETATM   11  H   UNL     1      37.234  49.360  42.464  1.00  0.00     0.165 HD
HETATM   12  H   UNL     1      35.125  49.517  42.697  1.00  0.00     0.170 HD
BRANCH   9  13
HETATM   13  C   UNL     1      38.730  50.688  43.104  1.00  0.00     0.155 C 
HETATM   14  C   UNL     1      39.436  50.854  41.758  1.00  0.00     0.041 C 
BRANCH  13  15
HETATM   15  C   UNL     1      39.436  49.665  43.952  1.00  0.00     0.169 A 
HETATM   16  N   UNL     1      40.728  49.761  44.301  1.00  0.00    -0.156 NA
HETATM   17  N   UNL     1      40.898  48.644  45.025  1.00  0.00    -0.270 N 
HETATM   18  H   UNL     1      41.806  48.447  45.431  1.00  0.00     0.190 HD
HETATM   19  C   UNL     1      39.749  47.921  45.093  1.00  0.00     0.227 A 
HETATM   20  N   UNL     1      38.801  48.534  44.426  1.00  0.00    -0.223 NA
ENDBRANCH  13  15
ENDBRANCH   9  13
ENDBRANCH   1   7
BRANCH   4  21
HETATM   21  O   UNL     1      30.163  52.968  41.759  1.00  0.00    -0.351 OA
BRANCH  21  22
HETATM   22  C   UNL     1      30.065  53.486  40.429  1.00  0.00     0.180 C 
BRANCH  22  23
HETATM   23  C   UNL     1      28.712  53.071  39.823  1.00  0.00     0.010 C 
HETATM   24  C   UNL     1      28.796  52.977  38.291  1.00  0.00     0.007 C 
HETATM   25  C   UNL     1      29.581  51.757  37.812  1.00  0.00     0.000 C 
HETATM   26  C   UNL     1      29.033  50.465  38.412  1.00  0.00     0.000 C 
HETATM   27  C   UNL     1      28.955  50.529  39.934  1.00  0.00     0.000 C 
HETATM   28  C   UNL     1      28.177  51.754  40.410  1.00  0.00     0.007 C 
ENDBRANCH  22  23
ENDBRANCH  21  22
ENDBRANCH   4  21
TORSDOF 6
ENDMDL
MODEL 10
REMARK VINA RESULT:      -7.1     18.909     21.209
REMARK  6 active torsions:
REMARK  status: ('A' for Active; 'I' for Inactive)
REMARK    1  A    between atoms: C_2  and  N_3 
REMARK    2  A    between atoms: C_2  and  C_21 
REMARK       I    between atoms: N_3  and  C_4 
REMARK       I    between atoms: C_4  and  N_5 
REMARK    3  A    between atoms: N_5  and  C_6 
REMARK    4  A    between atoms: C_9  and  O_10 
REMARK    5  A    between atoms: O_10  and  C_11 
REMARK    6  A    between atoms: C_11  and  C_12 
ROOT
HETATM    1  C   UNL     1      38.315  49.561  65.588  1.00  0.00     0.036 A 
HETATM    2  C   UNL     1      39.526  48.869  65.530  1.00  0.00     0.032 A 
HETATM    3  C   UNL     1      39.552  47.468  65.493  1.00  0.00     0.039 A 
HETATM    4  C   UNL     1      38.365  46.739  65.519  1.00  0.00     0.068 A 
HETATM    5  C   UNL     1      37.153  47.426  65.585  1.00  0.00     0.039 A 
HETATM    6  C   UNL     1      37.125  48.826  65.620  1.00  0.00     0.032 A 
ENDROOT
BRANCH   1   7
HETATM    7  N   UNL     1      38.219  50.966  65.638  1.00  0.00    -0.309 N 
HETATM    8  C   UNL     1      38.555  51.789  66.689  1.00  0.00     0.321 C 
HETATM    9  N   UNL     1      38.228  53.095  66.424  1.00  0.00    -0.332 N 
HETATM   10  O   UNL     1      39.087  51.456  67.739  1.00  0.00    -0.247 OA
HETATM   11  H   UNL     1      37.561  53.311  65.697  1.00  0.00     0.165 HD
HETATM   12  H   UNL     1      37.965  51.434  64.781  1.00  0.00     0.170 HD
BRANCH   9  13
HETATM   13  C   UNL     1      38.421  54.143  67.422  1.00  0.00     0.155 C 
HETATM   14  C   UNL     1      37.231  55.104  67.454  1.00  0.00     0.041 C 
BRANCH  13  15
HETATM   15  C   UNL     1      39.690  54.879  67.086  1.00  0.00     0.169 A 
HETATM   16  N   UNL     1      40.449  54.592  66.018  1.00  0.00    -0.156 NA
HETATM   17  N   UNL     1      41.444  55.483  66.145  1.00  0.00    -0.270 N 
HETATM   18  H   UNL     1      42.187  55.500  65.455  1.00  0.00     0.190 HD
HETATM   19  C   UNL     1      41.277  56.257  67.249  1.00  0.00     0.227 A 
HETATM   20  N   UNL     1      40.176  55.906  67.872  1.00  0.00    -0.223 NA
ENDBRANCH  13  15
ENDBRANCH   9  13
ENDBRANCH   1   7
BRANCH   4  21
HETATM   21  O   UNL     1      38.259  45.376  65.488  1.00  0.00    -0.351 OA
BRANCH  21  22
HETATM   22  C   UNL     1      39.415  44.654  65.054  1.00  0.00     0.180 C 
BRANCH  22  23
HETATM   23  C   UNL     1      39.347  44.459  63.528  1.00  0.00     0.010 C 
HETATM   24  C   UNL     1      40.345  43.388  63.060  1.00  0.00     0.007 C 
HETATM   25  C   UNL     1      39.915  41.970  63.434  1.00  0.00     0.000 C 
HETATM   26  C   UNL     1      38.506  41.660  62.938  1.00  0.00     0.000 C 
HETATM   27  C   UNL     1      37.494  42.702  63.403  1.00  0.00     0.000 C 
HETATM   28  C   UNL     1      37.930  44.120  63.036  1.00  0.00     0.007 C 
ENDBRANCH  22  23
ENDBRANCH  21  22
ENDBRANCH   4  21
TORSDOF 6
ENDMDL
