MODEL 1
REMARK VINA RESULT:      -8.7      0.000      0.000
REMARK  7 active torsions:
REMARK  status: ('A' for Active; 'I' for Inactive)
REMARK    1  A    between atoms: C_2  and  C_3 
REMARK    2  A    between atoms: C_3  and  N_4 
REMARK       I    between atoms: N_4  and  C_5 
REMARK    3  A    between atoms: C_5  and  C_6 
REMARK    4  A    between atoms: C_9  and  N_10 
REMARK       I    between atoms: N_10  and  C_11 
REMARK    5  A    between atoms: C_11  and  C_12 
REMARK    6  A    between atoms: C_14  and  O_15 
REMARK    7  A    between atoms: O_15  and  C_16 
ROOT
HETATM    1  N   UNL     1      24.524  46.672  50.972  1.00  0.00    -0.323 N 
HETATM    2  C   UNL     1      24.659  47.680  50.034  1.00  0.00     0.256 C 
HETATM    3  O   UNL     1      25.652  48.373  49.845  1.00  0.00    -0.267 OA
HETATM    4  H   UNL     1      23.711  46.076  50.899  1.00  0.00     0.169 HD
ENDROOT
BRANCH   1   5
HETATM    5  C   UNL     1      25.401  46.371  52.035  1.00  0.00     0.035 A 
HETATM    6  C   UNL     1      26.228  45.247  52.075  1.00  0.00     0.030 A 
HETATM    7  C   UNL     1      27.128  45.057  53.133  1.00  0.00     0.019 A 
HETATM    8  C   UNL     1      27.219  46.001  54.161  1.00  0.00     0.032 A 
HETATM    9  C   UNL     1      26.364  47.109  54.142  1.00  0.00     0.019 A 
HETATM   10  C   UNL     1      25.463  47.291  53.088  1.00  0.00     0.030 A 
BRANCH   8  11
HETATM   11  C   UNL     1      28.198  45.890  55.282  1.00  0.00     0.251 C 
HETATM   12  N   UNL     1      29.175  44.921  55.165  1.00  0.00    -0.357 N 
HETATM   13  H   UNL     1      29.282  44.425  54.290  1.00  0.00     0.162 HD
HETATM   14  O   UNL     1      28.136  46.671  56.225  1.00  0.00    -0.268 OA
BRANCH  12  15
HETATM   15  C   UNL     1      30.261  44.824  56.121  1.00  0.00     0.122 C 
BRANCH  15  16
HETATM   16  C   UNL     1      31.020  43.500  56.047  1.00  0.00     0.015 C 
HETATM   17  C   UNL     1      31.957  43.292  57.227  1.00  0.00     0.006 C 
ENDBRANCH  15  16
ENDBRANCH  12  15
ENDBRANCH   8  11
ENDBRANCH   1   5
BRANCH   2  18
HETATM   18  C   UNL     1      23.459  47.926  49.182  1.00  0.00     0.037 A 
HETATM   19  C   UNL     1      22.985  49.231  49.058  1.00  0.00     0.075 A 
HETATM   20  C   UNL     1      21.827  49.431  48.333  1.00  0.00     0.165 A 
HETATM   21  N   UNL     1      21.138  48.443  47.724  1.00  0.00    -0.237 NA
HETATM   22  C   UNL     1      21.615  47.190  47.863  1.00  0.00     0.120 A 
HETATM   23  C   UNL     1      22.756  46.878  48.582  1.00  0.00     0.036 A 
BRANCH  20  24
HETATM   24  O   UNL     1      21.355  50.726  48.249  1.00  0.00    -0.329 OA
BRANCH  24  25
HETATM   25  C   UNL     1      19.966  50.913  48.596  1.00  0.00     0.130 C 
HETATM   26  C   UNL     1      19.687  51.055  50.114  1.00  0.00     0.032 C 
HETATM   27  C   UNL     1      18.601  52.084  49.754  1.00  0.00     0.005 C 
HETATM   28  C   UNL     1      19.380  52.344  48.452  1.00  0.00     0.032 C 
ENDBRANCH  24  25
ENDBRANCH  20  24
ENDBRANCH   2  18
TORSDOF 7
ENDMDL
MODEL 2
REMARK VINA RESULT:      -8.7      2.462     10.399
REMARK  7 active torsions:
REMARK  status: ('A' for Active; 'I' for Inactive)
REMARK    1  A    between atoms: C_2  and  C_3 
REMARK    2  A    between atoms: C_3  and  N_4 
REMARK       I    between atoms: N_4  and  C_5 
REMARK    3  A    between atoms: C_5  and  C_6 
REMARK    4  A    between atoms: C_9  and  N_10 
REMARK       I    between atoms: N_10  and  C_11 
REMARK    5  A    between atoms: C_11  and  C_12 
REMARK    6  A    between atoms: C_14  and  O_15 
REMARK    7  A    between atoms: O_15  and  C_16 
ROOT
HETATM    1  N   UNL     1      26.751  45.378  51.175  1.00  0.00    -0.323 N 
HETATM    2  C   UNL     1      27.215  44.161  50.708  1.00  0.00     0.256 C 
HETATM    3  O   UNL     1      27.198  43.771  49.547  1.00  0.00    -0.267 OA
HETATM    4  H   UNL     1      26.984  45.631  52.125  1.00  0.00     0.169 HD
ENDROOT
BRANCH   1   5
HETATM    5  C   UNL     1      25.980  46.326  50.469  1.00  0.00     0.035 A 
HETATM    6  C   UNL     1      24.599  46.233  50.286  1.00  0.00     0.030 A 
HETATM    7  C   UNL     1      23.892  47.255  49.636  1.00  0.00     0.019 A 
HETATM    8  C   UNL     1      24.562  48.391  49.171  1.00  0.00     0.032 A 
HETATM    9  C   UNL     1      25.952  48.468  49.319  1.00  0.00     0.019 A 
HETATM   10  C   UNL     1      26.653  47.443  49.963  1.00  0.00     0.030 A 
BRANCH   8  11
HETATM   11  C   UNL     1      23.862  49.541  48.526  1.00  0.00     0.251 C 
HETATM   12  N   UNL     1      22.758  50.048  49.184  1.00  0.00    -0.357 N 
HETATM   13  H   UNL     1      22.547  49.730  50.119  1.00  0.00     0.162 HD
HETATM   14  O   UNL     1      24.303  50.018  47.486  1.00  0.00    -0.268 OA
BRANCH  12  15
HETATM   15  C   UNL     1      22.095  51.254  48.725  1.00  0.00     0.122 C 
BRANCH  15  16
HETATM   16  C   UNL     1      20.707  50.998  48.140  1.00  0.00     0.015 C 
HETATM   17  C   UNL     1      19.669  51.997  48.628  1.00  0.00     0.006 C 
ENDBRANCH  15  16
ENDBRANCH  12  15
ENDBRANCH   8  11
ENDBRANCH   1   5
BRANCH   2  18
HETATM   18  C   UNL     1      27.786  43.254  51.746  1.00  0.00     0.037 A 
HETATM   19  C   UNL     1      28.852  43.713  52.519  1.00  0.00     0.075 A 
HETATM   20  C   UNL     1      29.423  42.835  53.418  1.00  0.00     0.165 A 
HETATM   21  N   UNL     1      29.001  41.567  53.605  1.00  0.00    -0.237 NA
HETATM   22  C   UNL     1      27.973  41.146  52.842  1.00  0.00     0.120 A 
HETATM   23  C   UNL     1      27.341  41.939  51.901  1.00  0.00     0.036 A 
BRANCH  20  24
HETATM   24  O   UNL     1      30.498  43.298  54.151  1.00  0.00    -0.329 OA
BRANCH  24  25
HETATM   25  C   UNL     1      30.239  43.570  55.545  1.00  0.00     0.130 C 
HETATM   26  C   UNL     1      31.386  43.173  56.510  1.00  0.00     0.032 C 
HETATM   27  C   UNL     1      31.043  44.429  57.332  1.00  0.00     0.005 C 
HETATM   28  C   UNL     1      30.456  45.026  56.040  1.00  0.00     0.032 C 
ENDBRANCH  24  25
ENDBRANCH  20  24
ENDBRANCH   2  18
TORSDOF 7
ENDMDL
MODEL 3
REMARK VINA RESULT:      -8.0      3.259     10.556
REMARK  7 active torsions:
REMARK  status: ('A' for Active; 'I' for Inactive)
REMARK    1  A    between atoms: C_2  and  C_3 
REMARK    2  A    between atoms: C_3  and  N_4 
REMARK       I    between atoms: N_4  and  C_5 
REMARK    3  A    between atoms: C_5  and  C_6 
REMARK    4  A    between atoms: C_9  and  N_10 
REMARK       I    between atoms: N_10  and  C_11 
REMARK    5  A    between atoms: C_11  and  C_12 
REMARK    6  A    between atoms: C_14  and  O_15 
REMARK    7  A    between atoms: O_15  and  C_16 
ROOT
HETATM    1  N   UNL     1      22.629  49.852  49.213  1.00  0.00    -0.323 N 
HETATM    2  C   UNL     1      23.624  49.882  48.251  1.00  0.00     0.256 C 
HETATM    3  O   UNL     1      23.529  50.340  47.118  1.00  0.00    -0.267 OA
HETATM    4  H   UNL     1      22.901  49.600  50.153  1.00  0.00     0.169 HD
ENDROOT
BRANCH   1   5
HETATM    5  C   UNL     1      21.260  50.138  49.034  1.00  0.00     0.035 A 
HETATM    6  C   UNL     1      20.238  49.196  49.167  1.00  0.00     0.030 A 
HETATM    7  C   UNL     1      18.893  49.576  49.047  1.00  0.00     0.019 A 
HETATM    8  C   UNL     1      18.556  50.911  48.804  1.00  0.00     0.032 A 
HETATM    9  C   UNL     1      19.580  51.849  48.633  1.00  0.00     0.019 A 
HETATM   10  C   UNL     1      20.920  51.465  48.747  1.00  0.00     0.030 A 
BRANCH   8  11
HETATM   11  C   UNL     1      17.145  51.391  48.727  1.00  0.00     0.251 C 
HETATM   12  N   UNL     1      16.586  51.878  49.893  1.00  0.00    -0.357 N 
HETATM   13  H   UNL     1      17.172  52.021  50.703  1.00  0.00     0.162 HD
HETATM   14  O   UNL     1      16.556  51.385  47.651  1.00  0.00    -0.268 OA
BRANCH  12  15
HETATM   15  C   UNL     1      15.279  52.506  49.898  1.00  0.00     0.122 C 
BRANCH  15  16
HETATM   16  C   UNL     1      15.249  53.843  50.636  1.00  0.00     0.015 C 
HETATM   17  C   UNL     1      14.855  55.003  49.736  1.00  0.00     0.006 C 
ENDBRANCH  15  16
ENDBRANCH  12  15
ENDBRANCH   8  11
ENDBRANCH   1   5
BRANCH   2  18
HETATM   18  C   UNL     1      24.930  49.291  48.663  1.00  0.00     0.037 A 
HETATM   19  C   UNL     1      24.923  48.137  49.445  1.00  0.00     0.075 A 
HETATM   20  C   UNL     1      26.137  47.649  49.886  1.00  0.00     0.165 A 
HETATM   21  N   UNL     1      27.328  48.211  49.592  1.00  0.00    -0.237 NA
HETATM   22  C   UNL     1      27.307  49.328  48.839  1.00  0.00     0.120 A 
HETATM   23  C   UNL     1      26.146  49.910  48.360  1.00  0.00     0.036 A 
BRANCH  20  24
HETATM   24  O   UNL     1      26.107  46.524  50.687  1.00  0.00    -0.329 OA
BRANCH  24  25
HETATM   25  C   UNL     1      25.517  46.697  51.993  1.00  0.00     0.130 C 
HETATM   26  C   UNL     1      25.402  45.398  52.832  1.00  0.00     0.032 C 
HETATM   27  C   UNL     1      25.728  46.247  54.074  1.00  0.00     0.005 C 
HETATM   28  C   UNL     1      26.434  47.233  53.126  1.00  0.00     0.032 C 
ENDBRANCH  24  25
ENDBRANCH  20  24
ENDBRANCH   2  18
TORSDOF 7
ENDMDL
MODEL 4
REMARK VINA RESULT:      -8.0      1.691      2.151
REMARK  7 active torsions:
REMARK  status: ('A' for Active; 'I' for Inactive)
REMARK    1  A    between atoms: C_2  and  C_3 
REMARK    2  A    between atoms: C_3  and  N_4 
REMARK       I    between atoms: N_4  and  C_5 
REMARK    3  A    between atoms: C_5  and  C_6 
REMARK    4  A    between atoms: C_9  and  N_10 
REMARK       I    between atoms: N_10  and  C_11 
REMARK    5  A    between atoms: C_11  and  C_12 
REMARK    6  A    between atoms: C_14  and  O_15 
REMARK    7  A    between atoms: O_15  and  C_16 
ROOT
HETATM    1  N   UNL     1      25.097  46.816  50.282  1.00  0.00    -0.323 N 
HETATM    2  C   UNL     1      25.639  47.931  49.668  1.00  0.00     0.256 C 
HETATM    3  O   UNL     1      26.831  48.196  49.558  1.00  0.00    -0.267 OA
HETATM    4  H   UNL     1      24.110  46.646  50.147  1.00  0.00     0.169 HD
ENDROOT
BRANCH   1   5
HETATM    5  C   UNL     1      25.770  45.872  51.085  1.00  0.00     0.035 A 
HETATM    6  C   UNL     1      26.096  44.579  50.670  1.00  0.00     0.030 A 
HETATM    7  C   UNL     1      26.832  43.723  51.501  1.00  0.00     0.019 A 
HETATM    8  C   UNL     1      27.264  44.159  52.758  1.00  0.00     0.032 A 
HETATM    9  C   UNL     1      26.906  45.440  53.191  1.00  0.00     0.019 A 
HETATM   10  C   UNL     1      26.165  46.289  52.362  1.00  0.00     0.030 A 
BRANCH   8  11
HETATM   11  C   UNL     1      28.102  43.321  53.665  1.00  0.00     0.251 C 
HETATM   12  N   UNL     1      29.215  43.923  54.219  1.00  0.00    -0.357 N 
HETATM   13  H   UNL     1      29.348  44.919  54.110  1.00  0.00     0.162 HD
HETATM   14  O   UNL     1      27.761  42.172  53.922  1.00  0.00    -0.268 OA
BRANCH  12  15
HETATM   15  C   UNL     1      30.014  43.252  55.227  1.00  0.00     0.122 C 
BRANCH  15  16
HETATM   16  C   UNL     1      31.025  44.169  55.911  1.00  0.00     0.015 C 
HETATM   17  C   UNL     1      31.731  43.499  57.080  1.00  0.00     0.006 C 
ENDBRANCH  15  16
ENDBRANCH  12  15
ENDBRANCH   8  11
ENDBRANCH   1   5
BRANCH   2  18
HETATM   18  C   UNL     1      24.651  48.888  49.091  1.00  0.00     0.037 A 
HETATM   19  C   UNL     1      23.306  48.743  49.430  1.00  0.00     0.075 A 
HETATM   20  C   UNL     1      22.393  49.584  48.826  1.00  0.00     0.165 A 
HETATM   21  N   UNL     1      22.726  50.547  47.940  1.00  0.00    -0.237 NA
HETATM   22  C   UNL     1      24.031  50.662  47.626  1.00  0.00     0.120 A 
HETATM   23  C   UNL     1      25.024  49.861  48.160  1.00  0.00     0.036 A 
BRANCH  20  24
HETATM   24  O   UNL     1      21.063  49.403  49.150  1.00  0.00    -0.329 OA
BRANCH  24  25
HETATM   25  C   UNL     1      20.433  50.496  49.852  1.00  0.00     0.130 C 
HETATM   26  C   UNL     1      19.986  51.677  48.952  1.00  0.00     0.032 C 
HETATM   27  C   UNL     1      18.755  51.823  49.864  1.00  0.00     0.005 C 
HETATM   28  C   UNL     1      18.933  50.337  50.223  1.00  0.00     0.032 C 
ENDBRANCH  24  25
ENDBRANCH  20  24
ENDBRANCH   2  18
TORSDOF 7
ENDMDL
MODEL 5
REMARK VINA RESULT:      -7.9      1.539      2.223
REMARK  7 active torsions:
REMARK  status: ('A' for Active; 'I' for Inactive)
REMARK    1  A    between atoms: C_2  and  C_3 
REMARK    2  A    between atoms: C_3  and  N_4 
REMARK       I    between atoms: N_4  and  C_5 
REMARK    3  A    between atoms: C_5  and  C_6 
REMARK    4  A    between atoms: C_9  and  N_10 
REMARK       I    between atoms: N_10  and  C_11 
REMARK    5  A    between atoms: C_11  and  C_12 
REMARK    6  A    between atoms: C_14  and  O_15 
REMARK    7  A    between atoms: O_15  and  C_16 
ROOT
HETATM    1  N   UNL     1      25.151  46.011  52.080  1.00  0.00    -0.323 N 
HETATM    2  C   UNL     1      25.438  45.803  50.742  1.00  0.00     0.256 C 
HETATM    3  O   UNL     1      26.524  45.489  50.270  1.00  0.00    -0.267 OA
HETATM    4  H   UNL     1      24.178  46.097  52.338  1.00  0.00     0.169 HD
ENDROOT
BRANCH   1   5
HETATM    5  C   UNL     1      26.071  46.117  53.144  1.00  0.00     0.035 A 
HETATM    6  C   UNL     1      26.495  47.328  53.696  1.00  0.00     0.030 A 
HETATM    7  C   UNL     1      27.356  47.348  54.803  1.00  0.00     0.019 A 
HETATM    8  C   UNL     1      27.794  46.152  55.379  1.00  0.00     0.032 A 
HETATM    9  C   UNL     1      27.401  44.938  54.803  1.00  0.00     0.019 A 
HETATM   10  C   UNL     1      26.548  44.922  53.695  1.00  0.00     0.030 A 
BRANCH   8  11
HETATM   11  C   UNL     1      28.660  46.103  56.593  1.00  0.00     0.251 C 
HETATM   12  N   UNL     1      29.958  45.663  56.417  1.00  0.00    -0.357 N 
HETATM   13  H   UNL     1      30.314  45.525  55.481  1.00  0.00     0.162 HD
HETATM   14  O   UNL     1      28.222  46.489  57.671  1.00  0.00    -0.268 OA
BRANCH  12  15
HETATM   15  C   UNL     1      30.926  45.716  57.496  1.00  0.00     0.122 C 
BRANCH  15  16
HETATM   16  C   UNL     1      31.298  44.341  58.046  1.00  0.00     0.015 C 
HETATM   17  C   UNL     1      31.714  43.364  56.958  1.00  0.00     0.006 C 
ENDBRANCH  15  16
ENDBRANCH  12  15
ENDBRANCH   8  11
ENDBRANCH   1   5
BRANCH   2  18
HETATM   18  C   UNL     1      24.290  45.984  49.807  1.00  0.00     0.037 A 
HETATM   19  C   UNL     1      24.100  47.235  49.220  1.00  0.00     0.075 A 
HETATM   20  C   UNL     1      22.988  47.410  48.420  1.00  0.00     0.165 A 
HETATM   21  N   UNL     1      22.085  46.440  48.161  1.00  0.00    -0.237 NA
HETATM   22  C   UNL     1      22.290  45.243  48.745  1.00  0.00     0.120 A 
HETATM   23  C   UNL     1      23.361  44.967  49.575  1.00  0.00     0.036 A 
BRANCH  20  24
HETATM   24  O   UNL     1      22.799  48.664  47.874  1.00  0.00    -0.329 OA
BRANCH  24  25
HETATM   25  C   UNL     1      21.830  49.501  48.541  1.00  0.00     0.130 C 
HETATM   26  C   UNL     1      22.273  50.973  48.748  1.00  0.00     0.032 C 
HETATM   27  C   UNL     1      20.814  51.383  48.477  1.00  0.00     0.005 C 
HETATM   28  C   UNL     1      20.668  50.072  47.683  1.00  0.00     0.032 C 
ENDBRANCH  24  25
ENDBRANCH  20  24
ENDBRANCH   2  18
TORSDOF 7
ENDMDL
MODEL 6
REMARK VINA RESULT:      -7.6      4.899      9.563
REMARK  7 active torsions:
REMARK  status: ('A' for Active; 'I' for Inactive)
REMARK    1  A    between atoms: C_2  and  C_3 
REMARK    2  A    between atoms: C_3  and  N_4 
REMARK       I    between atoms: N_4  and  C_5 
REMARK    3  A    between atoms: C_5  and  C_6 
REMARK    4  A    between atoms: C_9  and  N_10 
REMARK       I    between atoms: N_10  and  C_11 
REMARK    5  A    between atoms: C_11  and  C_12 
REMARK    6  A    between atoms: C_14  and  O_15 
REMARK    7  A    between atoms: O_15  and  C_16 
ROOT
HETATM    1  N   UNL     1      17.443  52.441  49.920  1.00  0.00    -0.323 N 
HETATM    2  C   UNL     1      16.208  52.332  49.304  1.00  0.00     0.256 C 
HETATM    3  O   UNL     1      15.820  51.400  48.610  1.00  0.00    -0.267 OA
HETATM    4  H   UNL     1      17.560  53.182  50.597  1.00  0.00     0.169 HD
ENDROOT
BRANCH   1   5
HETATM    5  C   UNL     1      18.575  51.627  49.713  1.00  0.00     0.035 A 
HETATM    6  C   UNL     1      18.765  50.381  50.314  1.00  0.00     0.030 A 
HETATM    7  C   UNL     1      19.885  49.596  49.999  1.00  0.00     0.019 A 
HETATM    8  C   UNL     1      20.823  50.047  49.066  1.00  0.00     0.032 A 
HETATM    9  C   UNL     1      20.654  51.312  48.491  1.00  0.00     0.019 A 
HETATM   10  C   UNL     1      19.540  52.094  48.812  1.00  0.00     0.030 A 
BRANCH   8  11
HETATM   11  C   UNL     1      22.001  49.237  48.641  1.00  0.00     0.251 C 
HETATM   12  N   UNL     1      22.485  48.314  49.548  1.00  0.00    -0.357 N 
HETATM   13  H   UNL     1      21.959  48.122  50.390  1.00  0.00     0.162 HD
HETATM   14  O   UNL     1      22.463  49.376  47.513  1.00  0.00    -0.268 OA
BRANCH  12  15
HETATM   15  C   UNL     1      23.528  47.374  49.186  1.00  0.00     0.122 C 
BRANCH  15  16
HETATM   16  C   UNL     1      24.896  47.732  49.763  1.00  0.00     0.015 C 
HETATM   17  C   UNL     1      25.197  47.001  51.062  1.00  0.00     0.006 C 
ENDBRANCH  15  16
ENDBRANCH  12  15
ENDBRANCH   8  11
ENDBRANCH   1   5
BRANCH   2  18
HETATM   18  C   UNL     1      15.280  53.478  49.526  1.00  0.00     0.037 A 
HETATM   19  C   UNL     1      15.193  54.028  50.805  1.00  0.00     0.075 A 
HETATM   20  C   UNL     1      14.270  55.034  51.013  1.00  0.00     0.165 A 
HETATM   21  N   UNL     1      13.461  55.526  50.051  1.00  0.00    -0.237 NA
HETATM   22  C   UNL     1      13.561  54.974  48.827  1.00  0.00     0.120 A 
HETATM   23  C   UNL     1      14.439  53.951  48.515  1.00  0.00     0.036 A 
BRANCH  20  24
HETATM   24  O   UNL     1      14.176  55.544  52.293  1.00  0.00    -0.329 OA
BRANCH  24  25
HETATM   25  C   UNL     1      15.051  56.652  52.595  1.00  0.00     0.130 C 
HETATM   26  C   UNL     1      14.346  57.890  53.207  1.00  0.00     0.032 C 
HETATM   27  C   UNL     1      15.595  58.088  54.084  1.00  0.00     0.005 C 
HETATM   28  C   UNL     1      15.864  56.581  53.916  1.00  0.00     0.032 C 
ENDBRANCH  24  25
ENDBRANCH  20  24
ENDBRANCH   2  18
TORSDOF 7
ENDMDL
MODEL 7
REMARK VINA RESULT:      -7.5      3.389     10.009
REMARK  7 active torsions:
REMARK  status: ('A' for Active; 'I' for Inactive)
REMARK    1  A    between atoms: C_2  and  C_3 
REMARK    2  A    between atoms: C_3  and  N_4 
REMARK       I    between atoms: N_4  and  C_5 
REMARK    3  A    between atoms: C_5  and  C_6 
REMARK    4  A    between atoms: C_9  and  N_10 
REMARK       I    between atoms: N_10  and  C_11 
REMARK    5  A    between atoms: C_11  and  C_12 
REMARK    6  A    between atoms: C_14  and  O_15 
REMARK    7  A    between atoms: O_15  and  C_16 
ROOT
HETATM    1  N   UNL     1      24.730  44.267  49.334  1.00  0.00    -0.323 N 
HETATM    2  C   UNL     1      24.422  43.314  50.289  1.00  0.00     0.256 C 
HETATM    3  O   UNL     1      23.475  43.340  51.066  1.00  0.00    -0.267 OA
HETATM    4  H   UNL     1      25.439  44.031  48.654  1.00  0.00     0.169 HD
ENDROOT
BRANCH   1   5
HETATM    5  C   UNL     1      24.161  45.550  49.193  1.00  0.00     0.035 A 
HETATM    6  C   UNL     1      23.033  45.826  48.419  1.00  0.00     0.030 A 
HETATM    7  C   UNL     1      22.483  47.116  48.389  1.00  0.00     0.019 A 
HETATM    8  C   UNL     1      23.051  48.144  49.147  1.00  0.00     0.032 A 
HETATM    9  C   UNL     1      24.205  47.878  49.894  1.00  0.00     0.019 A 
HETATM   10  C   UNL     1      24.754  46.592  49.916  1.00  0.00     0.030 A 
BRANCH   8  11
HETATM   11  C   UNL     1      22.480  49.521  49.208  1.00  0.00     0.251 C 
HETATM   12  N   UNL     1      21.343  49.692  49.975  1.00  0.00    -0.357 N 
HETATM   13  H   UNL     1      21.023  48.937  50.564  1.00  0.00     0.162 HD
HETATM   14  O   UNL     1      23.047  50.443  48.632  1.00  0.00    -0.268 OA
BRANCH  12  15
HETATM   15  C   UNL     1      20.792  51.010  50.223  1.00  0.00     0.122 C 
BRANCH  15  16
HETATM   16  C   UNL     1      19.996  51.569  49.045  1.00  0.00     0.015 C 
HETATM   17  C   UNL     1      18.652  52.145  49.462  1.00  0.00     0.006 C 
ENDBRANCH  15  16
ENDBRANCH  12  15
ENDBRANCH   8  11
ENDBRANCH   1   5
BRANCH   2  18
HETATM   18  C   UNL     1      25.354  42.151  50.355  1.00  0.00     0.037 A 
HETATM   19  C   UNL     1      26.336  42.139  51.345  1.00  0.00     0.075 A 
HETATM   20  C   UNL     1      27.241  41.096  51.343  1.00  0.00     0.165 A 
HETATM   21  N   UNL     1      27.222  40.082  50.453  1.00  0.00    -0.237 NA
HETATM   22  C   UNL     1      26.266  40.120  49.504  1.00  0.00     0.120 A 
HETATM   23  C   UNL     1      25.321  41.127  49.405  1.00  0.00     0.036 A 
BRANCH  20  24
HETATM   24  O   UNL     1      28.227  41.119  52.311  1.00  0.00    -0.329 OA
BRANCH  24  25
HETATM   25  C   UNL     1      28.660  42.429  52.736  1.00  0.00     0.130 C 
HETATM   26  C   UNL     1      28.442  42.730  54.242  1.00  0.00     0.032 C 
HETATM   27  C   UNL     1      29.774  43.501  54.214  1.00  0.00     0.005 C 
HETATM   28  C   UNL     1      30.175  42.624  53.014  1.00  0.00     0.032 C 
ENDBRANCH  24  25
ENDBRANCH  20  24
ENDBRANCH   2  18
TORSDOF 7
ENDMDL
MODEL 8
REMARK VINA RESULT:      -7.4      2.747      3.727
REMARK  7 active torsions:
REMARK  status: ('A' for Active; 'I' for Inactive)
REMARK    1  A    between atoms: C_2  and  C_3 
REMARK    2  A    between atoms: C_3  and  N_4 
REMARK       I    between atoms: N_4  and  C_5 
REMARK    3  A    between atoms: C_5  and  C_6 
REMARK    4  A    between atoms: C_9  and  N_10 
REMARK       I    between atoms: N_10  and  C_11 
REMARK    5  A    between atoms: C_11  and  C_12 
REMARK    6  A    between atoms: C_14  and  O_15 
REMARK    7  A    between atoms: O_15  and  C_16 
ROOT
HETATM    1  N   UNL     1      23.225  47.553  49.635  1.00  0.00    -0.323 N 
HETATM    2  C   UNL     1      23.313  48.902  49.339  1.00  0.00     0.256 C 
HETATM    3  O   UNL     1      24.342  49.552  49.198  1.00  0.00    -0.267 OA
HETATM    4  H   UNL     1      22.317  47.118  49.553  1.00  0.00     0.169 HD
ENDROOT
BRANCH   1   5
HETATM    5  C   UNL     1      24.271  46.699  50.042  1.00  0.00     0.035 A 
HETATM    6  C   UNL     1      25.036  46.890  51.194  1.00  0.00     0.030 A 
HETATM    7  C   UNL     1      26.010  45.954  51.571  1.00  0.00     0.019 A 
HETATM    8  C   UNL     1      26.220  44.805  50.802  1.00  0.00     0.032 A 
HETATM    9  C   UNL     1      25.480  44.631  49.626  1.00  0.00     0.019 A 
HETATM   10  C   UNL     1      24.514  45.570  49.251  1.00  0.00     0.030 A 
BRANCH   8  11
HETATM   11  C   UNL     1      27.196  43.741  51.179  1.00  0.00     0.251 C 
HETATM   12  N   UNL     1      28.187  44.092  52.075  1.00  0.00    -0.357 N 
HETATM   13  H   UNL     1      28.142  44.988  52.541  1.00  0.00     0.162 HD
HETATM   14  O   UNL     1      27.064  42.606  50.733  1.00  0.00    -0.268 OA
BRANCH  12  15
HETATM   15  C   UNL     1      29.095  43.102  52.622  1.00  0.00     0.122 C 
BRANCH  15  16
HETATM   16  C   UNL     1      29.557  43.422  54.042  1.00  0.00     0.015 C 
HETATM   17  C   UNL     1      28.724  44.509  54.703  1.00  0.00     0.006 C 
ENDBRANCH  15  16
ENDBRANCH  12  15
ENDBRANCH   8  11
ENDBRANCH   1   5
BRANCH   2  18
HETATM   18  C   UNL     1      22.008  49.609  49.182  1.00  0.00     0.037 A 
HETATM   19  C   UNL     1      20.831  48.891  49.391  1.00  0.00     0.075 A 
HETATM   20  C   UNL     1      19.632  49.536  49.163  1.00  0.00     0.165 A 
HETATM   21  N   UNL     1      19.531  50.822  48.765  1.00  0.00    -0.237 NA
HETATM   22  C   UNL     1      20.683  51.491  48.565  1.00  0.00     0.120 A 
HETATM   23  C   UNL     1      21.937  50.935  48.748  1.00  0.00     0.036 A 
BRANCH  20  24
HETATM   24  O   UNL     1      18.479  48.799  49.345  1.00  0.00    -0.329 OA
BRANCH  24  25
HETATM   25  C   UNL     1      17.560  48.783  48.231  1.00  0.00     0.130 C 
HETATM   26  C   UNL     1      16.537  47.617  48.247  1.00  0.00     0.032 C 
HETATM   27  C   UNL     1      15.503  48.601  47.671  1.00  0.00     0.005 C 
HETATM   28  C   UNL     1      16.334  49.733  48.304  1.00  0.00     0.032 C 
ENDBRANCH  24  25
ENDBRANCH  20  24
ENDBRANCH   2  18
TORSDOF 7
ENDMDL
MODEL 9
REMARK VINA RESULT:      -7.1     18.667     20.929
REMARK  7 active torsions:
REMARK  status: ('A' for Active; 'I' for Inactive)
REMARK    1  A    between atoms: C_2  and  C_3 
REMARK    2  A    between atoms: C_3  and  N_4 
REMARK       I    between atoms: N_4  and  C_5 
REMARK    3  A    between atoms: C_5  and  C_6 
REMARK    4  A    between atoms: C_9  and  N_10 
REMARK       I    between atoms: N_10  and  C_11 
REMARK    5  A    between atoms: C_11  and  C_12 
REMARK    6  A    between atoms: C_14  and  O_15 
REMARK    7  A    between atoms: O_15  and  C_16 
ROOT
HETATM    1  N   UNL     1      38.150  46.733  65.441  1.00  0.00    -0.323 N 
HETATM    2  C   UNL     1      37.252  46.200  64.533  1.00  0.00     0.256 C 
HETATM    3  O   UNL     1      36.600  46.821  63.701  1.00  0.00    -0.267 OA
HETATM    4  H   UNL     1      38.737  46.086  65.948  1.00  0.00     0.169 HD
ENDROOT
BRANCH   1   5
HETATM    5  C   UNL     1      38.348  48.096  65.746  1.00  0.00     0.035 A 
HETATM    6  C   UNL     1      39.369  48.880  65.206  1.00  0.00     0.030 A 
HETATM    7  C   UNL     1      39.455  50.248  65.502  1.00  0.00     0.019 A 
HETATM    8  C   UNL     1      38.507  50.851  66.336  1.00  0.00     0.032 A 
HETATM    9  C   UNL     1      37.506  50.058  66.909  1.00  0.00     0.019 A 
HETATM   10  C   UNL     1      37.428  48.693  66.616  1.00  0.00     0.030 A 
BRANCH   8  11
HETATM   11  C   UNL     1      38.505  52.311  66.641  1.00  0.00     0.251 C 
HETATM   12  N   UNL     1      37.434  52.796  67.366  1.00  0.00    -0.357 N 
HETATM   13  H   UNL     1      36.776  52.147  67.776  1.00  0.00     0.162 HD
HETATM   14  O   UNL     1      39.451  53.009  66.291  1.00  0.00    -0.268 OA
BRANCH  12  15
HETATM   15  C   UNL     1      37.404  54.165  67.845  1.00  0.00     0.122 C 
BRANCH  15  16
HETATM   16  C   UNL     1      36.901  55.162  66.803  1.00  0.00     0.015 C 
HETATM   17  C   UNL     1      37.002  56.605  67.272  1.00  0.00     0.006 C 
ENDBRANCH  15  16
ENDBRANCH  12  15
ENDBRANCH   8  11
ENDBRANCH   1   5
BRANCH   2  18
HETATM   18  C   UNL     1      37.080  44.719  64.598  1.00  0.00     0.037 A 
HETATM   19  C   UNL     1      37.922  43.916  63.829  1.00  0.00     0.075 A 
HETATM   20  C   UNL     1      37.698  42.554  63.837  1.00  0.00     0.165 A 
HETATM   21  N   UNL     1      36.726  41.953  64.555  1.00  0.00    -0.237 NA
HETATM   22  C   UNL     1      35.924  42.752  65.285  1.00  0.00     0.120 A 
HETATM   23  C   UNL     1      36.050  44.129  65.335  1.00  0.00     0.036 A 
BRANCH  20  24
HETATM   24  O   UNL     1      38.522  41.779  63.044  1.00  0.00    -0.329 OA
BRANCH  24  25
HETATM   25  C   UNL     1      38.875  40.485  63.579  1.00  0.00     0.130 C 
HETATM   26  C   UNL     1      39.575  39.534  62.574  1.00  0.00     0.032 C 
HETATM   27  C   UNL     1      40.440  39.036  63.746  1.00  0.00     0.005 C 
HETATM   28  C   UNL     1      40.175  40.393  64.424  1.00  0.00     0.032 C 
ENDBRANCH  24  25
ENDBRANCH  20  24
ENDBRANCH   2  18
TORSDOF 7
ENDMDL
MODEL 10
REMARK VINA RESULT:      -7.1      3.688     11.119
REMARK  7 active torsions:
REMARK  status: ('A' for Active; 'I' for Inactive)
REMARK    1  A    between atoms: C_2  and  C_3 
REMARK    2  A    between atoms: C_3  and  N_4 
REMARK       I    between atoms: N_4  and  C_5 
REMARK    3  A    between atoms: C_5  and  C_6 
REMARK    4  A    between atoms: C_9  and  N_10 
REMARK       I    between atoms: N_10  and  C_11 
REMARK    5  A    between atoms: C_11  and  C_12 
REMARK    6  A    between atoms: C_14  and  O_15 
REMARK    7  A    between atoms: O_15  and  C_16 
ROOT
HETATM    1  N   UNL     1      22.166  49.932  49.547  1.00  0.00    -0.323 N 
HETATM    2  C   UNL     1      22.956  49.292  48.609  1.00  0.00     0.256 C 
HETATM    3  O   UNL     1      22.725  49.187  47.410  1.00  0.00    -0.267 OA
HETATM    4  H   UNL     1      22.565  50.085  50.463  1.00  0.00     0.169 HD
ENDROOT
BRANCH   1   5
HETATM    5  C   UNL     1      20.849  50.406  49.374  1.00  0.00     0.035 A 
HETATM    6  C   UNL     1      20.526  51.622  48.769  1.00  0.00     0.030 A 
HETATM    7  C   UNL     1      19.188  51.989  48.566  1.00  0.00     0.019 A 
HETATM    8  C   UNL     1      18.154  51.133  48.958  1.00  0.00     0.032 A 
HETATM    9  C   UNL     1      18.475  49.931  49.599  1.00  0.00     0.019 A 
HETATM   10  C   UNL     1      19.811  49.572  49.805  1.00  0.00     0.030 A 
BRANCH   8  11
HETATM   11  C   UNL     1      16.713  51.435  48.716  1.00  0.00     0.251 C 
HETATM   12  N   UNL     1      16.383  52.755  48.478  1.00  0.00    -0.357 N 
HETATM   13  H   UNL     1      17.118  53.434  48.340  1.00  0.00     0.162 HD
HETATM   14  O   UNL     1      15.894  50.522  48.689  1.00  0.00    -0.268 OA
BRANCH  12  15
HETATM   15  C   UNL     1      15.040  53.139  48.086  1.00  0.00     0.122 C 
BRANCH  15  16
HETATM   16  C   UNL     1      14.832  53.160  46.573  1.00  0.00     0.015 C 
HETATM   17  C   UNL     1      13.967  54.323  46.114  1.00  0.00     0.006 C 
ENDBRANCH  15  16
ENDBRANCH  12  15
ENDBRANCH   8  11
ENDBRANCH   1   5
BRANCH   2  18
HETATM   18  C   UNL     1      24.208  48.678  49.139  1.00  0.00     0.037 A 
HETATM   19  C   UNL     1      24.102  47.600  50.017  1.00  0.00     0.075 A 
HETATM   20  C   UNL     1      25.266  47.094  50.561  1.00  0.00     0.165 A 
HETATM   21  N   UNL     1      26.498  47.571  50.284  1.00  0.00    -0.237 NA
HETATM   22  C   UNL     1      26.572  48.616  49.437  1.00  0.00     0.120 A 
HETATM   23  C   UNL     1      25.468  49.208  48.849  1.00  0.00     0.036 A 
BRANCH  20  24
HETATM   24  O   UNL     1      25.138  46.048  51.454  1.00  0.00    -0.329 OA
BRANCH  24  25
HETATM   25  C   UNL     1      25.878  44.851  51.129  1.00  0.00     0.130 C 
HETATM   26  C   UNL     1      25.213  43.529  51.593  1.00  0.00     0.032 C 
HETATM   27  C   UNL     1      25.735  42.886  50.296  1.00  0.00     0.005 C 
HETATM   28  C   UNL     1      25.745  44.299  49.684  1.00  0.00     0.032 C 
ENDBRANCH  24  25
ENDBRANCH  20  24
ENDBRANCH   2  18
TORSDOF 7
ENDMDL
