MODEL 1
REMARK VINA RESULT:      -9.1      0.000      0.000
REMARK  9 active torsions:
REMARK  status: ('A' for Active; 'I' for Inactive)
REMARK       I    between atoms: C_2  and  N_3 
REMARK    1  A    between atoms: N_3  and  C_4 
REMARK    2  A    between atoms: C_6  and  O_7 
REMARK    3  A    between atoms: O_7  and  C_8 
REMARK    4  A    between atoms: C_8  and  C_9 
REMARK    5  A    between atoms: C_9  and  C_10 
REMARK    6  A    between atoms: C_10  and  C_11 
REMARK    7  A    between atoms: C_11  and  N_12 
REMARK       I    between atoms: N_12  and  C_13 
REMARK    8  A    between atoms: C_13  and  C_14 
REMARK    9  A    between atoms: C_18  and  C_19 
ROOT
HETATM    1  N   UNL     1      25.388  45.419  50.961  1.00  0.00    -0.345 N 
HETATM    2  C   UNL     1      25.473  44.354  51.821  1.00  0.00     0.270 C 
HETATM    3  O   UNL     1      24.552  43.562  51.985  1.00  0.00    -0.266 OA
HETATM    4  H   UNL     1      26.204  45.981  50.770  1.00  0.00     0.163 HD
ENDROOT
BRANCH   1   5
HETATM    5  C   UNL     1      24.220  45.622  50.148  1.00  0.00     0.217 C 
BRANCH   5   6
HETATM    6  C   UNL     1      24.253  47.032  49.582  1.00  0.00    -0.085 C 
BRANCH   6   7
HETATM    7  C   UNL     1      24.282  48.242  49.097  1.00  0.00    -0.078 C 
BRANCH   7   8
HETATM    8  C   UNL     1      24.316  49.653  48.532  1.00  0.00     0.269 C 
BRANCH   8   9
HETATM    9  O   UNL     1      23.402  49.766  47.446  1.00  0.00    -0.339 OA
BRANCH   9  10
HETATM   10  C   UNL     1      22.094  50.006  47.788  1.00  0.00     0.072 A 
HETATM   11  C   UNL     1      21.047  49.077  47.729  1.00  0.00     0.066 A 
HETATM   12  C   UNL     1      19.753  49.427  48.127  1.00  0.00     0.037 A 
HETATM   13  C   UNL     1      19.510  50.732  48.571  1.00  0.00     0.029 A 
HETATM   14  C   UNL     1      20.546  51.666  48.624  1.00  0.00     0.005 A 
HETATM   15  C   UNL     1      21.834  51.301  48.236  1.00  0.00     0.037 A 
BRANCH  12  16
HETATM   16  N   UNL     1      18.659  48.534  48.115  1.00  0.00    -0.327 N 
HETATM   17  C   UNL     1      18.032  47.952  49.203  1.00  0.00     0.218 C 
HETATM   18  C   UNL     1      16.881  47.064  48.799  1.00  0.00     0.117 C 
HETATM   19  O   UNL     1      18.302  48.121  50.387  1.00  0.00    -0.274 OA
HETATM   20  H   UNL     1      18.278  48.317  47.202  1.00  0.00     0.169 HD
ENDBRANCH  12  16
ENDBRANCH   9  10
ENDBRANCH   8   9
ENDBRANCH   7   8
ENDBRANCH   6   7
ENDBRANCH   5   6
ENDBRANCH   1   5
BRANCH   2  21
HETATM   21  C   UNL     1      26.728  44.224  52.512  1.00  0.00     0.120 A 
HETATM   22  N   UNL     1      27.851  43.777  51.876  1.00  0.00    -0.272 N 
HETATM   23  H   UNL     1      27.928  43.499  50.902  1.00  0.00     0.189 HD
HETATM   24  N   UNL     1      28.939  43.714  52.658  1.00  0.00    -0.174 NA
HETATM   25  C   UNL     1      28.521  44.138  53.861  1.00  0.00     0.089 A 
HETATM   26  C   UNL     1      27.134  44.460  53.809  1.00  0.00     0.071 A 
BRANCH  25  27
HETATM   27  C   UNL     1      29.433  44.223  55.007  1.00  0.00    -0.005 A 
HETATM   28  C   UNL     1      30.353  43.196  55.282  1.00  0.00     0.017 A 
HETATM   29  C   UNL     1      31.216  43.289  56.379  1.00  0.00     0.043 A 
HETATM   30  C   UNL     1      31.163  44.405  57.203  1.00  0.00     0.116 A 
HETATM   31  F   UNL     1      31.991  44.490  58.253  1.00  0.00    -0.206 F 
HETATM   32  C   UNL     1      30.263  45.433  56.955  1.00  0.00     0.043 A 
HETATM   33  C   UNL     1      29.401  45.341  55.861  1.00  0.00     0.017 A 
ENDBRANCH  25  27
ENDBRANCH   2  21
TORSDOF 9
ENDMDL
MODEL 2
REMARK VINA RESULT:      -9.0      1.345      1.368
REMARK  9 active torsions:
REMARK  status: ('A' for Active; 'I' for Inactive)
REMARK       I    between atoms: C_2  and  N_3 
REMARK    1  A    between atoms: N_3  and  C_4 
REMARK    2  A    between atoms: C_6  and  O_7 
REMARK    3  A    between atoms: O_7  and  C_8 
REMARK    4  A    between atoms: C_8  and  C_9 
REMARK    5  A    between atoms: C_9  and  C_10 
REMARK    6  A    between atoms: C_10  and  C_11 
REMARK    7  A    between atoms: C_11  and  N_12 
REMARK       I    between atoms: N_12  and  C_13 
REMARK    8  A    between atoms: C_13  and  C_14 
REMARK    9  A    between atoms: C_18  and  C_19 
ROOT
HETATM    1  N   UNL     1      25.072  46.326  51.153  1.00  0.00    -0.345 N 
HETATM    2  C   UNL     1      25.059  45.340  52.107  1.00  0.00     0.270 C 
HETATM    3  O   UNL     1      24.226  44.440  52.117  1.00  0.00    -0.266 OA
HETATM    4  H   UNL     1      25.836  46.981  51.115  1.00  0.00     0.163 HD
ENDROOT
BRANCH   1   5
HETATM    5  C   UNL     1      24.135  46.311  50.062  1.00  0.00     0.217 C 
BRANCH   5   6
HETATM    6  C   UNL     1      24.140  47.676  49.392  1.00  0.00    -0.085 C 
BRANCH   6   7
HETATM    7  C   UNL     1      24.143  48.846  48.818  1.00  0.00    -0.078 C 
BRANCH   7   8
HETATM    8  C   UNL     1      24.148  50.211  48.149  1.00  0.00     0.269 C 
BRANCH   8   9
HETATM    9  O   UNL     1      23.084  50.296  47.206  1.00  0.00    -0.339 OA
BRANCH   9  10
HETATM   10  C   UNL     1      21.816  50.250  47.729  1.00  0.00     0.072 A 
HETATM   11  C   UNL     1      20.878  49.230  47.520  1.00  0.00     0.066 A 
HETATM   12  C   UNL     1      19.618  49.277  48.126  1.00  0.00     0.037 A 
HETATM   13  C   UNL     1      19.297  50.373  48.935  1.00  0.00     0.029 A 
HETATM   14  C   UNL     1      20.221  51.397  49.142  1.00  0.00     0.005 A 
HETATM   15  C   UNL     1      21.478  51.332  48.542  1.00  0.00     0.037 A 
BRANCH  12  16
HETATM   16  N   UNL     1      18.637  48.272  47.976  1.00  0.00    -0.327 N 
HETATM   17  C   UNL     1      18.710  46.953  48.389  1.00  0.00     0.218 C 
HETATM   18  C   UNL     1      17.454  46.179  48.074  1.00  0.00     0.117 C 
HETATM   19  O   UNL     1      19.640  46.416  48.981  1.00  0.00    -0.274 OA
HETATM   20  H   UNL     1      17.772  48.563  47.538  1.00  0.00     0.169 HD
ENDBRANCH  12  16
ENDBRANCH   9  10
ENDBRANCH   8   9
ENDBRANCH   7   8
ENDBRANCH   6   7
ENDBRANCH   5   6
ENDBRANCH   1   5
BRANCH   2  21
HETATM   21  C   UNL     1      26.101  45.430  53.094  1.00  0.00     0.120 A 
HETATM   22  N   UNL     1      26.178  46.485  53.959  1.00  0.00    -0.272 N 
HETATM   23  H   UNL     1      25.549  47.281  54.003  1.00  0.00     0.189 HD
HETATM   24  N   UNL     1      27.205  46.420  54.818  1.00  0.00    -0.174 NA
HETATM   25  C   UNL     1      27.835  45.274  54.512  1.00  0.00     0.089 A 
HETATM   26  C   UNL     1      27.175  44.629  53.427  1.00  0.00     0.071 A 
BRANCH  25  27
HETATM   27  C   UNL     1      29.028  44.832  55.244  1.00  0.00    -0.005 A 
HETATM   28  C   UNL     1      29.714  43.661  54.879  1.00  0.00     0.017 A 
HETATM   29  C   UNL     1      30.848  43.250  55.586  1.00  0.00     0.043 A 
HETATM   30  C   UNL     1      31.302  44.008  56.659  1.00  0.00     0.116 A 
HETATM   31  F   UNL     1      32.389  43.611  57.334  1.00  0.00    -0.206 F 
HETATM   32  C   UNL     1      30.642  45.168  57.041  1.00  0.00     0.043 A 
HETATM   33  C   UNL     1      29.509  45.578  56.336  1.00  0.00     0.017 A 
ENDBRANCH  25  27
ENDBRANCH   2  21
TORSDOF 9
ENDMDL
MODEL 3
REMARK VINA RESULT:      -9.0      2.350      2.818
REMARK  9 active torsions:
REMARK  status: ('A' for Active; 'I' for Inactive)
REMARK       I    between atoms: C_2  and  N_3 
REMARK    1  A    between atoms: N_3  and  C_4 
REMARK    2  A    between atoms: C_6  and  O_7 
REMARK    3  A    between atoms: O_7  and  C_8 
REMARK    4  A    between atoms: C_8  and  C_9 
REMARK    5  A    between atoms: C_9  and  C_10 
REMARK    6  A    between atoms: C_10  and  C_11 
REMARK    7  A    between atoms: C_11  and  N_12 
REMARK       I    between atoms: N_12  and  C_13 
REMARK    8  A    between atoms: C_13  and  C_14 
REMARK    9  A    between atoms: C_18  and  C_19 
ROOT
HETATM    1  N   UNL     1      24.933  46.492  50.789  1.00  0.00    -0.345 N 
HETATM    2  C   UNL     1      24.895  45.446  51.677  1.00  0.00     0.270 C 
HETATM    3  O   UNL     1      24.076  44.537  51.592  1.00  0.00    -0.266 OA
HETATM    4  H   UNL     1      25.689  47.158  50.826  1.00  0.00     0.163 HD
ENDROOT
BRANCH   1   5
HETATM    5  C   UNL     1      24.043  46.536  49.661  1.00  0.00     0.217 C 
BRANCH   5   6
HETATM    6  C   UNL     1      23.535  47.959  49.491  1.00  0.00    -0.085 C 
BRANCH   6   7
HETATM    7  C   UNL     1      23.101  49.180  49.346  1.00  0.00    -0.078 C 
BRANCH   7   8
HETATM    8  C   UNL     1      22.594  50.603  49.176  1.00  0.00     0.269 C 
BRANCH   8   9
HETATM    9  O   UNL     1      21.367  50.771  49.880  1.00  0.00    -0.339 OA
BRANCH   9  10
HETATM   10  C   UNL     1      20.286  51.140  49.117  1.00  0.00     0.072 A 
HETATM   11  C   UNL     1      19.236  51.970  49.531  1.00  0.00     0.066 A 
HETATM   12  C   UNL     1      18.195  52.300  48.658  1.00  0.00     0.037 A 
HETATM   13  C   UNL     1      18.205  51.772  47.362  1.00  0.00     0.029 A 
HETATM   14  C   UNL     1      19.242  50.937  46.945  1.00  0.00     0.005 A 
HETATM   15  C   UNL     1      20.281  50.626  47.821  1.00  0.00     0.037 A 
BRANCH  12  16
HETATM   16  N   UNL     1      17.120  53.149  49.003  1.00  0.00    -0.327 N 
HETATM   17  C   UNL     1      15.829  52.781  49.341  1.00  0.00     0.218 C 
HETATM   18  C   UNL     1      14.958  53.968  49.671  1.00  0.00     0.117 C 
HETATM   19  O   UNL     1      15.383  51.641  49.419  1.00  0.00    -0.274 OA
HETATM   20  H   UNL     1      17.331  54.138  49.030  1.00  0.00     0.169 HD
ENDBRANCH  12  16
ENDBRANCH   9  10
ENDBRANCH   8   9
ENDBRANCH   7   8
ENDBRANCH   6   7
ENDBRANCH   5   6
ENDBRANCH   1   5
BRANCH   2  21
HETATM   21  C   UNL     1      25.893  45.485  52.711  1.00  0.00     0.120 A 
HETATM   22  N   UNL     1      25.834  46.396  53.727  1.00  0.00    -0.272 N 
HETATM   23  H   UNL     1      25.125  47.111  53.863  1.00  0.00     0.189 HD
HETATM   24  N   UNL     1      26.838  46.300  54.612  1.00  0.00    -0.174 NA
HETATM   25  C   UNL     1      27.592  45.283  54.166  1.00  0.00     0.089 A 
HETATM   26  C   UNL     1      27.033  44.751  52.968  1.00  0.00     0.071 A 
BRANCH  25  27
HETATM   27  C   UNL     1      28.802  44.853  54.875  1.00  0.00    -0.005 A 
HETATM   28  C   UNL     1      29.429  43.632  54.571  1.00  0.00     0.017 A 
HETATM   29  C   UNL     1      30.581  43.233  55.256  1.00  0.00     0.043 A 
HETATM   30  C   UNL     1      31.110  44.051  56.246  1.00  0.00     0.116 A 
HETATM   31  F   UNL     1      32.214  43.666  56.901  1.00  0.00    -0.206 F 
HETATM   32  C   UNL     1      30.510  45.261  56.568  1.00  0.00     0.043 A 
HETATM   33  C   UNL     1      29.359  45.659  55.885  1.00  0.00     0.017 A 
ENDBRANCH  25  27
ENDBRANCH   2  21
TORSDOF 9
ENDMDL
MODEL 4
REMARK VINA RESULT:      -8.9      1.639      2.184
REMARK  9 active torsions:
REMARK  status: ('A' for Active; 'I' for Inactive)
REMARK       I    between atoms: C_2  and  N_3 
REMARK    1  A    between atoms: N_3  and  C_4 
REMARK    2  A    between atoms: C_6  and  O_7 
REMARK    3  A    between atoms: O_7  and  C_8 
REMARK    4  A    between atoms: C_8  and  C_9 
REMARK    5  A    between atoms: C_9  and  C_10 
REMARK    6  A    between atoms: C_10  and  C_11 
REMARK    7  A    between atoms: C_11  and  N_12 
REMARK       I    between atoms: N_12  and  C_13 
REMARK    8  A    between atoms: C_13  and  C_14 
REMARK    9  A    between atoms: C_18  and  C_19 
ROOT
HETATM    1  N   UNL     1      25.759  43.255  51.816  1.00  0.00    -0.345 N 
HETATM    2  C   UNL     1      27.017  42.923  51.381  1.00  0.00     0.270 C 
HETATM    3  O   UNL     1      27.245  42.566  50.230  1.00  0.00    -0.266 OA
HETATM    4  H   UNL     1      25.630  43.649  52.735  1.00  0.00     0.163 HD
ENDROOT
BRANCH   1   5
HETATM    5  C   UNL     1      24.642  43.266  50.910  1.00  0.00     0.217 C 
BRANCH   5   6
HETATM    6  C   UNL     1      24.385  44.697  50.465  1.00  0.00    -0.085 C 
BRANCH   6   7
HETATM    7  C   UNL     1      24.165  45.925  50.085  1.00  0.00    -0.078 C 
BRANCH   7   8
HETATM    8  C   UNL     1      23.908  47.356  49.641  1.00  0.00     0.269 C 
BRANCH   8   9
HETATM    9  O   UNL     1      22.732  47.415  48.840  1.00  0.00    -0.339 OA
BRANCH   9  10
HETATM   10  C   UNL     1      22.161  48.656  48.707  1.00  0.00     0.072 A 
HETATM   11  C   UNL     1      20.790  48.920  48.596  1.00  0.00     0.066 A 
HETATM   12  C   UNL     1      20.317  50.233  48.488  1.00  0.00     0.037 A 
HETATM   13  C   UNL     1      21.240  51.285  48.474  1.00  0.00     0.029 A 
HETATM   14  C   UNL     1      22.608  51.030  48.574  1.00  0.00     0.005 A 
HETATM   15  C   UNL     1      23.065  49.718  48.694  1.00  0.00     0.037 A 
BRANCH  12  16
HETATM   16  N   UNL     1      18.949  50.569  48.397  1.00  0.00    -0.327 N 
HETATM   17  C   UNL     1      18.014  50.587  49.418  1.00  0.00     0.218 C 
HETATM   18  C   UNL     1      16.649  51.021  48.943  1.00  0.00     0.117 C 
HETATM   19  O   UNL     1      18.209  50.329  50.601  1.00  0.00    -0.274 OA
HETATM   20  H   UNL     1      18.626  50.854  47.481  1.00  0.00     0.169 HD
ENDBRANCH  12  16
ENDBRANCH   9  10
ENDBRANCH   8   9
ENDBRANCH   7   8
ENDBRANCH   6   7
ENDBRANCH   5   6
ENDBRANCH   1   5
BRANCH   2  21
HETATM   21  C   UNL     1      28.055  43.032  52.370  1.00  0.00     0.120 A 
HETATM   22  N   UNL     1      29.269  42.428  52.201  1.00  0.00    -0.272 N 
HETATM   23  H   UNL     1      29.563  41.865  51.409  1.00  0.00     0.189 HD
HETATM   24  N   UNL     1      30.128  42.626  53.212  1.00  0.00    -0.174 NA
HETATM   25  C   UNL     1      29.458  43.395  54.085  1.00  0.00     0.089 A 
HETATM   26  C   UNL     1      28.148  43.662  53.594  1.00  0.00     0.071 A 
BRANCH  25  27
HETATM   27  C   UNL     1      30.068  43.843  55.342  1.00  0.00    -0.005 A 
HETATM   28  C   UNL     1      29.760  45.099  55.894  1.00  0.00     0.017 A 
HETATM   29  C   UNL     1      30.351  45.514  57.092  1.00  0.00     0.043 A 
HETATM   30  C   UNL     1      31.249  44.678  57.742  1.00  0.00     0.116 A 
HETATM   31  F   UNL     1      31.812  45.080  58.890  1.00  0.00    -0.206 F 
HETATM   32  C   UNL     1      31.571  43.433  57.219  1.00  0.00     0.043 A 
HETATM   33  C   UNL     1      30.983  43.018  56.022  1.00  0.00     0.017 A 
ENDBRANCH  25  27
ENDBRANCH   2  21
TORSDOF 9
ENDMDL
MODEL 5
REMARK VINA RESULT:      -8.9      4.694     12.509
REMARK  9 active torsions:
REMARK  status: ('A' for Active; 'I' for Inactive)
REMARK       I    between atoms: C_2  and  N_3 
REMARK    1  A    between atoms: N_3  and  C_4 
REMARK    2  A    between atoms: C_6  and  O_7 
REMARK    3  A    between atoms: O_7  and  C_8 
REMARK    4  A    between atoms: C_8  and  C_9 
REMARK    5  A    between atoms: C_9  and  C_10 
REMARK    6  A    between atoms: C_10  and  C_11 
REMARK    7  A    between atoms: C_11  and  N_12 
REMARK       I    between atoms: N_12  and  C_13 
REMARK    8  A    between atoms: C_13  and  C_14 
REMARK    9  A    between atoms: C_18  and  C_19 
ROOT
HETATM    1  N   UNL     1      23.151  47.785  49.654  1.00  0.00    -0.345 N 
HETATM    2  C   UNL     1      22.776  49.049  49.275  1.00  0.00     0.270 C 
HETATM    3  O   UNL     1      23.581  49.888  48.885  1.00  0.00    -0.266 OA
HETATM    4  H   UNL     1      22.449  47.092  49.862  1.00  0.00     0.163 HD
ENDROOT
BRANCH   1   5
HETATM    5  C   UNL     1      24.519  47.356  49.546  1.00  0.00     0.217 C 
BRANCH   5   6
HETATM    6  C   UNL     1      25.062  47.089  50.941  1.00  0.00    -0.085 C 
BRANCH   6   7
HETATM    7  C   UNL     1      25.528  46.861  52.137  1.00  0.00    -0.078 C 
BRANCH   7   8
HETATM    8  C   UNL     1      26.071  46.596  53.532  1.00  0.00     0.269 C 
BRANCH   8   9
HETATM    9  O   UNL     1      26.057  45.197  53.802  1.00  0.00    -0.339 OA
BRANCH   9  10
HETATM   10  C   UNL     1      27.257  44.547  53.647  1.00  0.00     0.072 A 
HETATM   11  C   UNL     1      28.182  44.278  54.664  1.00  0.00     0.066 A 
HETATM   12  C   UNL     1      29.365  43.584  54.393  1.00  0.00     0.037 A 
HETATM   13  C   UNL     1      29.626  43.176  53.080  1.00  0.00     0.029 A 
HETATM   14  C   UNL     1      28.714  43.449  52.059  1.00  0.00     0.005 A 
HETATM   15  C   UNL     1      27.532  44.130  52.345  1.00  0.00     0.037 A 
BRANCH  12  16
HETATM   16  N   UNL     1      30.327  43.259  55.375  1.00  0.00    -0.327 N 
HETATM   17  C   UNL     1      30.932  44.115  56.279  1.00  0.00     0.218 C 
HETATM   18  C   UNL     1      31.897  43.401  57.193  1.00  0.00     0.117 C 
HETATM   19  O   UNL     1      30.729  45.318  56.406  1.00  0.00    -0.274 OA
HETATM   20  H   UNL     1      30.580  42.281  55.437  1.00  0.00     0.169 HD
ENDBRANCH  12  16
ENDBRANCH   9  10
ENDBRANCH   8   9
ENDBRANCH   7   8
ENDBRANCH   6   7
ENDBRANCH   5   6
ENDBRANCH   1   5
BRANCH   2  21
HETATM   21  C   UNL     1      21.366  49.320  49.357  1.00  0.00     0.120 A 
HETATM   22  N   UNL     1      20.475  48.359  49.745  1.00  0.00    -0.272 N 
HETATM   23  H   UNL     1      20.689  47.400  50.003  1.00  0.00     0.189 HD
HETATM   24  N   UNL     1      19.199  48.771  49.772  1.00  0.00    -0.174 NA
HETATM   25  C   UNL     1      19.245  50.057  49.389  1.00  0.00     0.089 A 
HETATM   26  C   UNL     1      20.590  50.434  49.112  1.00  0.00     0.071 A 
BRANCH  25  27
HETATM   27  C   UNL     1      18.032  50.876  49.296  1.00  0.00    -0.005 A 
HETATM   28  C   UNL     1      17.979  52.166  49.853  1.00  0.00     0.017 A 
HETATM   29  C   UNL     1      16.815  52.935  49.759  1.00  0.00     0.043 A 
HETATM   30  C   UNL     1      15.701  52.421  49.107  1.00  0.00     0.116 A 
HETATM   31  F   UNL     1      14.588  53.161  49.019  1.00  0.00    -0.206 F 
HETATM   32  C   UNL     1      15.726  51.150  48.550  1.00  0.00     0.043 A 
HETATM   33  C   UNL     1      16.887  50.380  48.645  1.00  0.00     0.017 A 
ENDBRANCH  25  27
ENDBRANCH   2  21
TORSDOF 9
ENDMDL
MODEL 6
REMARK VINA RESULT:      -8.5      4.484     11.915
REMARK  9 active torsions:
REMARK  status: ('A' for Active; 'I' for Inactive)
REMARK       I    between atoms: C_2  and  N_3 
REMARK    1  A    between atoms: N_3  and  C_4 
REMARK    2  A    between atoms: C_6  and  O_7 
REMARK    3  A    between atoms: O_7  and  C_8 
REMARK    4  A    between atoms: C_8  and  C_9 
REMARK    5  A    between atoms: C_9  and  C_10 
REMARK    6  A    between atoms: C_10  and  C_11 
REMARK    7  A    between atoms: C_11  and  N_12 
REMARK       I    between atoms: N_12  and  C_13 
REMARK    8  A    between atoms: C_13  and  C_14 
REMARK    9  A    between atoms: C_18  and  C_19 
ROOT
HETATM    1  N   UNL     1      24.620  48.837  49.318  1.00  0.00    -0.345 N 
HETATM    2  C   UNL     1      23.863  49.553  48.426  1.00  0.00     0.270 C 
HETATM    3  O   UNL     1      24.345  50.098  47.438  1.00  0.00    -0.266 OA
HETATM    4  H   UNL     1      24.172  48.313  50.053  1.00  0.00     0.163 HD
ENDROOT
BRANCH   1   5
HETATM    5  C   UNL     1      26.026  48.630  49.096  1.00  0.00     0.217 C 
BRANCH   5   6
HETATM    6  C   UNL     1      26.403  47.244  49.592  1.00  0.00    -0.085 C 
BRANCH   6   7
HETATM    7  C   UNL     1      26.725  46.054  50.018  1.00  0.00    -0.078 C 
BRANCH   7   8
HETATM    8  C   UNL     1      27.101  44.667  50.514  1.00  0.00     0.269 C 
BRANCH   8   9
HETATM    9  O   UNL     1      26.421  44.384  51.733  1.00  0.00    -0.339 OA
BRANCH   9  10
HETATM   10  C   UNL     1      27.073  44.758  52.882  1.00  0.00     0.072 A 
HETATM   11  C   UNL     1      28.137  44.072  53.482  1.00  0.00     0.066 A 
HETATM   12  C   UNL     1      28.743  44.561  54.644  1.00  0.00     0.037 A 
HETATM   13  C   UNL     1      28.258  45.743  55.215  1.00  0.00     0.029 A 
HETATM   14  C   UNL     1      27.192  46.427  54.629  1.00  0.00     0.005 A 
HETATM   15  C   UNL     1      26.605  45.936  53.464  1.00  0.00     0.037 A 
BRANCH  12  16
HETATM   16  N   UNL     1      29.833  43.932  55.285  1.00  0.00    -0.327 N 
HETATM   17  C   UNL     1      30.659  44.462  56.261  1.00  0.00     0.218 C 
HETATM   18  C   UNL     1      31.707  43.482  56.725  1.00  0.00     0.117 C 
HETATM   19  O   UNL     1      30.585  45.579  56.763  1.00  0.00    -0.274 OA
HETATM   20  H   UNL     1      30.009  42.972  55.013  1.00  0.00     0.169 HD
ENDBRANCH  12  16
ENDBRANCH   9  10
ENDBRANCH   8   9
ENDBRANCH   7   8
ENDBRANCH   6   7
ENDBRANCH   5   6
ENDBRANCH   1   5
BRANCH   2  21
HETATM   21  C   UNL     1      22.458  49.613  48.725  1.00  0.00     0.120 A 
HETATM   22  N   UNL     1      21.810  48.571  49.326  1.00  0.00    -0.272 N 
HETATM   23  H   UNL     1      22.218  47.686  49.612  1.00  0.00     0.189 HD
HETATM   24  N   UNL     1      20.503  48.784  49.537  1.00  0.00    -0.174 NA
HETATM   25  C   UNL     1      20.275  50.018  49.060  1.00  0.00     0.089 A 
HETATM   26  C   UNL     1      21.479  50.567  48.533  1.00  0.00     0.071 A 
BRANCH  25  27
HETATM   27  C   UNL     1      18.942  50.630  49.113  1.00  0.00    -0.005 A 
HETATM   28  C   UNL     1      17.825  49.992  48.546  1.00  0.00     0.017 A 
HETATM   29  C   UNL     1      16.561  50.587  48.603  1.00  0.00     0.043 A 
HETATM   30  C   UNL     1      16.408  51.819  49.225  1.00  0.00     0.116 A 
HETATM   31  F   UNL     1      15.195  52.386  49.277  1.00  0.00    -0.206 F 
HETATM   32  C   UNL     1      17.495  52.471  49.791  1.00  0.00     0.043 A 
HETATM   33  C   UNL     1      18.758  51.879  49.734  1.00  0.00     0.017 A 
ENDBRANCH  25  27
ENDBRANCH   2  21
TORSDOF 9
ENDMDL
MODEL 7
REMARK VINA RESULT:      -8.5      4.743     12.176
REMARK  9 active torsions:
REMARK  status: ('A' for Active; 'I' for Inactive)
REMARK       I    between atoms: C_2  and  N_3 
REMARK    1  A    between atoms: N_3  and  C_4 
REMARK    2  A    between atoms: C_6  and  O_7 
REMARK    3  A    between atoms: O_7  and  C_8 
REMARK    4  A    between atoms: C_8  and  C_9 
REMARK    5  A    between atoms: C_9  and  C_10 
REMARK    6  A    between atoms: C_10  and  C_11 
REMARK    7  A    between atoms: C_11  and  N_12 
REMARK       I    between atoms: N_12  and  C_13 
REMARK    8  A    between atoms: C_13  and  C_14 
REMARK    9  A    between atoms: C_18  and  C_19 
ROOT
HETATM    1  N   UNL     1      23.368  48.004  49.827  1.00  0.00    -0.345 N 
HETATM    2  C   UNL     1      22.764  48.728  48.832  1.00  0.00     0.270 C 
HETATM    3  O   UNL     1      23.353  49.067  47.811  1.00  0.00    -0.266 OA
HETATM    4  H   UNL     1      22.821  47.650  50.597  1.00  0.00     0.163 HD
ENDROOT
BRANCH   1   5
HETATM    5  C   UNL     1      24.723  47.542  49.688  1.00  0.00     0.217 C 
BRANCH   5   6
HETATM    6  C   UNL     1      25.144  46.859  50.979  1.00  0.00    -0.085 C 
BRANCH   6   7
HETATM    7  C   UNL     1      25.506  46.273  52.086  1.00  0.00    -0.078 C 
BRANCH   7   8
HETATM    8  C   UNL     1      25.928  45.591  53.377  1.00  0.00     0.269 C 
BRANCH   8   9
HETATM    9  O   UNL     1      25.820  44.178  53.241  1.00  0.00    -0.339 OA
BRANCH   9  10
HETATM   10  C   UNL     1      27.006  43.493  53.150  1.00  0.00     0.072 A 
HETATM   11  C   UNL     1      27.205  42.282  52.474  1.00  0.00     0.066 A 
HETATM   12  C   UNL     1      28.468  41.684  52.427  1.00  0.00     0.037 A 
HETATM   13  C   UNL     1      29.536  42.305  53.085  1.00  0.00     0.029 A 
HETATM   14  C   UNL     1      29.345  43.507  53.768  1.00  0.00     0.005 A 
HETATM   15  C   UNL     1      28.083  44.098  53.797  1.00  0.00     0.037 A 
BRANCH  12  16
HETATM   16  N   UNL     1      28.741  40.478  51.745  1.00  0.00    -0.327 N 
HETATM   17  C   UNL     1      28.466  40.176  50.422  1.00  0.00     0.218 C 
HETATM   18  C   UNL     1      28.924  38.791  50.039  1.00  0.00     0.117 C 
HETATM   19  O   UNL     1      27.947  40.913  49.590  1.00  0.00    -0.274 OA
HETATM   20  H   UNL     1      29.216  39.765  52.283  1.00  0.00     0.169 HD
ENDBRANCH  12  16
ENDBRANCH   9  10
ENDBRANCH   8   9
ENDBRANCH   7   8
ENDBRANCH   6   7
ENDBRANCH   5   6
ENDBRANCH   1   5
BRANCH   2  21
HETATM   21  C   UNL     1      21.383  49.056  49.064  1.00  0.00     0.120 A 
HETATM   22  N   UNL     1      20.532  48.176  49.672  1.00  0.00    -0.272 N 
HETATM   23  H   UNL     1      20.759  47.244  50.008  1.00  0.00     0.189 HD
HETATM   24  N   UNL     1      19.280  48.632  49.817  1.00  0.00    -0.174 NA
HETATM   25  C   UNL     1      19.300  49.865  49.286  1.00  0.00     0.089 A 
HETATM   26  C   UNL     1      20.604  50.162  48.795  1.00  0.00     0.071 A 
BRANCH  25  27
HETATM   27  C   UNL     1      18.102  50.711  49.257  1.00  0.00    -0.005 A 
HETATM   28  C   UNL     1      18.094  51.983  49.855  1.00  0.00     0.017 A 
HETATM   29  C   UNL     1      16.944  52.778  49.823  1.00  0.00     0.043 A 
HETATM   30  C   UNL     1      15.799  52.307  49.193  1.00  0.00     0.116 A 
HETATM   31  F   UNL     1      14.699  53.071  49.164  1.00  0.00    -0.206 F 
HETATM   32  C   UNL     1      15.779  51.054  48.596  1.00  0.00     0.043 A 
HETATM   33  C   UNL     1      16.927  50.258  48.629  1.00  0.00     0.017 A 
ENDBRANCH  25  27
ENDBRANCH   2  21
TORSDOF 9
ENDMDL
MODEL 8
REMARK VINA RESULT:      -8.4      3.286      4.802
REMARK  9 active torsions:
REMARK  status: ('A' for Active; 'I' for Inactive)
REMARK       I    between atoms: C_2  and  N_3 
REMARK    1  A    between atoms: N_3  and  C_4 
REMARK    2  A    between atoms: C_6  and  O_7 
REMARK    3  A    between atoms: O_7  and  C_8 
REMARK    4  A    between atoms: C_8  and  C_9 
REMARK    5  A    between atoms: C_9  and  C_10 
REMARK    6  A    between atoms: C_10  and  C_11 
REMARK    7  A    between atoms: C_11  and  N_12 
REMARK       I    between atoms: N_12  and  C_13 
REMARK    8  A    between atoms: C_13  and  C_14 
REMARK    9  A    between atoms: C_18  and  C_19 
ROOT
HETATM    1  N   UNL     1      23.245  46.746  49.195  1.00  0.00    -0.345 N 
HETATM    2  C   UNL     1      24.133  47.501  49.919  1.00  0.00     0.270 C 
HETATM    3  O   UNL     1      24.328  48.690  49.692  1.00  0.00    -0.266 OA
HETATM    4  H   UNL     1      23.032  45.804  49.483  1.00  0.00     0.163 HD
ENDROOT
BRANCH   1   5
HETATM    5  C   UNL     1      22.438  47.340  48.164  1.00  0.00     0.217 C 
BRANCH   5   6
HETATM    6  C   UNL     1      21.159  47.874  48.788  1.00  0.00    -0.085 C 
BRANCH   6   7
HETATM    7  C   UNL     1      20.061  48.332  49.323  1.00  0.00    -0.078 C 
BRANCH   7   8
HETATM    8  C   UNL     1      18.783  48.866  49.947  1.00  0.00     0.269 C 
BRANCH   8   9
HETATM    9  O   UNL     1      18.853  50.283  50.068  1.00  0.00    -0.339 OA
BRANCH   9  10
HETATM   10  C   UNL     1      17.758  50.977  49.615  1.00  0.00     0.072 A 
HETATM   11  C   UNL     1      17.461  52.316  49.900  1.00  0.00     0.066 A 
HETATM   12  C   UNL     1      16.324  52.930  49.362  1.00  0.00     0.037 A 
HETATM   13  C   UNL     1      15.471  52.178  48.547  1.00  0.00     0.029 A 
HETATM   14  C   UNL     1      15.755  50.840  48.267  1.00  0.00     0.005 A 
HETATM   15  C   UNL     1      16.897  50.245  48.798  1.00  0.00     0.037 A 
BRANCH  12  16
HETATM   16  N   UNL     1      15.980  54.280  49.589  1.00  0.00    -0.327 N 
HETATM   17  C   UNL     1      15.235  54.797  50.635  1.00  0.00     0.218 C 
HETATM   18  C   UNL     1      15.091  56.297  50.554  1.00  0.00     0.117 C 
HETATM   19  O   UNL     1      14.749  54.174  51.573  1.00  0.00    -0.274 OA
HETATM   20  H   UNL     1      16.345  54.946  48.919  1.00  0.00     0.169 HD
ENDBRANCH  12  16
ENDBRANCH   9  10
ENDBRANCH   8   9
ENDBRANCH   7   8
ENDBRANCH   6   7
ENDBRANCH   5   6
ENDBRANCH   1   5
BRANCH   2  21
HETATM   21  C   UNL     1      24.815  46.800  50.973  1.00  0.00     0.120 A 
HETATM   22  N   UNL     1      24.398  45.572  51.402  1.00  0.00    -0.272 N 
HETATM   23  H   UNL     1      23.606  45.042  51.050  1.00  0.00     0.189 HD
HETATM   24  N   UNL     1      25.141  45.052  52.390  1.00  0.00    -0.174 NA
HETATM   25  C   UNL     1      26.091  45.971  52.624  1.00  0.00     0.089 A 
HETATM   26  C   UNL     1      25.913  47.088  51.758  1.00  0.00     0.071 A 
BRANCH  25  27
HETATM   27  C   UNL     1      27.122  45.769  53.649  1.00  0.00    -0.005 A 
HETATM   28  C   UNL     1      27.410  46.765  54.598  1.00  0.00     0.017 A 
HETATM   29  C   UNL     1      28.397  46.559  55.568  1.00  0.00     0.043 A 
HETATM   30  C   UNL     1      29.097  45.360  55.594  1.00  0.00     0.116 A 
HETATM   31  F   UNL     1      30.041  45.167  56.525  1.00  0.00    -0.206 F 
HETATM   32  C   UNL     1      28.833  44.361  54.667  1.00  0.00     0.043 A 
HETATM   33  C   UNL     1      27.849  44.565  53.697  1.00  0.00     0.017 A 
ENDBRANCH  25  27
ENDBRANCH   2  21
TORSDOF 9
ENDMDL
MODEL 9
REMARK VINA RESULT:      -8.4      1.850      2.372
REMARK  9 active torsions:
REMARK  status: ('A' for Active; 'I' for Inactive)
REMARK       I    between atoms: C_2  and  N_3 
REMARK    1  A    between atoms: N_3  and  C_4 
REMARK    2  A    between atoms: C_6  and  O_7 
REMARK    3  A    between atoms: O_7  and  C_8 
REMARK    4  A    between atoms: C_8  and  C_9 
REMARK    5  A    between atoms: C_9  and  C_10 
REMARK    6  A    between atoms: C_10  and  C_11 
REMARK    7  A    between atoms: C_11  and  N_12 
REMARK       I    between atoms: N_12  and  C_13 
REMARK    8  A    between atoms: C_13  and  C_14 
REMARK    9  A    between atoms: C_18  and  C_19 
ROOT
HETATM    1  N   UNL     1      24.912  43.138  49.975  1.00  0.00    -0.345 N 
HETATM    2  C   UNL     1      26.277  43.157  50.110  1.00  0.00     0.270 C 
HETATM    3  O   UNL     1      27.038  42.990  49.162  1.00  0.00    -0.266 OA
HETATM    4  H   UNL     1      24.325  43.390  50.754  1.00  0.00     0.163 HD
ENDROOT
BRANCH   1   5
HETATM    5  C   UNL     1      24.299  42.987  48.682  1.00  0.00     0.217 C 
BRANCH   5   6
HETATM    6  C   UNL     1      23.474  44.228  48.382  1.00  0.00    -0.085 C 
BRANCH   6   7
HETATM    7  C   UNL     1      22.767  45.293  48.125  1.00  0.00    -0.078 C 
BRANCH   7   8
HETATM    8  C   UNL     1      21.943  46.534  47.825  1.00  0.00     0.269 C 
BRANCH   8   9
HETATM    9  O   UNL     1      22.781  47.686  47.816  1.00  0.00    -0.339 OA
BRANCH   9  10
HETATM   10  C   UNL     1      22.151  48.886  48.034  1.00  0.00     0.072 A 
HETATM   11  C   UNL     1      20.766  49.100  48.016  1.00  0.00     0.066 A 
HETATM   12  C   UNL     1      20.232  50.366  48.277  1.00  0.00     0.037 A 
HETATM   13  C   UNL     1      21.105  51.428  48.539  1.00  0.00     0.029 A 
HETATM   14  C   UNL     1      22.485  51.226  48.548  1.00  0.00     0.005 A 
HETATM   15  C   UNL     1      23.004  49.956  48.299  1.00  0.00     0.037 A 
BRANCH  12  16
HETATM   16  N   UNL     1      18.848  50.644  48.299  1.00  0.00    -0.327 N 
HETATM   17  C   UNL     1      17.983  50.542  49.375  1.00  0.00     0.218 C 
HETATM   18  C   UNL     1      16.573  50.946  49.023  1.00  0.00     0.117 C 
HETATM   19  O   UNL     1      18.267  50.205  50.520  1.00  0.00    -0.274 OA
HETATM   20  H   UNL     1      18.453  50.982  47.430  1.00  0.00     0.169 HD
ENDBRANCH  12  16
ENDBRANCH   9  10
ENDBRANCH   8   9
ENDBRANCH   7   8
ENDBRANCH   6   7
ENDBRANCH   5   6
ENDBRANCH   1   5
BRANCH   2  21
HETATM   21  C   UNL     1      26.757  43.398  51.444  1.00  0.00     0.120 A 
HETATM   22  N   UNL     1      25.904  43.469  52.508  1.00  0.00    -0.272 N 
HETATM   23  H   UNL     1      24.893  43.370  52.485  1.00  0.00     0.189 HD
HETATM   24  N   UNL     1      26.507  43.697  53.684  1.00  0.00    -0.174 NA
HETATM   25  C   UNL     1      27.814  43.778  53.388  1.00  0.00     0.089 A 
HETATM   26  C   UNL     1      28.009  43.603  51.988  1.00  0.00     0.071 A 
BRANCH  25  27
HETATM   27  C   UNL     1      28.825  44.018  54.424  1.00  0.00    -0.005 A 
HETATM   28  C   UNL     1      28.831  45.207  55.174  1.00  0.00     0.017 A 
HETATM   29  C   UNL     1      29.801  45.423  56.158  1.00  0.00     0.043 A 
HETATM   30  C   UNL     1      30.767  44.454  56.397  1.00  0.00     0.116 A 
HETATM   31  F   UNL     1      31.695  44.665  57.340  1.00  0.00    -0.206 F 
HETATM   32  C   UNL     1      30.785  43.272  55.669  1.00  0.00     0.043 A 
HETATM   33  C   UNL     1      29.818  43.055  54.686  1.00  0.00     0.017 A 
ENDBRANCH  25  27
ENDBRANCH   2  21
TORSDOF 9
ENDMDL
MODEL 10
REMARK VINA RESULT:      -8.3      1.992      2.720
REMARK  9 active torsions:
REMARK  status: ('A' for Active; 'I' for Inactive)
REMARK       I    between atoms: C_2  and  N_3 
REMARK    1  A    between atoms: N_3  and  C_4 
REMARK    2  A    between atoms: C_6  and  O_7 
REMARK    3  A    between atoms: O_7  and  C_8 
REMARK    4  A    between atoms: C_8  and  C_9 
REMARK    5  A    between atoms: C_9  and  C_10 
REMARK    6  A    between atoms: C_10  and  C_11 
REMARK    7  A    between atoms: C_11  and  N_12 
REMARK       I    between atoms: N_12  and  C_13 
REMARK    8  A    between atoms: C_13  and  C_14 
REMARK    9  A    between atoms: C_18  and  C_19 
ROOT
HETATM    1  N   UNL     1      24.635  45.886  50.079  1.00  0.00    -0.345 N 
HETATM    2  C   UNL     1      24.561  44.835  50.958  1.00  0.00     0.270 C 
HETATM    3  O   UNL     1      23.544  44.164  51.102  1.00  0.00    -0.266 OA
HETATM    4  H   UNL     1      25.519  46.340  49.910  1.00  0.00     0.163 HD
ENDROOT
BRANCH   1   5
HETATM    5  C   UNL     1      23.528  46.212  49.221  1.00  0.00     0.217 C 
BRANCH   5   6
HETATM    6  C   UNL     1      23.352  47.721  49.199  1.00  0.00    -0.085 C 
BRANCH   6   7
HETATM    7  C   UNL     1      23.200  49.016  49.180  1.00  0.00    -0.078 C 
BRANCH   7   8
HETATM    8  C   UNL     1      23.023  50.526  49.158  1.00  0.00     0.269 C 
BRANCH   8   9
HETATM    9  O   UNL     1      22.113  50.926  50.178  1.00  0.00    -0.339 OA
BRANCH   9  10
HETATM   10  C   UNL     1      20.789  50.967  49.814  1.00  0.00     0.072 A 
HETATM   11  C   UNL     1      20.258  51.676  48.729  1.00  0.00     0.066 A 
HETATM   12  C   UNL     1      18.891  51.626  48.438  1.00  0.00     0.037 A 
HETATM   13  C   UNL     1      18.051  50.869  49.262  1.00  0.00     0.029 A 
HETATM   14  C   UNL     1      18.570  50.167  50.351  1.00  0.00     0.005 A 
HETATM   15  C   UNL     1      19.936  50.216  50.622  1.00  0.00     0.037 A 
BRANCH  12  16
HETATM   16  N   UNL     1      18.296  52.296  47.346  1.00  0.00    -0.327 N 
HETATM   17  C   UNL     1      17.867  51.746  46.150  1.00  0.00     0.218 C 
HETATM   18  C   UNL     1      17.260  52.774  45.228  1.00  0.00     0.117 C 
HETATM   19  O   UNL     1      17.910  50.565  45.824  1.00  0.00    -0.274 OA
HETATM   20  H   UNL     1      18.145  53.289  47.469  1.00  0.00     0.169 HD
ENDBRANCH  12  16
ENDBRANCH   9  10
ENDBRANCH   8   9
ENDBRANCH   7   8
ENDBRANCH   6   7
ENDBRANCH   5   6
ENDBRANCH   1   5
BRANCH   2  21
HETATM   21  C   UNL     1      25.765  44.568  51.696  1.00  0.00     0.120 A 
HETATM   22  N   UNL     1      26.692  43.668  51.250  1.00  0.00    -0.272 N 
HETATM   23  H   UNL     1      26.643  43.116  50.399  1.00  0.00     0.189 HD
HETATM   24  N   UNL     1      27.760  43.534  52.051  1.00  0.00    -0.174 NA
HETATM   25  C   UNL     1      27.533  44.380  53.068  1.00  0.00     0.089 A 
HETATM   26  C   UNL     1      26.285  45.041  52.884  1.00  0.00     0.071 A 
BRANCH  25  27
HETATM   27  C   UNL     1      28.490  44.533  54.170  1.00  0.00    -0.005 A 
HETATM   28  C   UNL     1      28.402  45.612  55.066  1.00  0.00     0.017 A 
HETATM   29  C   UNL     1      29.322  45.747  56.111  1.00  0.00     0.043 A 
HETATM   30  C   UNL     1      30.331  44.805  56.264  1.00  0.00     0.116 A 
HETATM   31  F   UNL     1      31.211  44.938  57.266  1.00  0.00    -0.206 F 
HETATM   32  C   UNL     1      30.442  43.731  55.392  1.00  0.00     0.043 A 
HETATM   33  C   UNL     1      29.525  43.596  54.348  1.00  0.00     0.017 A 
ENDBRANCH  25  27
ENDBRANCH   2  21
TORSDOF 9
ENDMDL
