MODEL 1
REMARK VINA RESULT:     -10.1      0.000      0.000
REMARK  8 active torsions:
REMARK  status: ('A' for Active; 'I' for Inactive)
REMARK    1  A    between atoms: O_2  and  C_3 
REMARK    2  A    between atoms: C_6  and  C_7 
REMARK    3  A    between atoms: C_11  and  C_12 
REMARK       I    between atoms: C_12  and  N_13 
REMARK    4  A    between atoms: N_13  and  N_14 
REMARK       I    between atoms: N_14  and  C_15 
REMARK    5  A    between atoms: C_15  and  C_16 
REMARK    6  A    between atoms: C_16  and  C_17 
REMARK    7  A    between atoms: C_17  and  C_18 
REMARK    8  A    between atoms: N_20  and  C_21 
ROOT
HETATM    1  C   UNL     1      24.229  48.345  49.578  1.00  0.00     0.288 C 
HETATM    2  N   UNL     1      24.403  47.128  50.200  1.00  0.00    -0.262 N 
HETATM    3  O   UNL     1      25.181  49.023  49.196  1.00  0.00    -0.264 OA
HETATM    4  H   UNL     1      23.643  46.557  50.562  1.00  0.00     0.190 HD
ENDROOT
BRANCH   2   5
HETATM    5  N   UNL     1      25.693  46.602  50.340  1.00  0.00    -0.267 N 
HETATM    6  C   UNL     1      25.905  45.324  49.879  1.00  0.00     0.236 C 
HETATM    7  O   UNL     1      25.037  44.713  49.252  1.00  0.00    -0.272 OA
HETATM    8  H   UNL     1      26.285  47.062  51.028  1.00  0.00     0.190 HD
BRANCH   6   9
HETATM    9  C   UNL     1      27.299  44.752  50.050  1.00  0.00     0.109 C 
BRANCH   9  10
HETATM   10  C   UNL     1      27.472  43.635  51.073  1.00  0.00     0.051 C 
BRANCH  10  11
HETATM   11  C   UNL     1      27.835  44.108  52.437  1.00  0.00    -0.021 A 
HETATM   12  C   UNL     1      28.954  43.788  53.178  1.00  0.00     0.127 A 
HETATM   13  N   UNL     1      28.848  44.430  54.397  1.00  0.00    -0.245 N 
HETATM   14  N   UNL     1      27.707  45.166  54.455  1.00  0.00    -0.180 NA
HETATM   15  C   UNL     1      27.105  44.962  53.286  1.00  0.00     0.147 A 
BRANCH  13  16
HETATM   16  C   UNL     1      29.744  44.376  55.501  1.00  0.00     0.058 A 
HETATM   17  C   UNL     1      30.648  43.316  55.654  1.00  0.00     0.031 A 
HETATM   18  C   UNL     1      31.506  43.282  56.758  1.00  0.00     0.002 A 
HETATM   19  C   UNL     1      31.468  44.300  57.709  1.00  0.00     0.000 A 
HETATM   20  C   UNL     1      30.576  45.358  57.561  1.00  0.00     0.002 A 
HETATM   21  C   UNL     1      29.715  45.399  56.461  1.00  0.00     0.031 A 
ENDBRANCH  13  16
ENDBRANCH  10  11
ENDBRANCH   9  10
ENDBRANCH   6   9
ENDBRANCH   2   5
BRANCH   1  22
HETATM   22  C   UNL     1      22.860  48.738  49.385  1.00  0.00     0.121 A 
HETATM   23  N   UNL     1      21.857  47.826  49.208  1.00  0.00    -0.272 N 
HETATM   24  N   UNL     1      20.629  48.365  49.140  1.00  0.00    -0.174 NA
HETATM   25  H   UNL     1      21.951  46.816  49.163  1.00  0.00     0.189 HD
HETATM   26  C   UNL     1      20.836  49.688  49.225  1.00  0.00     0.089 A 
HETATM   27  C   UNL     1      22.224  49.964  49.359  1.00  0.00     0.071 A 
BRANCH  26  28
HETATM   28  C   UNL     1      19.736  50.653  49.235  1.00  0.00    -0.005 A 
HETATM   29  C   UNL     1      19.802  51.809  48.446  1.00  0.00     0.016 A 
HETATM   30  C   UNL     1      18.719  52.695  48.379  1.00  0.00     0.037 A 
HETATM   31  C   UNL     1      17.559  52.436  49.108  1.00  0.00     0.068 A 
HETATM   32  C   UNL     1      17.506  51.312  49.933  1.00  0.00     0.037 A 
HETATM   33  C   UNL     1      18.582  50.421  49.993  1.00  0.00     0.016 A 
BRANCH  31  34
HETATM   34  O   UNL     1      16.431  53.208  49.109  1.00  0.00    -0.356 OA
HETATM   35  C   UNL     1      15.550  53.021  50.210  1.00  0.00     0.210 C 
ENDBRANCH  31  34
ENDBRANCH  26  28
ENDBRANCH   1  22
TORSDOF 8
ENDMDL
MODEL 2
REMARK VINA RESULT:     -10.1      1.791      2.276
REMARK  8 active torsions:
REMARK  status: ('A' for Active; 'I' for Inactive)
REMARK    1  A    between atoms: O_2  and  C_3 
REMARK    2  A    between atoms: C_6  and  C_7 
REMARK    3  A    between atoms: C_11  and  C_12 
REMARK       I    between atoms: C_12  and  N_13 
REMARK    4  A    between atoms: N_13  and  N_14 
REMARK       I    between atoms: N_14  and  C_15 
REMARK    5  A    between atoms: C_15  and  C_16 
REMARK    6  A    between atoms: C_16  and  C_17 
REMARK    7  A    between atoms: C_17  and  C_18 
REMARK    8  A    between atoms: N_20  and  C_21 
ROOT
HETATM    1  C   UNL     1      25.245  47.966  49.515  1.00  0.00     0.288 C 
HETATM    2  N   UNL     1      24.779  47.078  50.459  1.00  0.00    -0.262 N 
HETATM    3  O   UNL     1      26.423  47.981  49.160  1.00  0.00    -0.264 OA
HETATM    4  H   UNL     1      23.823  47.061  50.804  1.00  0.00     0.190 HD
ENDROOT
BRANCH   2   5
HETATM    5  N   UNL     1      25.644  46.111  50.984  1.00  0.00    -0.267 N 
HETATM    6  C   UNL     1      25.076  44.954  51.466  1.00  0.00     0.236 C 
HETATM    7  O   UNL     1      23.874  44.719  51.325  1.00  0.00    -0.272 OA
HETATM    8  H   UNL     1      26.567  46.443  51.252  1.00  0.00     0.190 HD
BRANCH   6   9
HETATM    9  C   UNL     1      26.016  43.918  52.050  1.00  0.00     0.109 C 
BRANCH   9  10
HETATM   10  C   UNL     1      27.454  43.919  51.543  1.00  0.00     0.051 C 
BRANCH  10  11
HETATM   11  C   UNL     1      28.476  43.724  52.608  1.00  0.00    -0.021 A 
HETATM   12  C   UNL     1      28.549  44.339  53.840  1.00  0.00     0.127 A 
HETATM   13  N   UNL     1      29.685  43.877  54.475  1.00  0.00    -0.245 N 
HETATM   14  N   UNL     1      30.334  42.970  53.698  1.00  0.00    -0.180 NA
HETATM   15  C   UNL     1      29.611  42.890  52.584  1.00  0.00     0.147 A 
BRANCH  13  16
HETATM   16  C   UNL     1      30.194  44.248  55.751  1.00  0.00     0.058 A 
HETATM   17  C   UNL     1      29.788  45.433  56.380  1.00  0.00     0.031 A 
HETATM   18  C   UNL     1      30.318  45.780  57.627  1.00  0.00     0.002 A 
HETATM   19  C   UNL     1      31.249  44.951  58.250  1.00  0.00     0.000 A 
HETATM   20  C   UNL     1      31.654  43.770  57.633  1.00  0.00     0.002 A 
HETATM   21  C   UNL     1      31.130  43.417  56.387  1.00  0.00     0.031 A 
ENDBRANCH  13  16
ENDBRANCH  10  11
ENDBRANCH   9  10
ENDBRANCH   6   9
ENDBRANCH   2   5
BRANCH   1  22
HETATM   22  C   UNL     1      24.249  48.841  48.960  1.00  0.00     0.121 A 
HETATM   23  N   UNL     1      24.537  49.742  47.973  1.00  0.00    -0.272 N 
HETATM   24  N   UNL     1      23.469  50.409  47.506  1.00  0.00    -0.174 NA
HETATM   25  H   UNL     1      25.445  49.918  47.552  1.00  0.00     0.189 HD
HETATM   26  C   UNL     1      22.444  49.966  48.251  1.00  0.00     0.089 A 
HETATM   27  C   UNL     1      22.896  48.996  49.188  1.00  0.00     0.071 A 
BRANCH  26  28
HETATM   28  C   UNL     1      21.068  50.413  48.033  1.00  0.00    -0.005 A 
HETATM   29  C   UNL     1      20.614  51.610  48.605  1.00  0.00     0.016 A 
HETATM   30  C   UNL     1      19.328  52.093  48.332  1.00  0.00     0.037 A 
HETATM   31  C   UNL     1      18.479  51.379  47.488  1.00  0.00     0.068 A 
HETATM   32  C   UNL     1      18.907  50.162  46.956  1.00  0.00     0.037 A 
HETATM   33  C   UNL     1      20.194  49.684  47.218  1.00  0.00     0.016 A 
BRANCH  31  34
HETATM   34  O   UNL     1      17.215  51.756  47.128  1.00  0.00    -0.356 OA
HETATM   35  C   UNL     1      17.101  52.451  45.892  1.00  0.00     0.210 C 
ENDBRANCH  31  34
ENDBRANCH  26  28
ENDBRANCH   1  22
TORSDOF 8
ENDMDL
MODEL 3
REMARK VINA RESULT:      -9.8      2.308     12.340
REMARK  8 active torsions:
REMARK  status: ('A' for Active; 'I' for Inactive)
REMARK    1  A    between atoms: O_2  and  C_3 
REMARK    2  A    between atoms: C_6  and  C_7 
REMARK    3  A    between atoms: C_11  and  C_12 
REMARK       I    between atoms: C_12  and  N_13 
REMARK    4  A    between atoms: N_13  and  N_14 
REMARK       I    between atoms: N_14  and  C_15 
REMARK    5  A    between atoms: C_15  and  C_16 
REMARK    6  A    between atoms: C_16  and  C_17 
REMARK    7  A    between atoms: C_17  and  C_18 
REMARK    8  A    between atoms: N_20  and  C_21 
ROOT
HETATM    1  C   UNL     1      24.890  45.964  50.417  1.00  0.00     0.288 C 
HETATM    2  N   UNL     1      25.010  47.334  50.348  1.00  0.00    -0.262 N 
HETATM    3  O   UNL     1      24.017  45.355  49.800  1.00  0.00    -0.264 OA
HETATM    4  H   UNL     1      25.694  47.875  50.872  1.00  0.00     0.190 HD
ENDROOT
BRANCH   2   5
HETATM    5  N   UNL     1      24.167  48.060  49.498  1.00  0.00    -0.267 N 
HETATM    6  C   UNL     1      24.717  49.127  48.827  1.00  0.00     0.236 C 
HETATM    7  O   UNL     1      25.928  49.359  48.867  1.00  0.00    -0.272 OA
HETATM    8  H   UNL     1      23.170  47.949  49.665  1.00  0.00     0.190 HD
BRANCH   6   9
HETATM    9  C   UNL     1      23.796  49.920  47.921  1.00  0.00     0.109 C 
BRANCH   9  10
HETATM   10  C   UNL     1      23.015  51.066  48.555  1.00  0.00     0.051 C 
BRANCH  10  11
HETATM   11  C   UNL     1      21.584  50.755  48.821  1.00  0.00    -0.021 A 
HETATM   12  C   UNL     1      20.494  51.592  48.694  1.00  0.00     0.127 A 
HETATM   13  N   UNL     1      19.374  50.885  49.085  1.00  0.00    -0.245 N 
HETATM   14  N   UNL     1      19.706  49.616  49.440  1.00  0.00    -0.180 NA
HETATM   15  C   UNL     1      21.026  49.550  49.288  1.00  0.00     0.147 A 
BRANCH  13  16
HETATM   16  C   UNL     1      18.027  51.339  49.155  1.00  0.00     0.058 A 
HETATM   17  C   UNL     1      17.679  52.477  49.895  1.00  0.00     0.031 A 
HETATM   18  C   UNL     1      16.344  52.890  49.958  1.00  0.00     0.002 A 
HETATM   19  C   UNL     1      15.355  52.175  49.286  1.00  0.00     0.000 A 
HETATM   20  C   UNL     1      15.694  51.046  48.545  1.00  0.00     0.002 A 
HETATM   21  C   UNL     1      17.025  50.627  48.478  1.00  0.00     0.031 A 
ENDBRANCH  13  16
ENDBRANCH  10  11
ENDBRANCH   9  10
ENDBRANCH   6   9
ENDBRANCH   2   5
BRANCH   1  22
HETATM   22  C   UNL     1      25.876  45.308  51.232  1.00  0.00     0.121 A 
HETATM   23  N   UNL     1      26.546  44.193  50.811  1.00  0.00    -0.272 N 
HETATM   24  N   UNL     1      27.498  43.770  51.658  1.00  0.00    -0.174 NA
HETATM   25  H   UNL     1      26.417  43.698  49.933  1.00  0.00     0.189 HD
HETATM   26  C   UNL     1      27.419  44.610  52.701  1.00  0.00     0.089 A 
HETATM   27  C   UNL     1      26.399  45.577  52.481  1.00  0.00     0.071 A 
BRANCH  26  28
HETATM   28  C   UNL     1      28.326  44.526  53.845  1.00  0.00    -0.005 A 
HETATM   29  C   UNL     1      29.210  43.445  53.970  1.00  0.00     0.016 A 
HETATM   30  C   UNL     1      30.144  43.398  55.012  1.00  0.00     0.037 A 
HETATM   31  C   UNL     1      30.199  44.431  55.947  1.00  0.00     0.068 A 
HETATM   32  C   UNL     1      29.289  45.485  55.857  1.00  0.00     0.037 A 
HETATM   33  C   UNL     1      28.364  45.539  54.811  1.00  0.00     0.016 A 
BRANCH  31  34
HETATM   34  O   UNL     1      31.077  44.511  56.992  1.00  0.00    -0.356 OA
HETATM   35  C   UNL     1      31.942  43.394  57.165  1.00  0.00     0.210 C 
ENDBRANCH  31  34
ENDBRANCH  26  28
ENDBRANCH   1  22
TORSDOF 8
ENDMDL
MODEL 4
REMARK VINA RESULT:      -9.6      1.589      2.295
REMARK  8 active torsions:
REMARK  status: ('A' for Active; 'I' for Inactive)
REMARK    1  A    between atoms: O_2  and  C_3 
REMARK    2  A    between atoms: C_6  and  C_7 
REMARK    3  A    between atoms: C_11  and  C_12 
REMARK       I    between atoms: C_12  and  N_13 
REMARK    4  A    between atoms: N_13  and  N_14 
REMARK       I    between atoms: N_14  and  C_15 
REMARK    5  A    between atoms: C_15  and  C_16 
REMARK    6  A    between atoms: C_16  and  C_17 
REMARK    7  A    between atoms: C_17  and  C_18 
REMARK    8  A    between atoms: N_20  and  C_21 
ROOT
HETATM    1  C   UNL     1      21.850  48.353  48.401  1.00  0.00     0.288 C 
HETATM    2  N   UNL     1      22.565  48.033  49.534  1.00  0.00    -0.262 N 
HETATM    3  O   UNL     1      21.934  47.689  47.369  1.00  0.00    -0.264 OA
HETATM    4  H   UNL     1      22.549  48.579  50.392  1.00  0.00     0.190 HD
ENDROOT
BRANCH   2   5
HETATM    5  N   UNL     1      23.357  46.879  49.549  1.00  0.00    -0.267 N 
HETATM    6  C   UNL     1      24.676  47.026  49.907  1.00  0.00     0.236 C 
HETATM    7  O   UNL     1      25.115  48.100  50.325  1.00  0.00    -0.272 OA
HETATM    8  H   UNL     1      23.000  46.092  49.012  1.00  0.00     0.190 HD
BRANCH   6   9
HETATM    9  C   UNL     1      25.534  45.775  49.904  1.00  0.00     0.109 C 
BRANCH   9  10
HETATM   10  C   UNL     1      25.322  44.783  51.042  1.00  0.00     0.051 C 
BRANCH  10  11
HETATM   11  C   UNL     1      26.141  45.061  52.253  1.00  0.00    -0.021 A 
HETATM   12  C   UNL     1      27.328  44.467  52.632  1.00  0.00     0.127 A 
HETATM   13  N   UNL     1      27.703  45.013  53.843  1.00  0.00    -0.245 N 
HETATM   14  N   UNL     1      26.807  45.952  54.246  1.00  0.00    -0.180 NA
HETATM   15  C   UNL     1      25.875  45.968  53.296  1.00  0.00     0.147 A 
BRANCH  13  16
HETATM   16  C   UNL     1      28.838  44.692  54.639  1.00  0.00     0.058 A 
HETATM   17  C   UNL     1      29.557  43.506  54.440  1.00  0.00     0.031 A 
HETATM   18  C   UNL     1      30.659  43.210  55.248  1.00  0.00     0.002 A 
HETATM   19  C   UNL     1      31.049  44.092  56.254  1.00  0.00     0.000 A 
HETATM   20  C   UNL     1      30.343  45.275  56.455  1.00  0.00     0.002 A 
HETATM   21  C   UNL     1      29.241  45.577  55.652  1.00  0.00     0.031 A 
ENDBRANCH  13  16
ENDBRANCH  10  11
ENDBRANCH   9  10
ENDBRANCH   6   9
ENDBRANCH   2   5
BRANCH   1  22
HETATM   22  C   UNL     1      20.983  49.493  48.531  1.00  0.00     0.121 A 
HETATM   23  N   UNL     1      21.441  50.775  48.411  1.00  0.00    -0.272 N 
HETATM   24  N   UNL     1      20.480  51.710  48.464  1.00  0.00    -0.174 NA
HETATM   25  H   UNL     1      22.401  51.069  48.255  1.00  0.00     0.189 HD
HETATM   26  C   UNL     1      19.349  51.020  48.677  1.00  0.00     0.089 A 
HETATM   27  C   UNL     1      19.626  49.626  48.746  1.00  0.00     0.071 A 
BRANCH  26  28
HETATM   28  C   UNL     1      18.040  51.667  48.756  1.00  0.00    -0.005 A 
HETATM   29  C   UNL     1      17.007  51.283  47.891  1.00  0.00     0.016 A 
HETATM   30  C   UNL     1      15.724  51.833  48.016  1.00  0.00     0.037 A 
HETATM   31  C   UNL     1      15.464  52.780  49.005  1.00  0.00     0.068 A 
HETATM   32  C   UNL     1      16.500  53.203  49.838  1.00  0.00     0.037 A 
HETATM   33  C   UNL     1      17.778  52.647  49.722  1.00  0.00     0.016 A 
BRANCH  31  34
HETATM   34  O   UNL     1      14.254  53.371  49.242  1.00  0.00    -0.356 OA
HETATM   35  C   UNL     1      13.809  53.358  50.593  1.00  0.00     0.210 C 
ENDBRANCH  31  34
ENDBRANCH  26  28
ENDBRANCH   1  22
TORSDOF 8
ENDMDL
MODEL 5
REMARK VINA RESULT:      -9.4      1.669      2.023
REMARK  8 active torsions:
REMARK  status: ('A' for Active; 'I' for Inactive)
REMARK    1  A    between atoms: O_2  and  C_3 
REMARK    2  A    between atoms: C_6  and  C_7 
REMARK    3  A    between atoms: C_11  and  C_12 
REMARK       I    between atoms: C_12  and  N_13 
REMARK    4  A    between atoms: N_13  and  N_14 
REMARK       I    between atoms: N_14  and  C_15 
REMARK    5  A    between atoms: C_15  and  C_16 
REMARK    6  A    between atoms: C_16  and  C_17 
REMARK    7  A    between atoms: C_17  and  C_18 
REMARK    8  A    between atoms: N_20  and  C_21 
ROOT
HETATM    1  C   UNL     1      22.751  46.358  48.725  1.00  0.00     0.288 C 
HETATM    2  N   UNL     1      23.454  45.782  49.761  1.00  0.00    -0.262 N 
HETATM    3  O   UNL     1      22.613  45.795  47.640  1.00  0.00    -0.264 OA
HETATM    4  H   UNL     1      23.621  46.232  50.658  1.00  0.00     0.190 HD
ENDROOT
BRANCH   2   5
HETATM    5  N   UNL     1      23.968  44.488  49.612  1.00  0.00    -0.267 N 
HETATM    6  C   UNL     1      24.406  43.851  50.750  1.00  0.00     0.236 C 
HETATM    7  O   UNL     1      24.237  44.341  51.869  1.00  0.00    -0.272 OA
HETATM    8  H   UNL     1      24.261  44.235  48.672  1.00  0.00     0.190 HD
BRANCH   6   9
HETATM    9  C   UNL     1      24.978  42.457  50.581  1.00  0.00     0.109 C 
BRANCH   9  10
HETATM   10  C   UNL     1      26.491  42.340  50.431  1.00  0.00     0.051 C 
BRANCH  10  11
HETATM   11  C   UNL     1      27.237  42.386  51.719  1.00  0.00    -0.021 A 
HETATM   12  C   UNL     1      27.775  43.487  52.352  1.00  0.00     0.127 A 
HETATM   13  N   UNL     1      28.407  43.046  53.498  1.00  0.00    -0.245 N 
HETATM   14  N   UNL     1      28.275  41.700  53.632  1.00  0.00    -0.180 NA
HETATM   15  C   UNL     1      27.584  41.313  52.563  1.00  0.00     0.147 A 
BRANCH  13  16
HETATM   16  C   UNL     1      29.131  43.812  54.454  1.00  0.00     0.058 A 
HETATM   17  C   UNL     1      30.328  43.340  55.010  1.00  0.00     0.031 A 
HETATM   18  C   UNL     1      31.009  44.108  55.959  1.00  0.00     0.002 A 
HETATM   19  C   UNL     1      30.504  45.344  56.357  1.00  0.00     0.000 A 
HETATM   20  C   UNL     1      29.318  45.822  55.806  1.00  0.00     0.002 A 
HETATM   21  C   UNL     1      28.631  45.060  54.857  1.00  0.00     0.031 A 
ENDBRANCH  13  16
ENDBRANCH  10  11
ENDBRANCH   9  10
ENDBRANCH   6   9
ENDBRANCH   2   5
BRANCH   1  22
HETATM   22  C   UNL     1      22.172  47.639  49.022  1.00  0.00     0.121 A 
HETATM   23  N   UNL     1      22.923  48.699  49.448  1.00  0.00    -0.272 N 
HETATM   24  N   UNL     1      22.234  49.843  49.585  1.00  0.00    -0.174 NA
HETATM   25  H   UNL     1      23.923  48.706  49.627  1.00  0.00     0.189 HD
HETATM   26  C   UNL     1      20.969  49.512  49.286  1.00  0.00     0.089 A 
HETATM   27  C   UNL     1      20.884  48.133  48.948  1.00  0.00     0.071 A 
BRANCH  26  28
HETATM   28  C   UNL     1      19.886  50.496  49.269  1.00  0.00    -0.005 A 
HETATM   29  C   UNL     1      19.996  51.657  48.493  1.00  0.00     0.016 A 
HETATM   30  C   UNL     1      18.931  52.562  48.400  1.00  0.00     0.037 A 
HETATM   31  C   UNL     1      17.744  52.316  49.089  1.00  0.00     0.068 A 
HETATM   32  C   UNL     1      17.646  51.188  49.903  1.00  0.00     0.037 A 
HETATM   33  C   UNL     1      18.705  50.278  49.989  1.00  0.00     0.016 A 
BRANCH  31  34
HETATM   34  O   UNL     1      16.630  53.108  49.061  1.00  0.00    -0.356 OA
HETATM   35  C   UNL     1      15.847  53.121  50.249  1.00  0.00     0.210 C 
ENDBRANCH  31  34
ENDBRANCH  26  28
ENDBRANCH   1  22
TORSDOF 8
ENDMDL
MODEL 6
REMARK VINA RESULT:      -9.3      1.614      2.055
REMARK  8 active torsions:
REMARK  status: ('A' for Active; 'I' for Inactive)
REMARK    1  A    between atoms: O_2  and  C_3 
REMARK    2  A    between atoms: C_6  and  C_7 
REMARK    3  A    between atoms: C_11  and  C_12 
REMARK       I    between atoms: C_12  and  N_13 
REMARK    4  A    between atoms: N_13  and  N_14 
REMARK       I    between atoms: N_14  and  C_15 
REMARK    5  A    between atoms: C_15  and  C_16 
REMARK    6  A    between atoms: C_16  and  C_17 
REMARK    7  A    between atoms: C_17  and  C_18 
REMARK    8  A    between atoms: N_20  and  C_21 
ROOT
HETATM    1  C   UNL     1      23.275  48.872  49.199  1.00  0.00     0.288 C 
HETATM    2  N   UNL     1      23.267  47.658  49.850  1.00  0.00    -0.262 N 
HETATM    3  O   UNL     1      24.221  49.229  48.499  1.00  0.00    -0.264 OA
HETATM    4  H   UNL     1      22.520  47.345  50.465  1.00  0.00     0.190 HD
ENDROOT
BRANCH   2   5
HETATM    5  N   UNL     1      24.327  46.764  49.658  1.00  0.00    -0.267 N 
HETATM    6  C   UNL     1      25.258  46.667  50.665  1.00  0.00     0.236 C 
HETATM    7  O   UNL     1      25.102  47.241  51.745  1.00  0.00    -0.272 OA
HETATM    8  H   UNL     1      24.503  46.489  48.695  1.00  0.00     0.190 HD
BRANCH   6   9
HETATM    9  C   UNL     1      26.415  45.711  50.444  1.00  0.00     0.109 C 
BRANCH   9  10
HETATM   10  C   UNL     1      26.206  44.260  50.862  1.00  0.00     0.051 C 
BRANCH  10  11
HETATM   11  C   UNL     1      27.134  43.792  51.927  1.00  0.00    -0.021 A 
HETATM   12  C   UNL     1      27.705  44.531  52.943  1.00  0.00     0.127 A 
HETATM   13  N   UNL     1      28.525  43.687  53.666  1.00  0.00    -0.245 N 
HETATM   14  N   UNL     1      28.485  42.427  53.160  1.00  0.00    -0.180 NA
HETATM   15  C   UNL     1      27.660  42.500  52.118  1.00  0.00     0.147 A 
BRANCH  13  16
HETATM   16  C   UNL     1      29.345  44.003  54.785  1.00  0.00     0.058 A 
HETATM   17  C   UNL     1      29.202  45.215  55.475  1.00  0.00     0.031 A 
HETATM   18  C   UNL     1      30.033  45.505  56.561  1.00  0.00     0.002 A 
HETATM   19  C   UNL     1      31.005  44.592  56.965  1.00  0.00     0.000 A 
HETATM   20  C   UNL     1      31.151  43.384  56.288  1.00  0.00     0.002 A 
HETATM   21  C   UNL     1      30.325  43.088  55.201  1.00  0.00     0.031 A 
ENDBRANCH  13  16
ENDBRANCH  10  11
ENDBRANCH   9  10
ENDBRANCH   6   9
ENDBRANCH   2   5
BRANCH   1  22
HETATM   22  C   UNL     1      22.088  49.664  49.376  1.00  0.00     0.121 A 
HETATM   23  N   UNL     1      21.940  50.533  50.420  1.00  0.00    -0.272 N 
HETATM   24  N   UNL     1      20.812  51.260  50.376  1.00  0.00    -0.174 NA
HETATM   25  H   UNL     1      22.598  50.697  51.177  1.00  0.00     0.189 HD
HETATM   26  C   UNL     1      20.168  50.817  49.286  1.00  0.00     0.089 A 
HETATM   27  C   UNL     1      20.926  49.800  48.642  1.00  0.00     0.071 A 
BRANCH  26  28
HETATM   28  C   UNL     1      18.895  51.386  48.843  1.00  0.00    -0.005 A 
HETATM   29  C   UNL     1      18.527  51.331  47.492  1.00  0.00     0.016 A 
HETATM   30  C   UNL     1      17.273  51.793  47.070  1.00  0.00     0.037 A 
HETATM   31  C   UNL     1      16.377  52.322  47.997  1.00  0.00     0.068 A 
HETATM   32  C   UNL     1      16.757  52.426  49.336  1.00  0.00     0.037 A 
HETATM   33  C   UNL     1      18.003  51.955  49.760  1.00  0.00     0.016 A 
BRANCH  31  34
HETATM   34  O   UNL     1      15.121  52.784  47.715  1.00  0.00    -0.356 OA
HETATM   35  C   UNL     1      14.895  53.188  46.369  1.00  0.00     0.210 C 
ENDBRANCH  31  34
ENDBRANCH  26  28
ENDBRANCH   1  22
TORSDOF 8
ENDMDL
MODEL 7
REMARK VINA RESULT:      -9.3      2.847     11.974
REMARK  8 active torsions:
REMARK  status: ('A' for Active; 'I' for Inactive)
REMARK    1  A    between atoms: O_2  and  C_3 
REMARK    2  A    between atoms: C_6  and  C_7 
REMARK    3  A    between atoms: C_11  and  C_12 
REMARK       I    between atoms: C_12  and  N_13 
REMARK    4  A    between atoms: N_13  and  N_14 
REMARK       I    between atoms: N_14  and  C_15 
REMARK    5  A    between atoms: C_15  and  C_16 
REMARK    6  A    between atoms: C_16  and  C_17 
REMARK    7  A    between atoms: C_17  and  C_18 
REMARK    8  A    between atoms: N_20  and  C_21 
ROOT
HETATM    1  C   UNL     1      25.495  44.752  50.185  1.00  0.00     0.288 C 
HETATM    2  N   UNL     1      24.195  44.406  50.481  1.00  0.00    -0.262 N 
HETATM    3  O   UNL     1      25.781  45.423  49.194  1.00  0.00    -0.264 OA
HETATM    4  H   UNL     1      23.925  43.823  51.269  1.00  0.00     0.190 HD
ENDROOT
BRANCH   2   5
HETATM    5  N   UNL     1      23.153  44.886  49.680  1.00  0.00    -0.267 N 
HETATM    6  C   UNL     1      22.430  43.959  48.965  1.00  0.00     0.236 C 
HETATM    7  O   UNL     1      22.603  42.748  49.120  1.00  0.00    -0.272 OA
HETATM    8  H   UNL     1      23.196  45.875  49.444  1.00  0.00     0.190 HD
BRANCH   6   9
HETATM    9  C   UNL     1      21.314  44.487  48.085  1.00  0.00     0.109 C 
BRANCH   9  10
HETATM   10  C   UNL     1      20.186  45.247  48.774  1.00  0.00     0.051 C 
BRANCH  10  11
HETATM   11  C   UNL     1      20.194  46.714  48.520  1.00  0.00    -0.021 A 
HETATM   12  C   UNL     1      19.373  47.677  49.069  1.00  0.00     0.127 A 
HETATM   13  N   UNL     1      19.720  48.892  48.512  1.00  0.00    -0.245 N 
HETATM   14  N   UNL     1      20.749  48.743  47.637  1.00  0.00    -0.180 NA
HETATM   15  C   UNL     1      21.020  47.441  47.641  1.00  0.00     0.147 A 
BRANCH  13  16
HETATM   16  C   UNL     1      19.133  50.167  48.745  1.00  0.00     0.058 A 
HETATM   17  C   UNL     1      19.655  51.328  48.159  1.00  0.00     0.031 A 
HETATM   18  C   UNL     1      19.066  52.569  48.419  1.00  0.00     0.002 A 
HETATM   19  C   UNL     1      17.958  52.659  49.260  1.00  0.00     0.000 A 
HETATM   20  C   UNL     1      17.431  51.509  49.842  1.00  0.00     0.002 A 
HETATM   21  C   UNL     1      18.014  50.266  49.587  1.00  0.00     0.031 A 
ENDBRANCH  13  16
ENDBRANCH  10  11
ENDBRANCH   9  10
ENDBRANCH   6   9
ENDBRANCH   2   5
BRANCH   1  22
HETATM   22  C   UNL     1      26.476  44.301  51.134  1.00  0.00     0.121 A 
HETATM   23  N   UNL     1      27.185  43.146  50.956  1.00  0.00    -0.272 N 
HETATM   24  N   UNL     1      28.125  42.928  51.890  1.00  0.00    -0.174 NA
HETATM   25  H   UNL     1      27.093  42.484  50.191  1.00  0.00     0.189 HD
HETATM   26  C   UNL     1      27.996  43.954  52.745  1.00  0.00     0.089 A 
HETATM   27  C   UNL     1      26.958  44.827  52.316  1.00  0.00     0.071 A 
BRANCH  26  28
HETATM   28  C   UNL     1      28.875  44.124  53.902  1.00  0.00    -0.005 A 
HETATM   29  C   UNL     1      28.684  45.197  54.784  1.00  0.00     0.016 A 
HETATM   30  C   UNL     1      29.462  45.320  55.942  1.00  0.00     0.037 A 
HETATM   31  C   UNL     1      30.445  44.373  56.227  1.00  0.00     0.068 A 
HETATM   32  C   UNL     1      30.673  43.331  55.328  1.00  0.00     0.037 A 
HETATM   33  C   UNL     1      29.890  43.200  54.177  1.00  0.00     0.016 A 
BRANCH  31  34
HETATM   34  O   UNL     1      31.250  44.371  57.332  1.00  0.00    -0.356 OA
HETATM   35  C   UNL     1      30.878  45.265  58.375  1.00  0.00     0.210 C 
ENDBRANCH  31  34
ENDBRANCH  26  28
ENDBRANCH   1  22
TORSDOF 8
ENDMDL
MODEL 8
REMARK VINA RESULT:      -8.9      3.548     11.180
REMARK  8 active torsions:
REMARK  status: ('A' for Active; 'I' for Inactive)
REMARK    1  A    between atoms: O_2  and  C_3 
REMARK    2  A    between atoms: C_6  and  C_7 
REMARK    3  A    between atoms: C_11  and  C_12 
REMARK       I    between atoms: C_12  and  N_13 
REMARK    4  A    between atoms: N_13  and  N_14 
REMARK       I    between atoms: N_14  and  C_15 
REMARK    5  A    between atoms: C_15  and  C_16 
REMARK    6  A    between atoms: C_16  and  C_17 
REMARK    7  A    between atoms: C_17  and  C_18 
REMARK    8  A    between atoms: N_20  and  C_21 
ROOT
HETATM    1  C   UNL     1      26.367  42.955  49.720  1.00  0.00     0.288 C 
HETATM    2  N   UNL     1      25.102  43.492  49.631  1.00  0.00    -0.262 N 
HETATM    3  O   UNL     1      26.978  42.558  48.729  1.00  0.00    -0.264 OA
HETATM    4  H   UNL     1      24.552  43.796  50.430  1.00  0.00     0.190 HD
ENDROOT
BRANCH   2   5
HETATM    5  N   UNL     1      24.512  43.666  48.373  1.00  0.00    -0.267 N 
HETATM    6  C   UNL     1      23.327  43.009  48.137  1.00  0.00     0.236 C 
HETATM    7  O   UNL     1      22.739  42.399  49.034  1.00  0.00    -0.272 OA
HETATM    8  H   UNL     1      25.131  43.999  47.637  1.00  0.00     0.190 HD
BRANCH   6   9
HETATM    9  C   UNL     1      22.702  43.185  46.767  1.00  0.00     0.109 C 
BRANCH   9  10
HETATM   10  C   UNL     1      21.287  43.750  46.716  1.00  0.00     0.051 C 
BRANCH  10  11
HETATM   11  C   UNL     1      21.142  45.088  47.351  1.00  0.00    -0.021 A 
HETATM   12  C   UNL     1      21.920  46.211  47.157  1.00  0.00     0.127 A 
HETATM   13  N   UNL     1      21.436  47.205  47.985  1.00  0.00    -0.245 N 
HETATM   14  N   UNL     1      20.362  46.764  48.690  1.00  0.00    -0.180 NA
HETATM   15  C   UNL     1      20.198  45.499  48.312  1.00  0.00     0.147 A 
BRANCH  13  16
HETATM   16  C   UNL     1      21.934  48.527  48.157  1.00  0.00     0.058 A 
HETATM   17  C   UNL     1      23.303  48.774  48.328  1.00  0.00     0.031 A 
HETATM   18  C   UNL     1      23.761  50.082  48.510  1.00  0.00     0.002 A 
HETATM   19  C   UNL     1      22.862  51.147  48.521  1.00  0.00     0.000 A 
HETATM   20  C   UNL     1      21.501  50.910  48.347  1.00  0.00     0.002 A 
HETATM   21  C   UNL     1      21.036  49.606  48.165  1.00  0.00     0.031 A 
ENDBRANCH  13  16
ENDBRANCH  10  11
ENDBRANCH   9  10
ENDBRANCH   6   9
ENDBRANCH   2   5
BRANCH   1  22
HETATM   22  C   UNL     1      26.922  42.926  51.046  1.00  0.00     0.121 A 
HETATM   23  N   UNL     1      26.971  41.782  51.792  1.00  0.00    -0.272 N 
HETATM   24  N   UNL     1      27.609  41.916  52.966  1.00  0.00    -0.174 NA
HETATM   25  H   UNL     1      26.615  40.867  51.531  1.00  0.00     0.189 HD
HETATM   26  C   UNL     1      27.950  43.213  53.018  1.00  0.00     0.089 A 
HETATM   27  C   UNL     1      27.519  43.885  51.841  1.00  0.00     0.071 A 
BRANCH  26  28
HETATM   28  C   UNL     1      28.713  43.778  54.130  1.00  0.00    -0.005 A 
HETATM   29  C   UNL     1      29.878  43.144  54.584  1.00  0.00     0.016 A 
HETATM   30  C   UNL     1      30.664  43.722  55.588  1.00  0.00     0.037 A 
HETATM   31  C   UNL     1      30.289  44.939  56.156  1.00  0.00     0.068 A 
HETATM   32  C   UNL     1      29.104  45.549  55.744  1.00  0.00     0.037 A 
HETATM   33  C   UNL     1      28.324  44.980  54.734  1.00  0.00     0.016 A 
BRANCH  31  34
HETATM   34  O   UNL     1      30.981  45.612  57.124  1.00  0.00    -0.356 OA
HETATM   35  C   UNL     1      30.358  45.677  58.402  1.00  0.00     0.210 C 
ENDBRANCH  31  34
ENDBRANCH  26  28
ENDBRANCH   1  22
TORSDOF 8
ENDMDL
MODEL 9
REMARK VINA RESULT:      -8.8      1.576      1.990
REMARK  8 active torsions:
REMARK  status: ('A' for Active; 'I' for Inactive)
REMARK    1  A    between atoms: O_2  and  C_3 
REMARK    2  A    between atoms: C_6  and  C_7 
REMARK    3  A    between atoms: C_11  and  C_12 
REMARK       I    between atoms: C_12  and  N_13 
REMARK    4  A    between atoms: N_13  and  N_14 
REMARK       I    between atoms: N_14  and  C_15 
REMARK    5  A    between atoms: C_15  and  C_16 
REMARK    6  A    between atoms: C_16  and  C_17 
REMARK    7  A    between atoms: C_17  and  C_18 
REMARK    8  A    between atoms: N_20  and  C_21 
ROOT
HETATM    1  C   UNL     1      23.356  45.477  48.876  1.00  0.00     0.288 C 
HETATM    2  N   UNL     1      24.002  45.572  50.089  1.00  0.00    -0.262 N 
HETATM    3  O   UNL     1      23.775  44.757  47.971  1.00  0.00    -0.264 OA
HETATM    4  H   UNL     1      23.707  46.184  50.846  1.00  0.00     0.190 HD
ENDROOT
BRANCH   2   5
HETATM    5  N   UNL     1      25.125  44.776  50.338  1.00  0.00    -0.267 N 
HETATM    6  C   UNL     1      24.937  43.640  51.091  1.00  0.00     0.236 C 
HETATM    7  O   UNL     1      23.810  43.266  51.423  1.00  0.00    -0.272 OA
HETATM    8  H   UNL     1      26.026  45.233  50.218  1.00  0.00     0.190 HD
BRANCH   6   9
HETATM    9  C   UNL     1      26.161  42.790  51.373  1.00  0.00     0.109 C 
BRANCH   9  10
HETATM   10  C   UNL     1      27.515  43.490  51.342  1.00  0.00     0.051 C 
BRANCH  10  11
HETATM   11  C   UNL     1      27.922  44.091  52.641  1.00  0.00    -0.021 A 
HETATM   12  C   UNL     1      28.969  43.720  53.459  1.00  0.00     0.127 A 
HETATM   13  N   UNL     1      28.939  44.534  54.575  1.00  0.00    -0.245 N 
HETATM   14  N   UNL     1      27.919  45.428  54.491  1.00  0.00    -0.180 NA
HETATM   15  C   UNL     1      27.313  45.152  53.339  1.00  0.00     0.147 A 
BRANCH  13  16
HETATM   16  C   UNL     1      29.799  44.506  55.708  1.00  0.00     0.058 A 
HETATM   17  C   UNL     1      29.737  45.498  56.696  1.00  0.00     0.031 A 
HETATM   18  C   UNL     1      30.606  45.453  57.790  1.00  0.00     0.002 A 
HETATM   19  C   UNL     1      31.537  44.423  57.906  1.00  0.00     0.000 A 
HETATM   20  C   UNL     1      31.602  43.430  56.931  1.00  0.00     0.002 A 
HETATM   21  C   UNL     1      30.737  43.469  55.835  1.00  0.00     0.031 A 
ENDBRANCH  13  16
ENDBRANCH  10  11
ENDBRANCH   9  10
ENDBRANCH   6   9
ENDBRANCH   2   5
BRANCH   1  22
HETATM   22  C   UNL     1      22.151  46.252  48.766  1.00  0.00     0.121 A 
HETATM   23  N   UNL     1      20.912  45.675  48.740  1.00  0.00    -0.272 N 
HETATM   24  N   UNL     1      19.896  46.553  48.732  1.00  0.00    -0.174 NA
HETATM   25  H   UNL     1      20.700  44.682  48.763  1.00  0.00     0.189 HD
HETATM   26  C   UNL     1      20.489  47.756  48.701  1.00  0.00     0.089 A 
HETATM   27  C   UNL     1      21.904  47.609  48.700  1.00  0.00     0.071 A 
BRANCH  26  28
HETATM   28  C   UNL     1      19.729  49.005  48.728  1.00  0.00    -0.005 A 
HETATM   29  C   UNL     1      20.200  50.136  48.048  1.00  0.00     0.016 A 
HETATM   30  C   UNL     1      19.438  51.310  47.993  1.00  0.00     0.037 A 
HETATM   31  C   UNL     1      18.196  51.366  48.624  1.00  0.00     0.068 A 
HETATM   32  C   UNL     1      17.744  50.260  49.344  1.00  0.00     0.037 A 
HETATM   33  C   UNL     1      18.498  49.084  49.391  1.00  0.00     0.016 A 
BRANCH  31  34
HETATM   34  O   UNL     1      17.352  52.442  48.624  1.00  0.00    -0.356 OA
HETATM   35  C   UNL     1      16.856  52.843  49.896  1.00  0.00     0.210 C 
ENDBRANCH  31  34
ENDBRANCH  26  28
ENDBRANCH   1  22
TORSDOF 8
ENDMDL
MODEL 10
REMARK VINA RESULT:      -8.8      2.907     12.173
REMARK  8 active torsions:
REMARK  status: ('A' for Active; 'I' for Inactive)
REMARK    1  A    between atoms: O_2  and  C_3 
REMARK    2  A    between atoms: C_6  and  C_7 
REMARK    3  A    between atoms: C_11  and  C_12 
REMARK       I    between atoms: C_12  and  N_13 
REMARK    4  A    between atoms: N_13  and  N_14 
REMARK       I    between atoms: N_14  and  C_15 
REMARK    5  A    between atoms: C_15  and  C_16 
REMARK    6  A    between atoms: C_16  and  C_17 
REMARK    7  A    between atoms: C_17  and  C_18 
REMARK    8  A    between atoms: N_20  and  C_21 
ROOT
HETATM    1  C   UNL     1      24.356  46.960  50.464  1.00  0.00     0.288 C 
HETATM    2  N   UNL     1      23.516  46.176  49.704  1.00  0.00    -0.262 N 
HETATM    3  O   UNL     1      24.432  48.177  50.304  1.00  0.00    -0.264 OA
HETATM    4  H   UNL     1      23.453  45.164  49.783  1.00  0.00     0.190 HD
ENDROOT
BRANCH   2   5
HETATM    5  N   UNL     1      22.666  46.778  48.769  1.00  0.00    -0.267 N 
HETATM    6  C   UNL     1      21.574  46.053  48.353  1.00  0.00     0.236 C 
HETATM    7  O   UNL     1      21.280  44.974  48.873  1.00  0.00    -0.272 OA
HETATM    8  H   UNL     1      23.065  47.553  48.245  1.00  0.00     0.190 HD
BRANCH   6   9
HETATM    9  C   UNL     1      20.667  46.702  47.326  1.00  0.00     0.109 C 
BRANCH   9  10
HETATM   10  C   UNL     1      19.221  46.223  47.274  1.00  0.00     0.051 C 
BRANCH  10  11
HETATM   11  C   UNL     1      18.226  47.235  47.722  1.00  0.00    -0.021 A 
HETATM   12  C   UNL     1      18.442  48.564  48.024  1.00  0.00     0.127 A 
HETATM   13  N   UNL     1      17.237  49.104  48.430  1.00  0.00    -0.245 N 
HETATM   14  N   UNL     1      16.251  48.171  48.379  1.00  0.00    -0.180 NA
HETATM   15  C   UNL     1      16.850  47.058  47.964  1.00  0.00     0.147 A 
BRANCH  13  16
HETATM   16  C   UNL     1      16.971  50.431  48.870  1.00  0.00     0.058 A 
HETATM   17  C   UNL     1      15.723  51.033  48.658  1.00  0.00     0.031 A 
HETATM   18  C   UNL     1      15.496  52.343  49.088  1.00  0.00     0.002 A 
HETATM   19  C   UNL     1      16.506  53.057  49.730  1.00  0.00     0.000 A 
HETATM   20  C   UNL     1      17.747  52.464  49.949  1.00  0.00     0.002 A 
HETATM   21  C   UNL     1      17.981  51.155  49.522  1.00  0.00     0.031 A 
ENDBRANCH  13  16
ENDBRANCH  10  11
ENDBRANCH   9  10
ENDBRANCH   6   9
ENDBRANCH   2   5
BRANCH   1  22
HETATM   22  C   UNL     1      25.101  46.254  51.471  1.00  0.00     0.121 A 
HETATM   23  N   UNL     1      24.975  44.907  51.661  1.00  0.00    -0.272 N 
HETATM   24  N   UNL     1      25.817  44.399  52.576  1.00  0.00    -0.174 NA
HETATM   25  H   UNL     1      24.353  44.275  51.165  1.00  0.00     0.189 HD
HETATM   26  C   UNL     1      26.488  45.462  53.043  1.00  0.00     0.089 A 
HETATM   27  C   UNL     1      26.054  46.648  52.389  1.00  0.00     0.071 A 
BRANCH  26  28
HETATM   28  C   UNL     1      27.550  45.340  54.041  1.00  0.00    -0.005 A 
HETATM   29  C   UNL     1      28.356  44.194  54.082  1.00  0.00     0.016 A 
HETATM   30  C   UNL     1      29.431  44.104  54.975  1.00  0.00     0.037 A 
HETATM   31  C   UNL     1      29.709  45.159  55.842  1.00  0.00     0.068 A 
HETATM   32  C   UNL     1      28.881  46.282  55.841  1.00  0.00     0.037 A 
HETATM   33  C   UNL     1      27.814  46.378  54.943  1.00  0.00     0.016 A 
BRANCH  31  34
HETATM   34  O   UNL     1      30.739  45.200  56.740  1.00  0.00    -0.356 OA
HETATM   35  C   UNL     1      30.490  45.925  57.939  1.00  0.00     0.210 C 
ENDBRANCH  31  34
ENDBRANCH  26  28
ENDBRANCH   1  22
TORSDOF 8
ENDMDL
