MODEL 1
REMARK VINA RESULT:      -8.4      0.000      0.000
REMARK  6 active torsions:
REMARK  status: ('A' for Active; 'I' for Inactive)
REMARK    1  A    between atoms: C_2  and  C_3 
REMARK    2  A    between atoms: C_5  and  N_6 
REMARK       I    between atoms: N_6  and  C_7 
REMARK       I    between atoms: C_7  and  N_8 
REMARK    3  A    between atoms: N_8  and  C_9 
REMARK    4  A    between atoms: C_9  and  C_10 
REMARK    5  A    between atoms: C_10  and  N_11 
REMARK    6  A    between atoms: C_18  and  O_19 
ROOT
HETATM    1  N   UNL     1      25.665  46.184  52.648  1.00  0.00    -0.306 N 
HETATM    2  C   UNL     1      24.840  45.334  51.974  1.00  0.00     0.320 C 
HETATM    3  N   UNL     1      24.075  45.912  50.999  1.00  0.00    -0.341 N 
HETATM    4  O   UNL     1      24.708  44.129  52.168  1.00  0.00    -0.247 OA
HETATM    5  H   UNL     1      25.389  47.158  52.676  1.00  0.00     0.171 HD
HETATM    6  H   UNL     1      23.519  45.196  50.545  1.00  0.00     0.164 HD
ENDROOT
BRANCH   1   7
HETATM    7  C   UNL     1      26.678  45.851  53.574  1.00  0.00     0.070 A 
HETATM    8  C   UNL     1      27.480  44.712  53.442  1.00  0.00     0.040 A 
HETATM    9  C   UNL     1      28.513  44.421  54.358  1.00  0.00    -0.048 A 
HETATM   10  C   UNL     1      28.704  45.321  55.417  1.00  0.00     0.011 A 
HETATM   11  C   UNL     1      27.910  46.468  55.557  1.00  0.00     0.039 A 
HETATM   12  C   UNL     1      26.900  46.743  54.636  1.00  0.00     0.095 A 
BRANCH   9  13
HETATM   13  C   UNL     1      29.388  43.171  54.156  1.00  0.00    -0.024 C 
HETATM   14  C   UNL     1      28.494  41.911  54.192  1.00  0.00     0.019 C 
HETATM   15  C   UNL     1      30.445  43.077  55.278  1.00  0.00     0.019 C 
HETATM   16  C   UNL     1      30.148  43.154  52.811  1.00  0.00     0.019 C 
ENDBRANCH   9  13
BRANCH  12  17
HETATM   17  O   UNL     1      26.072  47.841  54.676  1.00  0.00    -0.354 OA
HETATM   18  C   UNL     1      26.213  48.716  55.788  1.00  0.00     0.210 C 
ENDBRANCH  12  17
ENDBRANCH   1   7
BRANCH   3  19
HETATM   19  C   UNL     1      24.462  47.050  50.171  1.00  0.00     0.146 C 
BRANCH  19  20
HETATM   20  C   UNL     1      23.449  47.321  49.065  1.00  0.00     0.170 C 
BRANCH  20  21
HETATM   21  N   UNL     1      22.958  48.685  49.106  1.00  0.00    -0.278 N 
HETATM   22  N   UNL     1      23.822  49.703  49.300  1.00  0.00    -0.184 NA
HETATM   23  C   UNL     1      23.041  50.788  49.245  1.00  0.00     0.164 A 
HETATM   24  C   UNL     1      21.691  50.463  49.030  1.00  0.00     0.070 A 
HETATM   25 CL   UNL     1      20.398  51.544  48.903  1.00  0.00    -0.081 Cl
HETATM   26  C   UNL     1      21.664  49.092  48.947  1.00  0.00     0.137 A 
ENDBRANCH  20  21
ENDBRANCH  19  20
ENDBRANCH   3  19
TORSDOF 6
ENDMDL
MODEL 2
REMARK VINA RESULT:      -8.2      3.519      4.633
REMARK  6 active torsions:
REMARK  status: ('A' for Active; 'I' for Inactive)
REMARK    1  A    between atoms: C_2  and  C_3 
REMARK    2  A    between atoms: C_5  and  N_6 
REMARK       I    between atoms: N_6  and  C_7 
REMARK       I    between atoms: C_7  and  N_8 
REMARK    3  A    between atoms: N_8  and  C_9 
REMARK    4  A    between atoms: C_9  and  C_10 
REMARK    5  A    between atoms: C_10  and  N_11 
REMARK    6  A    between atoms: C_18  and  O_19 
ROOT
HETATM    1  N   UNL     1      26.010  45.867  52.600  1.00  0.00    -0.306 N 
HETATM    2  C   UNL     1      24.905  45.096  52.396  1.00  0.00     0.320 C 
HETATM    3  N   UNL     1      24.167  45.414  51.290  1.00  0.00    -0.341 N 
HETATM    4  O   UNL     1      24.506  44.179  53.107  1.00  0.00    -0.247 OA
HETATM    5  H   UNL     1      25.996  46.798  52.202  1.00  0.00     0.171 HD
HETATM    6  H   UNL     1      23.386  44.772  51.216  1.00  0.00     0.164 HD
ENDROOT
BRANCH   1   7
HETATM    7  C   UNL     1      27.039  45.667  53.547  1.00  0.00     0.070 A 
HETATM    8  C   UNL     1      27.851  44.528  53.555  1.00  0.00     0.040 A 
HETATM    9  C   UNL     1      28.899  44.370  54.486  1.00  0.00    -0.048 A 
HETATM   10  C   UNL     1      29.094  45.402  55.415  1.00  0.00     0.011 A 
HETATM   11  C   UNL     1      28.289  46.550  55.414  1.00  0.00     0.039 A 
HETATM   12  C   UNL     1      27.264  46.693  54.480  1.00  0.00     0.095 A 
BRANCH   9  13
HETATM   13  C   UNL     1      29.784  43.111  54.438  1.00  0.00    -0.024 C 
HETATM   14  C   UNL     1      28.889  41.854  54.508  1.00  0.00     0.019 C 
HETATM   15  C   UNL     1      30.763  43.106  55.632  1.00  0.00     0.019 C 
HETATM   16  C   UNL     1      30.633  42.997  53.152  1.00  0.00     0.019 C 
ENDBRANCH   9  13
BRANCH  12  17
HETATM   17  O   UNL     1      26.425  47.779  54.386  1.00  0.00    -0.354 OA
HETATM   18  C   UNL     1      26.252  48.564  55.560  1.00  0.00     0.210 C 
ENDBRANCH  12  17
ENDBRANCH   1   7
BRANCH   3  19
HETATM   19  C   UNL     1      24.693  45.936  50.032  1.00  0.00     0.146 C 
BRANCH  19  20
HETATM   20  C   UNL     1      24.917  44.832  49.005  1.00  0.00     0.170 C 
BRANCH  20  21
HETATM   21  N   UNL     1      25.480  43.640  49.608  1.00  0.00    -0.278 N 
HETATM   22  N   UNL     1      24.675  42.606  49.927  1.00  0.00    -0.184 NA
HETATM   23  C   UNL     1      25.521  41.692  50.416  1.00  0.00     0.164 A 
HETATM   24  C   UNL     1      26.851  42.145  50.419  1.00  0.00     0.070 A 
HETATM   25 CL   UNL     1      28.208  41.294  50.957  1.00  0.00    -0.081 Cl
HETATM   26  C   UNL     1      26.796  43.413  49.893  1.00  0.00     0.137 A 
ENDBRANCH  20  21
ENDBRANCH  19  20
ENDBRANCH   3  19
TORSDOF 6
ENDMDL
MODEL 3
REMARK VINA RESULT:      -8.2      3.775      8.795
REMARK  6 active torsions:
REMARK  status: ('A' for Active; 'I' for Inactive)
REMARK    1  A    between atoms: C_2  and  C_3 
REMARK    2  A    between atoms: C_5  and  N_6 
REMARK       I    between atoms: N_6  and  C_7 
REMARK       I    between atoms: C_7  and  N_8 
REMARK    3  A    between atoms: N_8  and  C_9 
REMARK    4  A    between atoms: C_9  and  C_10 
REMARK    5  A    between atoms: C_10  and  N_11 
REMARK    6  A    between atoms: C_18  and  O_19 
ROOT
HETATM    1  N   UNL     1      25.079  46.979  49.899  1.00  0.00    -0.306 N 
HETATM    2  C   UNL     1      25.528  46.786  51.171  1.00  0.00     0.320 C 
HETATM    3  N   UNL     1      26.164  45.596  51.393  1.00  0.00    -0.341 N 
HETATM    4  O   UNL     1      25.402  47.554  52.120  1.00  0.00    -0.247 OA
HETATM    5  H   UNL     1      24.887  46.147  49.354  1.00  0.00     0.171 HD
HETATM    6  H   UNL     1      26.478  45.562  52.356  1.00  0.00     0.164 HD
ENDROOT
BRANCH   1   7
HETATM    7  C   UNL     1      24.547  48.162  49.341  1.00  0.00     0.070 A 
HETATM    8  C   UNL     1      23.201  48.522  49.471  1.00  0.00     0.040 A 
HETATM    9  C   UNL     1      22.701  49.729  48.939  1.00  0.00    -0.048 A 
HETATM   10  C   UNL     1      23.609  50.559  48.266  1.00  0.00     0.011 A 
HETATM   11  C   UNL     1      24.961  50.212  48.134  1.00  0.00     0.039 A 
HETATM   12  C   UNL     1      25.439  49.019  48.675  1.00  0.00     0.095 A 
BRANCH   9  13
HETATM   13  C   UNL     1      21.218  50.096  49.131  1.00  0.00    -0.024 C 
HETATM   14  C   UNL     1      21.068  50.974  50.393  1.00  0.00     0.019 C 
HETATM   15  C   UNL     1      20.374  48.814  49.300  1.00  0.00     0.019 C 
HETATM   16  C   UNL     1      20.614  50.886  47.949  1.00  0.00     0.019 C 
ENDBRANCH   9  13
BRANCH  12  17
HETATM   17  O   UNL     1      26.743  48.587  48.610  1.00  0.00    -0.354 OA
HETATM   18  C   UNL     1      27.747  49.501  49.037  1.00  0.00     0.210 C 
ENDBRANCH  12  17
ENDBRANCH   1   7
BRANCH   3  19
HETATM   19  C   UNL     1      26.975  44.867  50.424  1.00  0.00     0.146 C 
BRANCH  19  20
HETATM   20  C   UNL     1      27.318  43.462  50.908  1.00  0.00     0.170 C 
BRANCH  20  21
HETATM   21  N   UNL     1      27.860  43.472  52.252  1.00  0.00    -0.278 N 
HETATM   22  N   UNL     1      27.027  43.532  53.311  1.00  0.00    -0.184 NA
HETATM   23  C   UNL     1      27.855  43.488  54.361  1.00  0.00     0.164 A 
HETATM   24  C   UNL     1      29.203  43.413  53.974  1.00  0.00     0.070 A 
HETATM   25 CL   UNL     1      30.547  43.342  54.997  1.00  0.00    -0.081 Cl
HETATM   26  C   UNL     1      29.179  43.407  52.601  1.00  0.00     0.137 A 
ENDBRANCH  20  21
ENDBRANCH  19  20
ENDBRANCH   3  19
TORSDOF 6
ENDMDL
MODEL 4
REMARK VINA RESULT:      -7.8      3.950      8.783
REMARK  6 active torsions:
REMARK  status: ('A' for Active; 'I' for Inactive)
REMARK    1  A    between atoms: C_2  and  C_3 
REMARK    2  A    between atoms: C_5  and  N_6 
REMARK       I    between atoms: N_6  and  C_7 
REMARK       I    between atoms: C_7  and  N_8 
REMARK    3  A    between atoms: N_8  and  C_9 
REMARK    4  A    between atoms: C_9  and  C_10 
REMARK    5  A    between atoms: C_10  and  N_11 
REMARK    6  A    between atoms: C_18  and  O_19 
ROOT
HETATM    1  N   UNL     1      22.718  47.244  48.930  1.00  0.00    -0.306 N 
HETATM    2  C   UNL     1      22.548  46.267  47.994  1.00  0.00     0.320 C 
HETATM    3  N   UNL     1      22.811  44.996  48.423  1.00  0.00    -0.341 N 
HETATM    4  O   UNL     1      22.209  46.420  46.825  1.00  0.00    -0.247 OA
HETATM    5  H   UNL     1      23.364  47.044  49.684  1.00  0.00     0.171 HD
HETATM    6  H   UNL     1      22.633  44.347  47.665  1.00  0.00     0.164 HD
ENDROOT
BRANCH   1   7
HETATM    7  C   UNL     1      22.363  48.607  48.828  1.00  0.00     0.070 A 
HETATM    8  C   UNL     1      21.034  49.046  48.815  1.00  0.00     0.040 A 
HETATM    9  C   UNL     1      20.705  50.416  48.753  1.00  0.00    -0.048 A 
HETATM   10  C   UNL     1      21.768  51.330  48.700  1.00  0.00     0.011 A 
HETATM   11  C   UNL     1      23.103  50.903  48.718  1.00  0.00     0.039 A 
HETATM   12  C   UNL     1      23.409  49.545  48.788  1.00  0.00     0.095 A 
BRANCH   9  13
HETATM   13  C   UNL     1      19.228  50.851  48.770  1.00  0.00    -0.024 C 
HETATM   14  C   UNL     1      18.618  50.534  50.153  1.00  0.00     0.019 C 
HETATM   15  C   UNL     1      18.441  50.092  47.679  1.00  0.00     0.019 C 
HETATM   16  C   UNL     1      19.021  52.360  48.514  1.00  0.00     0.019 C 
ENDBRANCH   9  13
BRANCH  12  17
HETATM   17  O   UNL     1      24.680  49.021  48.820  1.00  0.00    -0.354 OA
HETATM   18  C   UNL     1      25.703  49.770  48.174  1.00  0.00     0.210 C 
ENDBRANCH  12  17
ENDBRANCH   1   7
BRANCH   3  19
HETATM   19  C   UNL     1      22.592  44.486  49.773  1.00  0.00     0.146 C 
BRANCH  19  20
HETATM   20  C   UNL     1      23.874  43.941  50.392  1.00  0.00     0.170 C 
BRANCH  20  21
HETATM   21  N   UNL     1      24.535  44.929  51.222  1.00  0.00    -0.278 N 
HETATM   22  N   UNL     1      24.706  46.186  50.762  1.00  0.00    -0.184 NA
HETATM   23  C   UNL     1      25.303  46.812  51.782  1.00  0.00     0.164 A 
HETATM   24  C   UNL     1      25.523  45.959  52.877  1.00  0.00     0.070 A 
HETATM   25 CL   UNL     1      26.249  46.366  54.347  1.00  0.00    -0.081 Cl
HETATM   26  C   UNL     1      25.018  44.742  52.486  1.00  0.00     0.137 A 
ENDBRANCH  20  21
ENDBRANCH  19  20
ENDBRANCH   3  19
TORSDOF 6
ENDMDL
MODEL 5
REMARK VINA RESULT:      -7.8      2.747      4.118
REMARK  6 active torsions:
REMARK  status: ('A' for Active; 'I' for Inactive)
REMARK    1  A    between atoms: C_2  and  C_3 
REMARK    2  A    between atoms: C_5  and  N_6 
REMARK       I    between atoms: N_6  and  C_7 
REMARK       I    between atoms: C_7  and  N_8 
REMARK    3  A    between atoms: N_8  and  C_9 
REMARK    4  A    between atoms: C_9  and  C_10 
REMARK    5  A    between atoms: C_10  and  N_11 
REMARK    6  A    between atoms: C_18  and  O_19 
ROOT
HETATM    1  N   UNL     1      26.587  44.700  52.477  1.00  0.00    -0.306 N 
HETATM    2  C   UNL     1      25.303  44.568  52.915  1.00  0.00     0.320 C 
HETATM    3  N   UNL     1      24.338  44.928  52.014  1.00  0.00    -0.341 N 
HETATM    4  O   UNL     1      24.938  44.186  54.022  1.00  0.00    -0.247 OA
HETATM    5  H   UNL     1      26.750  45.379  51.744  1.00  0.00     0.171 HD
HETATM    6  H   UNL     1      23.425  44.772  52.425  1.00  0.00     0.164 HD
ENDROOT
BRANCH   1   7
HETATM    7  C   UNL     1      27.765  44.252  53.113  1.00  0.00     0.070 A 
HETATM    8  C   UNL     1      28.292  44.870  54.254  1.00  0.00     0.040 A 
HETATM    9  C   UNL     1      29.449  44.380  54.895  1.00  0.00    -0.048 A 
HETATM   10  C   UNL     1      30.059  43.246  54.341  1.00  0.00     0.011 A 
HETATM   11  C   UNL     1      29.538  42.616  53.202  1.00  0.00     0.039 A 
HETATM   12  C   UNL     1      28.388  43.109  52.587  1.00  0.00     0.095 A 
BRANCH   9  13
HETATM   13  C   UNL     1      29.975  45.076  56.164  1.00  0.00    -0.024 C 
HETATM   14  C   UNL     1      30.816  46.307  55.759  1.00  0.00     0.019 C 
HETATM   15  C   UNL     1      30.857  44.102  56.976  1.00  0.00     0.019 C 
HETATM   16  C   UNL     1      28.859  45.576  57.108  1.00  0.00     0.019 C 
ENDBRANCH   9  13
BRANCH  12  17
HETATM   17  O   UNL     1      27.791  42.563  51.474  1.00  0.00    -0.354 OA
HETATM   18  C   UNL     1      27.500  41.171  51.515  1.00  0.00     0.210 C 
ENDBRANCH  12  17
ENDBRANCH   1   7
BRANCH   3  19
HETATM   19  C   UNL     1      24.426  44.783  50.565  1.00  0.00     0.146 C 
BRANCH  19  20
HETATM   20  C   UNL     1      24.097  46.083  49.840  1.00  0.00     0.170 C 
BRANCH  20  21
HETATM   21  N   UNL     1      25.274  46.908  49.650  1.00  0.00    -0.278 N 
HETATM   22  N   UNL     1      26.501  46.367  49.788  1.00  0.00    -0.184 NA
HETATM   23  C   UNL     1      27.324  47.386  49.513  1.00  0.00     0.164 A 
HETATM   24  C   UNL     1      26.625  48.568  49.214  1.00  0.00     0.070 A 
HETATM   25 CL   UNL     1      27.298  50.067  48.817  1.00  0.00    -0.081 Cl
HETATM   26  C   UNL     1      25.298  48.231  49.313  1.00  0.00     0.137 A 
ENDBRANCH  20  21
ENDBRANCH  19  20
ENDBRANCH   3  19
TORSDOF 6
ENDMDL
MODEL 6
REMARK VINA RESULT:      -7.5      3.408      8.650
REMARK  6 active torsions:
REMARK  status: ('A' for Active; 'I' for Inactive)
REMARK    1  A    between atoms: C_2  and  C_3 
REMARK    2  A    between atoms: C_5  and  N_6 
REMARK       I    between atoms: N_6  and  C_7 
REMARK       I    between atoms: C_7  and  N_8 
REMARK    3  A    between atoms: N_8  and  C_9 
REMARK    4  A    between atoms: C_9  and  C_10 
REMARK    5  A    between atoms: C_10  and  N_11 
REMARK    6  A    between atoms: C_18  and  O_19 
ROOT
HETATM    1  N   UNL     1      24.283  47.191  49.828  1.00  0.00    -0.306 N 
HETATM    2  C   UNL     1      23.976  45.899  49.523  1.00  0.00     0.320 C 
HETATM    3  N   UNL     1      24.462  44.962  50.392  1.00  0.00    -0.341 N 
HETATM    4  O   UNL     1      23.336  45.505  48.553  1.00  0.00    -0.247 OA
HETATM    5  H   UNL     1      25.116  47.342  50.384  1.00  0.00     0.171 HD
HETATM    6  H   UNL     1      24.160  44.042  50.091  1.00  0.00     0.164 HD
ENDROOT
BRANCH   1   7
HETATM    7  C   UNL     1      23.783  48.364  49.221  1.00  0.00     0.070 A 
HETATM    8  C   UNL     1      22.416  48.652  49.139  1.00  0.00     0.040 A 
HETATM    9  C   UNL     1      21.943  49.849  48.563  1.00  0.00    -0.048 A 
HETATM   10  C   UNL     1      22.900  50.745  48.066  1.00  0.00     0.011 A 
HETATM   11  C   UNL     1      24.273  50.470  48.146  1.00  0.00     0.039 A 
HETATM   12  C   UNL     1      24.722  49.286  48.728  1.00  0.00     0.095 A 
BRANCH   9  13
HETATM   13  C   UNL     1      20.430  50.134  48.522  1.00  0.00    -0.024 C 
HETATM   14  C   UNL     1      20.190  51.647  48.719  1.00  0.00     0.019 C 
HETATM   15  C   UNL     1      19.714  49.355  49.646  1.00  0.00     0.019 C 
HETATM   16  C   UNL     1      19.757  49.734  47.190  1.00  0.00     0.019 C 
ENDBRANCH   9  13
BRANCH  12  17
HETATM   17  O   UNL     1      26.042  48.923  48.864  1.00  0.00    -0.354 OA
HETATM   18  C   UNL     1      27.018  49.915  48.569  1.00  0.00     0.210 C 
ENDBRANCH  12  17
ENDBRANCH   1   7
BRANCH   3  19
HETATM   19  C   UNL     1      24.646  45.142  51.828  1.00  0.00     0.146 C 
BRANCH  19  20
HETATM   20  C   UNL     1      25.898  44.438  52.336  1.00  0.00     0.170 C 
BRANCH  20  21
HETATM   21  N   UNL     1      26.614  45.243  53.307  1.00  0.00    -0.278 N 
HETATM   22  N   UNL     1      26.172  46.481  53.607  1.00  0.00    -0.184 NA
HETATM   23  C   UNL     1      27.035  46.902  54.539  1.00  0.00     0.164 A 
HETATM   24  C   UNL     1      28.024  45.945  54.821  1.00  0.00     0.070 A 
HETATM   25 CL   UNL     1      29.289  46.094  55.931  1.00  0.00    -0.081 Cl
HETATM   26  C   UNL     1      27.730  44.879  54.006  1.00  0.00     0.137 A 
ENDBRANCH  20  21
ENDBRANCH  19  20
ENDBRANCH   3  19
TORSDOF 6
ENDMDL
MODEL 7
REMARK VINA RESULT:      -7.5     12.850     14.046
REMARK  6 active torsions:
REMARK  status: ('A' for Active; 'I' for Inactive)
REMARK    1  A    between atoms: C_2  and  C_3 
REMARK    2  A    between atoms: C_5  and  N_6 
REMARK       I    between atoms: N_6  and  C_7 
REMARK       I    between atoms: C_7  and  N_8 
REMARK    3  A    between atoms: N_8  and  C_9 
REMARK    4  A    between atoms: C_9  and  C_10 
REMARK    5  A    between atoms: C_10  and  N_11 
REMARK    6  A    between atoms: C_18  and  O_19 
ROOT
HETATM    1  N   UNL     1      32.764  49.984  40.570  1.00  0.00    -0.306 N 
HETATM    2  C   UNL     1      32.214  50.577  39.474  1.00  0.00     0.320 C 
HETATM    3  N   UNL     1      31.620  49.726  38.584  1.00  0.00    -0.341 N 
HETATM    4  O   UNL     1      32.219  51.775  39.206  1.00  0.00    -0.247 OA
HETATM    5  H   UNL     1      33.043  49.015  40.471  1.00  0.00     0.171 HD
HETATM    6  H   UNL     1      31.225  50.264  37.822  1.00  0.00     0.164 HD
ENDROOT
BRANCH   1   7
HETATM    7  C   UNL     1      33.284  50.612  41.723  1.00  0.00     0.070 A 
HETATM    8  C   UNL     1      34.598  51.089  41.798  1.00  0.00     0.040 A 
HETATM    9  C   UNL     1      35.083  51.750  42.946  1.00  0.00    -0.048 A 
HETATM   10  C   UNL     1      34.195  51.908  44.019  1.00  0.00     0.011 A 
HETATM   11  C   UNL     1      32.875  51.440  43.954  1.00  0.00     0.039 A 
HETATM   12  C   UNL     1      32.410  50.797  42.807  1.00  0.00     0.095 A 
BRANCH   9  13
HETATM   13  C   UNL     1      36.528  52.281  42.971  1.00  0.00    -0.024 C 
HETATM   14  C   UNL     1      37.510  51.090  42.996  1.00  0.00     0.019 C 
HETATM   15  C   UNL     1      36.750  53.151  44.228  1.00  0.00     0.019 C 
HETATM   16  C   UNL     1      36.893  53.149  41.746  1.00  0.00     0.019 C 
ENDBRANCH   9  13
BRANCH  12  17
HETATM   17  O   UNL     1      31.136  50.308  42.636  1.00  0.00    -0.354 OA
HETATM   18  C   UNL     1      30.945  48.916  42.855  1.00  0.00     0.210 C 
ENDBRANCH  12  17
ENDBRANCH   1   7
BRANCH   3  19
HETATM   19  C   UNL     1      30.934  48.482  38.918  1.00  0.00     0.146 C 
BRANCH  19  20
HETATM   20  C   UNL     1      29.430  48.580  38.685  1.00  0.00     0.170 C 
BRANCH  20  21
HETATM   21  N   UNL     1      28.910  49.882  39.054  1.00  0.00    -0.278 N 
HETATM   22  N   UNL     1      28.688  50.810  38.100  1.00  0.00    -0.184 NA
HETATM   23  C   UNL     1      28.189  51.846  38.785  1.00  0.00     0.164 A 
HETATM   24  C   UNL     1      28.107  51.584  40.163  1.00  0.00     0.070 A 
HETATM   25 CL   UNL     1      27.537  52.633  41.359  1.00  0.00    -0.081 Cl
HETATM   26  C   UNL     1      28.584  50.305  40.311  1.00  0.00     0.137 A 
ENDBRANCH  20  21
ENDBRANCH  19  20
ENDBRANCH   3  19
TORSDOF 6
ENDMDL
MODEL 8
REMARK VINA RESULT:      -7.5      5.035      8.232
REMARK  6 active torsions:
REMARK  status: ('A' for Active; 'I' for Inactive)
REMARK    1  A    between atoms: C_2  and  C_3 
REMARK    2  A    between atoms: C_5  and  N_6 
REMARK       I    between atoms: N_6  and  C_7 
REMARK       I    between atoms: C_7  and  N_8 
REMARK    3  A    between atoms: N_8  and  C_9 
REMARK    4  A    between atoms: C_9  and  C_10 
REMARK    5  A    between atoms: C_10  and  N_11 
REMARK    6  A    between atoms: C_18  and  O_19 
ROOT
HETATM    1  N   UNL     1      26.659  44.095  53.011  1.00  0.00    -0.306 N 
HETATM    2  C   UNL     1      25.848  44.552  54.006  1.00  0.00     0.320 C 
HETATM    3  N   UNL     1      26.395  45.511  54.813  1.00  0.00    -0.341 N 
HETATM    4  O   UNL     1      24.706  44.178  54.254  1.00  0.00    -0.247 OA
HETATM    5  H   UNL     1      27.657  44.175  53.165  1.00  0.00     0.171 HD
HETATM    6  H   UNL     1      25.709  45.798  55.500  1.00  0.00     0.164 HD
ENDROOT
BRANCH   1   7
HETATM    7  C   UNL     1      26.313  43.245  51.938  1.00  0.00     0.070 A 
HETATM    8  C   UNL     1      25.175  43.445  51.148  1.00  0.00     0.040 A 
HETATM    9  C   UNL     1      24.872  42.605  50.056  1.00  0.00    -0.048 A 
HETATM   10  C   UNL     1      25.758  41.551  49.792  1.00  0.00     0.011 A 
HETATM   11  C   UNL     1      26.904  41.343  50.572  1.00  0.00     0.039 A 
HETATM   12  C   UNL     1      27.192  42.189  51.642  1.00  0.00     0.095 A 
BRANCH   9  13
HETATM   13  C   UNL     1      23.623  42.882  49.200  1.00  0.00    -0.024 C 
HETATM   14  C   UNL     1      24.003  43.816  48.030  1.00  0.00     0.019 C 
HETATM   15  C   UNL     1      22.532  43.560  50.058  1.00  0.00     0.019 C 
HETATM   16  C   UNL     1      22.995  41.611  48.586  1.00  0.00     0.019 C 
ENDBRANCH   9  13
BRANCH  12  17
HETATM   17  O   UNL     1      28.290  42.080  52.463  1.00  0.00    -0.354 OA
HETATM   18  C   UNL     1      28.812  40.773  52.673  1.00  0.00     0.210 C 
ENDBRANCH  12  17
ENDBRANCH   1   7
BRANCH   3  19
HETATM   19  C   UNL     1      27.358  46.527  54.400  1.00  0.00     0.146 C 
BRANCH  19  20
HETATM   20  C   UNL     1      28.451  46.735  55.442  1.00  0.00     0.170 C 
BRANCH  20  21
HETATM   21  N   UNL     1      29.296  45.565  55.578  1.00  0.00    -0.278 N 
HETATM   22  N   UNL     1      29.225  44.576  54.664  1.00  0.00    -0.184 NA
HETATM   23  C   UNL     1      30.147  43.700  55.080  1.00  0.00     0.164 A 
HETATM   24  C   UNL     1      30.790  44.122  56.256  1.00  0.00     0.070 A 
HETATM   25 CL   UNL     1      32.006  43.301  57.094  1.00  0.00    -0.081 Cl
HETATM   26  C   UNL     1      30.217  45.333  56.560  1.00  0.00     0.137 A 
ENDBRANCH  20  21
ENDBRANCH  19  20
ENDBRANCH   3  19
TORSDOF 6
ENDMDL
MODEL 9
REMARK VINA RESULT:      -7.4      3.057      4.198
REMARK  6 active torsions:
REMARK  status: ('A' for Active; 'I' for Inactive)
REMARK    1  A    between atoms: C_2  and  C_3 
REMARK    2  A    between atoms: C_5  and  N_6 
REMARK       I    between atoms: N_6  and  C_7 
REMARK       I    between atoms: C_7  and  N_8 
REMARK    3  A    between atoms: N_8  and  C_9 
REMARK    4  A    between atoms: C_9  and  C_10 
REMARK    5  A    between atoms: C_10  and  N_11 
REMARK    6  A    between atoms: C_18  and  O_19 
ROOT
HETATM    1  N   UNL     1      26.550  43.830  51.309  1.00  0.00    -0.306 N 
HETATM    2  C   UNL     1      25.195  43.970  51.274  1.00  0.00     0.320 C 
HETATM    3  N   UNL     1      24.743  45.164  50.785  1.00  0.00    -0.341 N 
HETATM    4  O   UNL     1      24.361  43.153  51.651  1.00  0.00    -0.247 OA
HETATM    5  H   UNL     1      27.094  44.683  51.360  1.00  0.00     0.171 HD
HETATM    6  H   UNL     1      23.730  45.159  50.779  1.00  0.00     0.164 HD
ENDROOT
BRANCH   1   7
HETATM    7  C   UNL     1      27.290  42.663  51.598  1.00  0.00     0.070 A 
HETATM    8  C   UNL     1      27.446  41.617  50.680  1.00  0.00     0.040 A 
HETATM    9  C   UNL     1      28.224  40.479  50.977  1.00  0.00    -0.048 A 
HETATM   10  C   UNL     1      28.835  40.429  52.239  1.00  0.00     0.011 A 
HETATM   11  C   UNL     1      28.690  41.472  53.164  1.00  0.00     0.039 A 
HETATM   12  C   UNL     1      27.925  42.595  52.849  1.00  0.00     0.095 A 
BRANCH   9  13
HETATM   13  C   UNL     1      28.389  39.368  49.925  1.00  0.00    -0.024 C 
HETATM   14  C   UNL     1      29.430  38.342  50.424  1.00  0.00     0.019 C 
HETATM   15  C   UNL     1      28.872  39.973  48.588  1.00  0.00     0.019 C 
HETATM   16  C   UNL     1      27.087  38.591  49.629  1.00  0.00     0.019 C 
ENDBRANCH   9  13
BRANCH  12  17
HETATM   17  O   UNL     1      27.725  43.674  53.678  1.00  0.00    -0.354 OA
HETATM   18  C   UNL     1      28.804  44.041  54.530  1.00  0.00     0.210 C 
ENDBRANCH  12  17
ENDBRANCH   1   7
BRANCH   3  19
HETATM   19  C   UNL     1      25.389  45.962  49.748  1.00  0.00     0.146 C 
BRANCH  19  20
HETATM   20  C   UNL     1      25.849  47.318  50.273  1.00  0.00     0.170 C 
BRANCH  20  21
HETATM   21  N   UNL     1      25.434  48.402  49.405  1.00  0.00    -0.278 N 
HETATM   22  N   UNL     1      26.363  49.145  48.769  1.00  0.00    -0.184 NA
HETATM   23  C   UNL     1      25.634  50.005  48.049  1.00  0.00     0.164 A 
HETATM   24  C   UNL     1      24.253  49.819  48.234  1.00  0.00     0.070 A 
HETATM   25 CL   UNL     1      23.008  50.701  47.508  1.00  0.00    -0.081 Cl
HETATM   26  C   UNL     1      24.151  48.775  49.121  1.00  0.00     0.137 A 
ENDBRANCH  20  21
ENDBRANCH  19  20
ENDBRANCH   3  19
TORSDOF 6
ENDMDL
MODEL 10
REMARK VINA RESULT:      -7.3      2.104      3.665
REMARK  6 active torsions:
REMARK  status: ('A' for Active; 'I' for Inactive)
REMARK    1  A    between atoms: C_2  and  C_3 
REMARK    2  A    between atoms: C_5  and  N_6 
REMARK       I    between atoms: N_6  and  C_7 
REMARK       I    between atoms: C_7  and  N_8 
REMARK    3  A    between atoms: N_8  and  C_9 
REMARK    4  A    between atoms: C_9  and  C_10 
REMARK    5  A    between atoms: C_10  and  N_11 
REMARK    6  A    between atoms: C_18  and  O_19 
ROOT
HETATM    1  N   UNL     1      26.297  44.327  51.519  1.00  0.00    -0.306 N 
HETATM    2  C   UNL     1      26.554  44.859  50.291  1.00  0.00     0.320 C 
HETATM    3  N   UNL     1      25.451  45.144  49.535  1.00  0.00    -0.341 N 
HETATM    4  O   UNL     1      27.657  45.083  49.803  1.00  0.00    -0.247 OA
HETATM    5  H   UNL     1      25.418  43.834  51.627  1.00  0.00     0.171 HD
HETATM    6  H   UNL     1      25.747  45.554  48.657  1.00  0.00     0.164 HD
ENDROOT
BRANCH   1   7
HETATM    7  C   UNL     1      27.213  44.096  52.569  1.00  0.00     0.070 A 
HETATM    8  C   UNL     1      27.600  45.094  53.471  1.00  0.00     0.040 A 
HETATM    9  C   UNL     1      28.487  44.829  54.535  1.00  0.00    -0.048 A 
HETATM   10  C   UNL     1      28.973  43.519  54.655  1.00  0.00     0.011 A 
HETATM   11  C   UNL     1      28.589  42.510  53.761  1.00  0.00     0.039 A 
HETATM   12  C   UNL     1      27.704  42.789  52.720  1.00  0.00     0.095 A 
BRANCH   9  13
HETATM   13  C   UNL     1      28.861  45.953  55.519  1.00  0.00    -0.024 C 
HETATM   14  C   UNL     1      28.526  47.320  54.883  1.00  0.00     0.019 C 
HETATM   15  C   UNL     1      30.372  45.896  55.836  1.00  0.00     0.019 C 
HETATM   16  C   UNL     1      28.110  45.878  56.866  1.00  0.00     0.019 C 
ENDBRANCH   9  13
BRANCH  12  17
HETATM   17  O   UNL     1      27.257  41.874  51.796  1.00  0.00    -0.354 OA
HETATM   18  C   UNL     1      28.139  40.807  51.465  1.00  0.00     0.210 C 
ENDBRANCH  12  17
ENDBRANCH   1   7
BRANCH   3  19
HETATM   19  C   UNL     1      24.154  45.579  50.045  1.00  0.00     0.146 C 
BRANCH  19  20
HETATM   20  C   UNL     1      23.166  45.867  48.920  1.00  0.00     0.170 C 
BRANCH  20  21
HETATM   21  N   UNL     1      22.744  47.254  48.915  1.00  0.00    -0.278 N 
HETATM   22  N   UNL     1      21.439  47.557  48.764  1.00  0.00    -0.184 NA
HETATM   23  C   UNL     1      21.418  48.893  48.842  1.00  0.00     0.164 A 
HETATM   24  C   UNL     1      22.701  49.436  49.029  1.00  0.00     0.070 A 
HETATM   25 CL   UNL     1      23.096  51.072  49.173  1.00  0.00    -0.081 Cl
HETATM   26  C   UNL     1      23.543  48.351  49.070  1.00  0.00     0.137 A 
ENDBRANCH  20  21
ENDBRANCH  19  20
ENDBRANCH   3  19
TORSDOF 6
ENDMDL
