MODEL 1
REMARK VINA RESULT:     -10.0      0.000      0.000
REMARK  6 active torsions:
REMARK  status: ('A' for Active; 'I' for Inactive)
REMARK    1  A    between atoms: C_4  and  C_5 
REMARK    2  A    between atoms: C_5  and  O_6 
REMARK    3  A    between atoms: O_6  and  C_7 
REMARK    4  A    between atoms: C_10  and  C_11 
REMARK    5  A    between atoms: C_17  and  C_18 
REMARK    6  A    between atoms: C_26  and  N_27 
ROOT
HETATM    1  C   UNL     1      26.253  44.285  49.693  1.00  0.00     0.072 A 
HETATM    2  N   UNL     1      25.872  43.347  48.756  1.00  0.00    -0.274 N 
HETATM    3  H   UNL     1      25.287  43.492  47.941  1.00  0.00     0.189 HD
HETATM    4  N   UNL     1      26.347  42.107  48.992  1.00  0.00    -0.148 NA
HETATM    5  C   UNL     1      27.060  42.282  50.096  1.00  0.00     0.199 A 
HETATM    6  C   UNL     1      27.057  43.589  50.581  1.00  0.00     0.040 A 
HETATM    7  C   UNL     1      27.779  43.947  51.834  1.00  0.00     0.108 A 
HETATM    8  C   UNL     1      28.510  42.724  52.394  1.00  0.00     0.081 A 
HETATM    9  C   UNL     1      29.341  42.942  53.534  1.00  0.00     0.100 C 
HETATM   10  N   UNL     1      30.015  43.124  54.461  1.00  0.00    -0.191 NA
HETATM   11  C   UNL     1      28.437  41.490  51.827  1.00  0.00     0.140 A 
HETATM   12  O   UNL     1      27.686  41.241  50.671  1.00  0.00    -0.277 OA
ENDROOT
BRANCH   7  13
HETATM   13  C   UNL     1      26.857  44.561  52.854  1.00  0.00    -0.020 A 
HETATM   14  C   UNL     1      25.761  43.987  53.472  1.00  0.00     0.149 A 
HETATM   15  O   UNL     1      25.174  44.858  54.329  1.00  0.00    -0.334 OA
HETATM   16  C   UNL     1      25.888  46.009  54.274  1.00  0.00     0.142 A 
HETATM   17  C   UNL     1      26.932  45.884  53.388  1.00  0.00     0.034 A 
ENDBRANCH   7  13
BRANCH  11  18
HETATM   18  N   UNL     1      29.077  40.362  52.295  1.00  0.00    -0.282 NA
HETATM   19  H   UNL     1      29.041  39.548  51.685  1.00  0.00     0.126 HD
HETATM   20  H   UNL     1      30.017  40.569  52.628  1.00  0.00     0.126 HD
ENDBRANCH  11  18
BRANCH   1  21
HETATM   21  C   UNL     1      25.792  45.666  49.678  1.00  0.00    -0.007 A 
HETATM   22  C   UNL     1      26.715  46.718  49.663  1.00  0.00     0.016 A 
HETATM   23  C   UNL     1      26.284  48.047  49.569  1.00  0.00     0.037 A 
HETATM   24  C   UNL     1      24.923  48.334  49.480  1.00  0.00     0.069 A 
HETATM   25  C   UNL     1      23.998  47.291  49.536  1.00  0.00     0.037 A 
HETATM   26  C   UNL     1      24.427  45.964  49.629  1.00  0.00     0.016 A 
BRANCH  24  27
HETATM   27  O   UNL     1      24.381  49.583  49.345  1.00  0.00    -0.347 OA
BRANCH  27  28
HETATM   28  C   UNL     1      23.559  49.791  48.193  1.00  0.00     0.214 C 
BRANCH  28  29
HETATM   29  C   UNL     1      22.228  50.386  48.593  1.00  0.00    -0.034 A 
HETATM   30  C   UNL     1      21.237  50.603  47.622  1.00  0.00     0.009 A 
HETATM   31  C   UNL     1      19.982  51.093  47.986  1.00  0.00     0.001 A 
HETATM   32  C   UNL     1      19.698  51.365  49.323  1.00  0.00     0.000 A 
HETATM   33  C   UNL     1      20.668  51.143  50.298  1.00  0.00     0.001 A 
HETATM   34  C   UNL     1      21.924  50.651  49.936  1.00  0.00     0.009 A 
ENDBRANCH  28  29
ENDBRANCH  27  28
ENDBRANCH  24  27
ENDBRANCH   1  21
TORSDOF 6
ENDMDL
MODEL 2
REMARK VINA RESULT:      -9.1      3.092      8.286
REMARK  6 active torsions:
REMARK  status: ('A' for Active; 'I' for Inactive)
REMARK    1  A    between atoms: C_4  and  C_5 
REMARK    2  A    between atoms: C_5  and  O_6 
REMARK    3  A    between atoms: O_6  and  C_7 
REMARK    4  A    between atoms: C_10  and  C_11 
REMARK    5  A    between atoms: C_17  and  C_18 
REMARK    6  A    between atoms: C_26  and  N_27 
ROOT
HETATM    1  C   UNL     1      25.346  43.150  51.287  1.00  0.00     0.072 A 
HETATM    2  N   UNL     1      25.609  41.850  50.906  1.00  0.00    -0.274 N 
HETATM    3  H   UNL     1      26.205  41.178  51.376  1.00  0.00     0.189 HD
HETATM    4  N   UNL     1      24.991  41.474  49.767  1.00  0.00    -0.148 NA
HETATM    5  C   UNL     1      24.308  42.563  49.443  1.00  0.00     0.199 A 
HETATM    6  C   UNL     1      24.469  43.628  50.328  1.00  0.00     0.040 A 
HETATM    7  C   UNL     1      23.799  44.937  50.088  1.00  0.00     0.108 A 
HETATM    8  C   UNL     1      22.930  44.866  48.830  1.00  0.00     0.081 A 
HETATM    9  C   UNL     1      22.135  46.015  48.536  1.00  0.00     0.100 C 
HETATM   10  N   UNL     1      21.491  46.952  48.301  1.00  0.00    -0.191 NA
HETATM   11  C   UNL     1      22.853  43.762  48.040  1.00  0.00     0.140 A 
HETATM   12  O   UNL     1      23.565  42.589  48.323  1.00  0.00    -0.277 OA
ENDROOT
BRANCH   7  13
HETATM   13  C   UNL     1      24.792  46.068  50.018  1.00  0.00    -0.020 A 
HETATM   14  C   UNL     1      24.612  47.387  50.389  1.00  0.00     0.149 A 
HETATM   15  O   UNL     1      25.737  48.112  50.171  1.00  0.00    -0.334 OA
HETATM   16  C   UNL     1      26.660  47.262  49.655  1.00  0.00     0.142 A 
HETATM   17  C   UNL     1      26.136  45.996  49.542  1.00  0.00     0.034 A 
ENDBRANCH   7  13
BRANCH  11  18
HETATM   18  N   UNL     1      22.086  43.652  46.900  1.00  0.00    -0.282 NA
HETATM   19  H   UNL     1      21.081  43.596  47.046  1.00  0.00     0.126 HD
HETATM   20  H   UNL     1      22.348  44.342  46.197  1.00  0.00     0.126 HD
ENDBRANCH  11  18
BRANCH   1  21
HETATM   21  C   UNL     1      25.968  43.788  52.439  1.00  0.00    -0.007 A 
HETATM   22  C   UNL     1      27.345  43.665  52.657  1.00  0.00     0.016 A 
HETATM   23  C   UNL     1      27.965  44.338  53.716  1.00  0.00     0.037 A 
HETATM   24  C   UNL     1      27.212  45.148  54.565  1.00  0.00     0.069 A 
HETATM   25  C   UNL     1      25.832  45.239  54.377  1.00  0.00     0.037 A 
HETATM   26  C   UNL     1      25.213  44.569  53.318  1.00  0.00     0.016 A 
BRANCH  24  27
HETATM   27  O   UNL     1      27.707  45.884  55.606  1.00  0.00    -0.347 OA
BRANCH  27  28
HETATM   28  C   UNL     1      29.067  46.310  55.485  1.00  0.00     0.214 C 
BRANCH  28  29
HETATM   29  C   UNL     1      29.972  45.433  56.320  1.00  0.00    -0.034 A 
HETATM   30  C   UNL     1      30.613  44.329  55.735  1.00  0.00     0.009 A 
HETATM   31  C   UNL     1      31.501  43.547  56.477  1.00  0.00     0.001 A 
HETATM   32  C   UNL     1      31.765  43.863  57.808  1.00  0.00     0.000 A 
HETATM   33  C   UNL     1      31.144  44.962  58.398  1.00  0.00     0.001 A 
HETATM   34  C   UNL     1      30.259  45.747  57.657  1.00  0.00     0.009 A 
ENDBRANCH  28  29
ENDBRANCH  27  28
ENDBRANCH  24  27
ENDBRANCH   1  21
TORSDOF 6
ENDMDL
MODEL 3
REMARK VINA RESULT:      -9.1      2.956      8.561
REMARK  6 active torsions:
REMARK  status: ('A' for Active; 'I' for Inactive)
REMARK    1  A    between atoms: C_4  and  C_5 
REMARK    2  A    between atoms: C_5  and  O_6 
REMARK    3  A    between atoms: O_6  and  C_7 
REMARK    4  A    between atoms: C_10  and  C_11 
REMARK    5  A    between atoms: C_17  and  C_18 
REMARK    6  A    between atoms: C_26  and  N_27 
ROOT
HETATM    1  C   UNL     1      23.987  45.298  49.314  1.00  0.00     0.072 A 
HETATM    2  N   UNL     1      23.272  44.442  48.502  1.00  0.00    -0.274 N 
HETATM    3  H   UNL     1      23.408  43.444  48.385  1.00  0.00     0.189 HD
HETATM    4  N   UNL     1      22.296  45.044  47.791  1.00  0.00    -0.148 NA
HETATM    5  C   UNL     1      22.393  46.305  48.188  1.00  0.00     0.199 A 
HETATM    6  C   UNL     1      23.400  46.538  49.125  1.00  0.00     0.040 A 
HETATM    7  C   UNL     1      23.665  47.908  49.645  1.00  0.00     0.108 A 
HETATM    8  C   UNL     1      22.666  48.905  49.053  1.00  0.00     0.081 A 
HETATM    9  C   UNL     1      22.725  50.242  49.549  1.00  0.00     0.100 C 
HETATM   10  N   UNL     1      22.779  51.328  49.955  1.00  0.00    -0.191 NA
HETATM   11  C   UNL     1      21.721  48.556  48.140  1.00  0.00     0.140 A 
HETATM   12  O   UNL     1      21.581  47.243  47.671  1.00  0.00    -0.277 OA
ENDROOT
BRANCH   7  13
HETATM   13  C   UNL     1      25.090  48.332  49.398  1.00  0.00    -0.020 A 
HETATM   14  C   UNL     1      25.579  49.133  48.383  1.00  0.00     0.149 A 
HETATM   15  O   UNL     1      26.923  49.285  48.489  1.00  0.00    -0.334 OA
HETATM   16  C   UNL     1      27.315  48.582  49.580  1.00  0.00     0.142 A 
HETATM   17  C   UNL     1      26.233  47.980  50.177  1.00  0.00     0.034 A 
ENDBRANCH   7  13
BRANCH  11  18
HETATM   18  N   UNL     1      20.800  49.417  47.581  1.00  0.00    -0.282 NA
HETATM   19  H   UNL     1      20.753  49.415  46.565  1.00  0.00     0.126 HD
HETATM   20  H   UNL     1      19.886  49.335  48.023  1.00  0.00     0.126 HD
ENDBRANCH  11  18
BRANCH   1  21
HETATM   21  C   UNL     1      25.134  44.877  50.108  1.00  0.00    -0.007 A 
HETATM   22  C   UNL     1      25.040  44.810  51.503  1.00  0.00     0.016 A 
HETATM   23  C   UNL     1      26.110  44.333  52.269  1.00  0.00     0.037 A 
HETATM   24  C   UNL     1      27.282  43.909  51.645  1.00  0.00     0.069 A 
HETATM   25  C   UNL     1      27.395  44.014  50.258  1.00  0.00     0.037 A 
HETATM   26  C   UNL     1      26.326  44.489  49.491  1.00  0.00     0.016 A 
BRANCH  24  27
HETATM   27  O   UNL     1      28.377  43.389  52.278  1.00  0.00    -0.347 OA
BRANCH  27  28
HETATM   28  C   UNL     1      28.180  42.970  53.632  1.00  0.00     0.214 C 
BRANCH  28  29
HETATM   29  C   UNL     1      29.051  43.777  54.568  1.00  0.00    -0.034 A 
HETATM   30  C   UNL     1      28.632  45.048  54.993  1.00  0.00     0.009 A 
HETATM   31  C   UNL     1      29.394  45.779  55.906  1.00  0.00     0.001 A 
HETATM   32  C   UNL     1      30.579  45.246  56.411  1.00  0.00     0.000 A 
HETATM   33  C   UNL     1      31.000  43.981  56.007  1.00  0.00     0.001 A 
HETATM   34  C   UNL     1      30.237  43.248  55.096  1.00  0.00     0.009 A 
ENDBRANCH  28  29
ENDBRANCH  27  28
ENDBRANCH  24  27
ENDBRANCH   1  21
TORSDOF 6
ENDMDL
MODEL 4
REMARK VINA RESULT:      -9.1      3.661      8.067
REMARK  6 active torsions:
REMARK  status: ('A' for Active; 'I' for Inactive)
REMARK    1  A    between atoms: C_4  and  C_5 
REMARK    2  A    between atoms: C_5  and  O_6 
REMARK    3  A    between atoms: O_6  and  C_7 
REMARK    4  A    between atoms: C_10  and  C_11 
REMARK    5  A    between atoms: C_17  and  C_18 
REMARK    6  A    between atoms: C_26  and  N_27 
ROOT
HETATM    1  C   UNL     1      27.458  41.834  51.718  1.00  0.00     0.072 A 
HETATM    2  N   UNL     1      28.539  40.996  51.537  1.00  0.00    -0.274 N 
HETATM    3  H   UNL     1      29.388  40.955  52.091  1.00  0.00     0.189 HD
HETATM    4  N   UNL     1      28.418  40.158  50.487  1.00  0.00    -0.148 NA
HETATM    5  C   UNL     1      27.218  40.468  50.015  1.00  0.00     0.199 A 
HETATM    6  C   UNL     1      26.566  41.479  50.720  1.00  0.00     0.040 A 
HETATM    7  C   UNL     1      25.225  41.972  50.295  1.00  0.00     0.108 A 
HETATM    8  C   UNL     1      24.726  41.178  49.086  1.00  0.00     0.081 A 
HETATM    9  C   UNL     1      23.400  41.462  48.637  1.00  0.00     0.100 C 
HETATM   10  N   UNL     1      22.323  41.697  48.276  1.00  0.00    -0.191 NA
HETATM   11  C   UNL     1      25.458  40.206  48.480  1.00  0.00     0.140 A 
HETATM   12  O   UNL     1      26.738  39.846  48.925  1.00  0.00    -0.277 OA
ENDROOT
BRANCH   7  13
HETATM   13  C   UNL     1      25.235  43.454  50.025  1.00  0.00    -0.020 A 
HETATM   14  C   UNL     1      26.084  44.165  49.198  1.00  0.00     0.149 A 
HETATM   15  O   UNL     1      25.787  45.489  49.219  1.00  0.00    -0.334 OA
HETATM   16  C   UNL     1      24.737  45.644  50.064  1.00  0.00     0.142 A 
HETATM   17  C   UNL     1      24.357  44.430  50.585  1.00  0.00     0.034 A 
ENDBRANCH   7  13
BRANCH  11  18
HETATM   18  N   UNL     1      25.050  39.465  47.391  1.00  0.00    -0.282 NA
HETATM   19  H   UNL     1      24.342  39.896  46.802  1.00  0.00     0.126 HD
HETATM   20  H   UNL     1      25.841  39.101  46.862  1.00  0.00     0.126 HD
ENDBRANCH  11  18
BRANCH   1  21
HETATM   21  C   UNL     1      27.409  42.870  52.741  1.00  0.00    -0.007 A 
HETATM   22  C   UNL     1      27.113  42.539  54.068  1.00  0.00     0.016 A 
HETATM   23  C   UNL     1      27.140  43.514  55.072  1.00  0.00     0.037 A 
HETATM   24  C   UNL     1      27.474  44.830  54.757  1.00  0.00     0.069 A 
HETATM   25  C   UNL     1      27.730  45.173  53.429  1.00  0.00     0.037 A 
HETATM   26  C   UNL     1      27.703  44.199  52.426  1.00  0.00     0.016 A 
BRANCH  24  27
HETATM   27  O   UNL     1      27.574  45.860  55.652  1.00  0.00    -0.347 OA
BRANCH  27  28
HETATM   28  C   UNL     1      28.843  46.517  55.716  1.00  0.00     0.214 C 
BRANCH  28  29
HETATM   29  C   UNL     1      29.861  45.636  56.403  1.00  0.00    -0.034 A 
HETATM   30  C   UNL     1      30.115  45.798  57.775  1.00  0.00     0.009 A 
HETATM   31  C   UNL     1      31.006  44.951  58.437  1.00  0.00     0.001 A 
HETATM   32  C   UNL     1      31.647  43.928  57.740  1.00  0.00     0.000 A 
HETATM   33  C   UNL     1      31.395  43.750  56.382  1.00  0.00     0.001 A 
HETATM   34  C   UNL     1      30.502  44.594  55.718  1.00  0.00     0.009 A 
ENDBRANCH  28  29
ENDBRANCH  27  28
ENDBRANCH  24  27
ENDBRANCH   1  21
TORSDOF 6
ENDMDL
MODEL 5
REMARK VINA RESULT:      -8.9      4.353      7.310
REMARK  6 active torsions:
REMARK  status: ('A' for Active; 'I' for Inactive)
REMARK    1  A    between atoms: C_4  and  C_5 
REMARK    2  A    between atoms: C_5  and  O_6 
REMARK    3  A    between atoms: O_6  and  C_7 
REMARK    4  A    between atoms: C_10  and  C_11 
REMARK    5  A    between atoms: C_17  and  C_18 
REMARK    6  A    between atoms: C_26  and  N_27 
ROOT
HETATM    1  C   UNL     1      24.318  44.106  50.910  1.00  0.00     0.072 A 
HETATM    2  N   UNL     1      22.959  44.137  50.678  1.00  0.00    -0.274 N 
HETATM    3  H   UNL     1      22.254  44.641  51.206  1.00  0.00     0.189 HD
HETATM    4  N   UNL     1      22.561  43.390  49.628  1.00  0.00    -0.148 NA
HETATM    5  C   UNL     1      23.707  42.898  49.180  1.00  0.00     0.199 A 
HETATM    6  C   UNL     1      24.828  43.296  49.908  1.00  0.00     0.040 A 
HETATM    7  C   UNL     1      26.189  42.801  49.558  1.00  0.00     0.108 A 
HETATM    8  C   UNL     1      26.127  41.906  48.318  1.00  0.00     0.081 A 
HETATM    9  C   UNL     1      27.374  41.449  47.795  1.00  0.00     0.100 C 
HETATM   10  N   UNL     1      28.391  41.080  47.375  1.00  0.00    -0.191 NA
HETATM   11  C   UNL     1      24.965  41.587  47.689  1.00  0.00     0.140 A 
HETATM   12  O   UNL     1      23.721  42.064  48.126  1.00  0.00    -0.277 OA
ENDROOT
BRANCH   7  13
HETATM   13  C   UNL     1      26.844  42.102  50.720  1.00  0.00    -0.020 A 
HETATM   14  C   UNL     1      26.560  40.850  51.234  1.00  0.00     0.149 A 
HETATM   15  O   UNL     1      27.360  40.566  52.292  1.00  0.00    -0.334 OA
HETATM   16  C   UNL     1      28.173  41.636  52.471  1.00  0.00     0.142 A 
HETATM   17  C   UNL     1      27.902  42.606  51.535  1.00  0.00     0.034 A 
ENDBRANCH   7  13
BRANCH  11  18
HETATM   18  N   UNL     1      24.860  40.786  46.571  1.00  0.00    -0.282 NA
HETATM   19  H   UNL     1      25.510  40.006  46.523  1.00  0.00     0.126 HD
HETATM   20  H   UNL     1      23.895  40.513  46.390  1.00  0.00     0.126 HD
ENDBRANCH  11  18
BRANCH   1  21
HETATM   21  C   UNL     1      24.955  44.774  52.036  1.00  0.00    -0.007 A 
HETATM   22  C   UNL     1      25.033  44.139  53.281  1.00  0.00     0.016 A 
HETATM   23  C   UNL     1      25.711  44.740  54.349  1.00  0.00     0.037 A 
HETATM   24  C   UNL     1      26.324  45.980  54.177  1.00  0.00     0.069 A 
HETATM   25  C   UNL     1      26.213  46.635  52.950  1.00  0.00     0.037 A 
HETATM   26  C   UNL     1      25.537  46.035  51.883  1.00  0.00     0.016 A 
BRANCH  24  27
HETATM   27  O   UNL     1      27.046  46.647  55.128  1.00  0.00    -0.347 OA
BRANCH  27  28
HETATM   28  C   UNL     1      28.434  46.844  54.842  1.00  0.00     0.214 C 
BRANCH  28  29
HETATM   29  C   UNL     1      29.251  45.682  55.359  1.00  0.00    -0.034 A 
HETATM   30  C   UNL     1      29.363  44.509  54.595  1.00  0.00     0.009 A 
HETATM   31  C   UNL     1      30.165  43.452  55.030  1.00  0.00     0.001 A 
HETATM   32  C   UNL     1      30.870  43.556  56.227  1.00  0.00     0.000 A 
HETATM   33  C   UNL     1      30.778  44.719  56.988  1.00  0.00     0.001 A 
HETATM   34  C   UNL     1      29.978  45.778  56.554  1.00  0.00     0.009 A 
ENDBRANCH  28  29
ENDBRANCH  27  28
ENDBRANCH  24  27
ENDBRANCH   1  21
TORSDOF 6
ENDMDL
MODEL 6
REMARK VINA RESULT:      -8.8      4.224      6.685
REMARK  6 active torsions:
REMARK  status: ('A' for Active; 'I' for Inactive)
REMARK    1  A    between atoms: C_4  and  C_5 
REMARK    2  A    between atoms: C_5  and  O_6 
REMARK    3  A    between atoms: O_6  and  C_7 
REMARK    4  A    between atoms: C_10  and  C_11 
REMARK    5  A    between atoms: C_17  and  C_18 
REMARK    6  A    between atoms: C_26  and  N_27 
ROOT
HETATM    1  C   UNL     1      28.080  40.927  51.642  1.00  0.00     0.072 A 
HETATM    2  N   UNL     1      28.874  39.870  51.250  1.00  0.00    -0.274 N 
HETATM    3  H   UNL     1      29.745  39.562  51.670  1.00  0.00     0.189 HD
HETATM    4  N   UNL     1      28.410  39.200  50.175  1.00  0.00    -0.148 NA
HETATM    5  C   UNL     1      27.284  39.846  49.904  1.00  0.00     0.199 A 
HETATM    6  C   UNL     1      27.011  40.910  50.762  1.00  0.00     0.040 A 
HETATM    7  C   UNL     1      25.803  41.762  50.570  1.00  0.00     0.108 A 
HETATM    8  C   UNL     1      24.969  41.246  49.396  1.00  0.00     0.081 A 
HETATM    9  C   UNL     1      23.719  41.896  49.165  1.00  0.00     0.100 C 
HETATM   10  N   UNL     1      22.704  42.428  48.981  1.00  0.00    -0.191 NA
HETATM   11  C   UNL     1      25.342  40.189  48.627  1.00  0.00     0.140 A 
HETATM   12  O   UNL     1      26.528  39.478  48.855  1.00  0.00    -0.277 OA
ENDROOT
BRANCH   7  13
HETATM   13  C   UNL     1      26.166  43.215  50.401  1.00  0.00    -0.020 A 
HETATM   14  C   UNL     1      27.042  43.776  49.490  1.00  0.00     0.149 A 
HETATM   15  O   UNL     1      27.113  45.121  49.650  1.00  0.00    -0.334 OA
HETATM   16  C   UNL     1      26.280  45.442  50.670  1.00  0.00     0.142 A 
HETATM   17  C   UNL     1      25.671  44.314  51.167  1.00  0.00     0.034 A 
ENDBRANCH   7  13
BRANCH  11  18
HETATM   18  N   UNL     1      24.623  39.688  47.562  1.00  0.00    -0.282 NA
HETATM   19  H   UNL     1      23.615  39.645  47.689  1.00  0.00     0.126 HD
HETATM   20  H   UNL     1      24.896  40.124  46.682  1.00  0.00     0.126 HD
ENDBRANCH  11  18
BRANCH   1  21
HETATM   21  C   UNL     1      28.430  41.833  52.727  1.00  0.00    -0.007 A 
HETATM   22  C   UNL     1      29.727  42.350  52.825  1.00  0.00     0.016 A 
HETATM   23  C   UNL     1      30.053  43.282  53.817  1.00  0.00     0.037 A 
HETATM   24  C   UNL     1      29.080  43.710  54.719  1.00  0.00     0.069 A 
HETATM   25  C   UNL     1      27.797  43.165  54.652  1.00  0.00     0.037 A 
HETATM   26  C   UNL     1      27.470  42.236  53.660  1.00  0.00     0.016 A 
BRANCH  24  27
HETATM   27  O   UNL     1      29.264  44.641  55.704  1.00  0.00    -0.347 OA
BRANCH  27  28
HETATM   28  C   UNL     1      29.475  45.986  55.267  1.00  0.00     0.214 C 
BRANCH  28  29
HETATM   29  C   UNL     1      28.153  46.692  55.069  1.00  0.00    -0.034 A 
HETATM   30  C   UNL     1      27.650  47.533  56.075  1.00  0.00     0.009 A 
HETATM   31  C   UNL     1      26.462  48.240  55.882  1.00  0.00     0.001 A 
HETATM   32  C   UNL     1      25.768  48.124  54.679  1.00  0.00     0.000 A 
HETATM   33  C   UNL     1      26.262  47.303  53.668  1.00  0.00     0.001 A 
HETATM   34  C   UNL     1      27.451  46.596  53.859  1.00  0.00     0.009 A 
ENDBRANCH  28  29
ENDBRANCH  27  28
ENDBRANCH  24  27
ENDBRANCH   1  21
TORSDOF 6
ENDMDL
MODEL 7
REMARK VINA RESULT:      -8.7     11.998     15.123
REMARK  6 active torsions:
REMARK  status: ('A' for Active; 'I' for Inactive)
REMARK    1  A    between atoms: C_4  and  C_5 
REMARK    2  A    between atoms: C_5  and  O_6 
REMARK    3  A    between atoms: O_6  and  C_7 
REMARK    4  A    between atoms: C_10  and  C_11 
REMARK    5  A    between atoms: C_17  and  C_18 
REMARK    6  A    between atoms: C_26  and  N_27 
ROOT
HETATM    1  C   UNL     1      31.170  49.997  42.349  1.00  0.00     0.072 A 
HETATM    2  N   UNL     1      30.690  48.770  42.761  1.00  0.00    -0.274 N 
HETATM    3  H   UNL     1      31.051  48.185  43.506  1.00  0.00     0.189 HD
HETATM    4  N   UNL     1      29.625  48.331  42.059  1.00  0.00    -0.148 NA
HETATM    5  C   UNL     1      29.423  49.321  41.201  1.00  0.00     0.199 A 
HETATM    6  C   UNL     1      30.324  50.379  41.322  1.00  0.00     0.040 A 
HETATM    7  C   UNL     1      30.257  51.554  40.408  1.00  0.00     0.108 A 
HETATM    8  C   UNL     1      29.077  51.412  39.444  1.00  0.00     0.081 A 
HETATM    9  C   UNL     1      28.818  52.520  38.581  1.00  0.00     0.100 C 
HETATM   10  N   UNL     1      28.613  53.423  37.882  1.00  0.00    -0.191 NA
HETATM   11  C   UNL     1      28.262  50.325  39.422  1.00  0.00     0.140 A 
HETATM   12  O   UNL     1      28.436  49.240  40.293  1.00  0.00    -0.277 OA
ENDROOT
BRANCH   7  13
HETATM   13  C   UNL     1      31.556  51.763  39.673  1.00  0.00    -0.020 A 
HETATM   14  C   UNL     1      32.092  51.001  38.652  1.00  0.00     0.149 A 
HETATM   15  O   UNL     1      33.286  51.501  38.248  1.00  0.00    -0.334 OA
HETATM   16  C   UNL     1      33.533  52.597  39.007  1.00  0.00     0.142 A 
HETATM   17  C   UNL     1      32.505  52.807  39.895  1.00  0.00     0.034 A 
ENDBRANCH   7  13
BRANCH  11  18
HETATM   18  N   UNL     1      27.188  50.153  38.574  1.00  0.00    -0.282 NA
HETATM   19  H   UNL     1      26.449  50.848  38.649  1.00  0.00     0.126 HD
HETATM   20  H   UNL     1      27.485  49.989  37.613  1.00  0.00     0.126 HD
ENDBRANCH  11  18
BRANCH   1  21
HETATM   21  C   UNL     1      32.357  50.623  42.913  1.00  0.00    -0.007 A 
HETATM   22  C   UNL     1      33.596  50.491  42.275  1.00  0.00     0.016 A 
HETATM   23  C   UNL     1      34.727  51.153  42.766  1.00  0.00     0.037 A 
HETATM   24  C   UNL     1      34.628  51.961  43.898  1.00  0.00     0.069 A 
HETATM   25  C   UNL     1      33.404  52.061  44.561  1.00  0.00     0.037 A 
HETATM   26  C   UNL     1      32.273  51.401  44.071  1.00  0.00     0.016 A 
BRANCH  24  27
HETATM   27  O   UNL     1      35.648  52.687  44.448  1.00  0.00    -0.347 OA
BRANCH  27  28
HETATM   28  C   UNL     1      36.712  53.047  43.563  1.00  0.00     0.214 C 
BRANCH  28  29
HETATM   29  C   UNL     1      37.600  54.092  44.201  1.00  0.00    -0.034 A 
HETATM   30  C   UNL     1      38.175  55.100  43.411  1.00  0.00     0.009 A 
HETATM   31  C   UNL     1      38.946  56.107  43.995  1.00  0.00     0.001 A 
HETATM   32  C   UNL     1      39.144  56.124  45.374  1.00  0.00     0.000 A 
HETATM   33  C   UNL     1      38.570  55.136  46.171  1.00  0.00     0.001 A 
HETATM   34  C   UNL     1      37.797  54.130  45.589  1.00  0.00     0.009 A 
ENDBRANCH  28  29
ENDBRANCH  27  28
ENDBRANCH  24  27
ENDBRANCH   1  21
TORSDOF 6
ENDMDL
MODEL 8
REMARK VINA RESULT:      -8.6      3.311      5.946
REMARK  6 active torsions:
REMARK  status: ('A' for Active; 'I' for Inactive)
REMARK    1  A    between atoms: C_4  and  C_5 
REMARK    2  A    between atoms: C_5  and  O_6 
REMARK    3  A    between atoms: O_6  and  C_7 
REMARK    4  A    between atoms: C_10  and  C_11 
REMARK    5  A    between atoms: C_17  and  C_18 
REMARK    6  A    between atoms: C_26  and  N_27 
ROOT
HETATM    1  C   UNL     1      24.257  49.528  48.874  1.00  0.00     0.072 A 
HETATM    2  N   UNL     1      25.416  50.162  48.476  1.00  0.00    -0.274 N 
HETATM    3  H   UNL     1      25.516  51.113  48.138  1.00  0.00     0.189 HD
HETATM    4  N   UNL     1      26.520  49.389  48.551  1.00  0.00    -0.148 NA
HETATM    5  C   UNL     1      26.037  48.251  49.029  1.00  0.00     0.199 A 
HETATM    6  C   UNL     1      24.661  48.261  49.258  1.00  0.00     0.040 A 
HETATM    7  C   UNL     1      23.956  47.048  49.759  1.00  0.00     0.108 A 
HETATM    8  C   UNL     1      24.955  45.917  50.009  1.00  0.00     0.081 A 
HETATM    9  C   UNL     1      24.438  44.725  50.601  1.00  0.00     0.100 C 
HETATM   10  N   UNL     1      24.012  43.758  51.081  1.00  0.00    -0.191 NA
HETATM   11  C   UNL     1      26.284  46.027  49.745  1.00  0.00     0.140 A 
HETATM   12  O   UNL     1      26.850  47.199  49.225  1.00  0.00    -0.277 OA
ENDROOT
BRANCH   7  13
HETATM   13  C   UNL     1      22.851  46.621  48.828  1.00  0.00    -0.020 A 
HETATM   14  C   UNL     1      22.942  45.824  47.702  1.00  0.00     0.149 A 
HETATM   15  O   UNL     1      21.729  45.668  47.117  1.00  0.00    -0.334 OA
HETATM   16  C   UNL     1      20.837  46.364  47.865  1.00  0.00     0.142 A 
HETATM   17  C   UNL     1      21.469  46.967  48.927  1.00  0.00     0.034 A 
ENDBRANCH   7  13
BRANCH  11  18
HETATM   18  N   UNL     1      27.221  45.037  49.954  1.00  0.00    -0.282 NA
HETATM   19  H   UNL     1      27.585  44.964  50.902  1.00  0.00     0.126 HD
HETATM   20  H   UNL     1      26.919  44.141  49.574  1.00  0.00     0.126 HD
ENDBRANCH  11  18
BRANCH   1  21
HETATM   21  C   UNL     1      22.941  50.148  48.800  1.00  0.00    -0.007 A 
HETATM   22  C   UNL     1      22.248  50.192  47.584  1.00  0.00     0.016 A 
HETATM   23  C   UNL     1      20.951  50.714  47.519  1.00  0.00     0.037 A 
HETATM   24  C   UNL     1      20.331  51.190  48.673  1.00  0.00     0.069 A 
HETATM   25  C   UNL     1      21.033  51.186  49.879  1.00  0.00     0.037 A 
HETATM   26  C   UNL     1      22.328  50.663  49.945  1.00  0.00     0.016 A 
BRANCH  24  27
HETATM   27  O   UNL     1      19.058  51.685  48.744  1.00  0.00    -0.347 OA
BRANCH  27  28
HETATM   28  C   UNL     1      18.215  51.112  49.748  1.00  0.00     0.214 C 
BRANCH  28  29
HETATM   29  C   UNL     1      17.522  49.879  49.216  1.00  0.00    -0.034 A 
HETATM   30  C   UNL     1      16.391  50.010  48.395  1.00  0.00     0.009 A 
HETATM   31  C   UNL     1      15.777  48.883  47.845  1.00  0.00     0.001 A 
HETATM   32  C   UNL     1      16.290  47.613  48.100  1.00  0.00     0.000 A 
HETATM   33  C   UNL     1      17.419  47.469  48.904  1.00  0.00     0.001 A 
HETATM   34  C   UNL     1      18.036  48.595  49.453  1.00  0.00     0.009 A 
ENDBRANCH  28  29
ENDBRANCH  27  28
ENDBRANCH  24  27
ENDBRANCH   1  21
TORSDOF 6
ENDMDL
MODEL 9
REMARK VINA RESULT:      -8.5      6.955     12.592
REMARK  6 active torsions:
REMARK  status: ('A' for Active; 'I' for Inactive)
REMARK    1  A    between atoms: C_4  and  C_5 
REMARK    2  A    between atoms: C_5  and  O_6 
REMARK    3  A    between atoms: O_6  and  C_7 
REMARK    4  A    between atoms: C_10  and  C_11 
REMARK    5  A    between atoms: C_17  and  C_18 
REMARK    6  A    between atoms: C_26  and  N_27 
ROOT
HETATM    1  C   UNL     1      17.335  52.269  49.306  1.00  0.00     0.072 A 
HETATM    2  N   UNL     1      16.827  52.946  50.395  1.00  0.00    -0.274 N 
HETATM    3  H   UNL     1      17.218  52.995  51.329  1.00  0.00     0.189 HD
HETATM    4  N   UNL     1      15.671  53.596  50.149  1.00  0.00    -0.148 NA
HETATM    5  C   UNL     1      15.466  53.334  48.866  1.00  0.00     0.199 A 
HETATM    6  C   UNL     1      16.445  52.534  48.279  1.00  0.00     0.040 A 
HETATM    7  C   UNL     1      16.344  52.116  46.852  1.00  0.00     0.108 A 
HETATM    8  C   UNL     1      15.103  52.734  46.204  1.00  0.00     0.081 A 
HETATM    9  C   UNL     1      14.936  52.515  44.803  1.00  0.00     0.100 C 
HETATM   10  N   UNL     1      14.805  52.332  43.664  1.00  0.00    -0.191 NA
HETATM   11  C   UNL     1      14.214  53.505  46.885  1.00  0.00     0.140 A 
HETATM   12  O   UNL     1      14.369  53.803  48.245  1.00  0.00    -0.277 OA
ENDROOT
BRANCH   7  13
HETATM   13  C   UNL     1      16.361  50.616  46.707  1.00  0.00    -0.020 A 
HETATM   14  C   UNL     1      17.269  49.835  46.018  1.00  0.00     0.149 A 
HETATM   15  O   UNL     1      16.948  48.521  46.110  1.00  0.00    -0.334 OA
HETATM   16  C   UNL     1      15.825  48.440  46.866  1.00  0.00     0.142 A 
HETATM   17  C   UNL     1      15.422  49.694  47.261  1.00  0.00     0.034 A 
ENDBRANCH   7  13
BRANCH  11  18
HETATM   18  N   UNL     1      13.085  54.083  46.344  1.00  0.00    -0.282 NA
HETATM   19  H   UNL     1      12.300  53.456  46.185  1.00  0.00     0.126 HD
HETATM   20  H   UNL     1      12.821  54.935  46.837  1.00  0.00     0.126 HD
ENDBRANCH  11  18
BRANCH   1  21
HETATM   21  C   UNL     1      18.530  51.438  49.366  1.00  0.00    -0.007 A 
HETATM   22  C   UNL     1      18.482  50.176  49.971  1.00  0.00     0.016 A 
HETATM   23  C   UNL     1      19.603  49.337  49.965  1.00  0.00     0.037 A 
HETATM   24  C   UNL     1      20.781  49.751  49.345  1.00  0.00     0.069 A 
HETATM   25  C   UNL     1      20.845  51.024  48.777  1.00  0.00     0.037 A 
HETATM   26  C   UNL     1      19.726  51.862  48.782  1.00  0.00     0.016 A 
BRANCH  24  27
HETATM   27  O   UNL     1      21.925  49.010  49.238  1.00  0.00    -0.347 OA
BRANCH  27  28
HETATM   28  C   UNL     1      22.789  49.339  48.147  1.00  0.00     0.214 C 
BRANCH  28  29
HETATM   29  C   UNL     1      24.238  49.202  48.558  1.00  0.00    -0.034 A 
HETATM   30  C   UNL     1      24.619  48.194  49.456  1.00  0.00     0.009 A 
HETATM   31  C   UNL     1      25.961  48.015  49.797  1.00  0.00     0.001 A 
HETATM   32  C   UNL     1      26.939  48.836  49.238  1.00  0.00     0.000 A 
HETATM   33  C   UNL     1      26.575  49.833  48.335  1.00  0.00     0.001 A 
HETATM   34  C   UNL     1      25.234  50.011  47.992  1.00  0.00     0.009 A 
ENDBRANCH  28  29
ENDBRANCH  27  28
ENDBRANCH  24  27
ENDBRANCH   1  21
TORSDOF 6
ENDMDL
MODEL 10
REMARK VINA RESULT:      -8.4      3.215      8.721
REMARK  6 active torsions:
REMARK  status: ('A' for Active; 'I' for Inactive)
REMARK    1  A    between atoms: C_4  and  C_5 
REMARK    2  A    between atoms: C_5  and  O_6 
REMARK    3  A    between atoms: O_6  and  C_7 
REMARK    4  A    between atoms: C_10  and  C_11 
REMARK    5  A    between atoms: C_17  and  C_18 
REMARK    6  A    between atoms: C_26  and  N_27 
ROOT
HETATM    1  C   UNL     1      23.628  45.526  48.778  1.00  0.00     0.072 A 
HETATM    2  N   UNL     1      23.968  44.495  47.927  1.00  0.00    -0.274 N 
HETATM    3  H   UNL     1      24.718  43.822  48.041  1.00  0.00     0.189 HD
HETATM    4  N   UNL     1      23.195  44.413  46.824  1.00  0.00    -0.148 NA
HETATM    5  C   UNL     1      22.338  45.407  47.005  1.00  0.00     0.199 A 
HETATM    6  C   UNL     1      22.534  46.130  48.181  1.00  0.00     0.040 A 
HETATM    7  C   UNL     1      21.678  47.303  48.516  1.00  0.00     0.108 A 
HETATM    8  C   UNL     1      20.602  47.499  47.445  1.00  0.00     0.081 A 
HETATM    9  C   UNL     1      19.634  48.519  47.690  1.00  0.00     0.100 C 
HETATM   10  N   UNL     1      18.850  49.350  47.894  1.00  0.00    -0.191 NA
HETATM   11  C   UNL     1      20.511  46.723  46.333  1.00  0.00     0.140 A 
HETATM   12  O   UNL     1      21.398  45.668  46.080  1.00  0.00    -0.277 OA
ENDROOT
BRANCH   7  13
HETATM   13  C   UNL     1      22.497  48.551  48.719  1.00  0.00    -0.020 A 
HETATM   14  C   UNL     1      22.562  49.356  49.841  1.00  0.00     0.149 A 
HETATM   15  O   UNL     1      23.408  50.398  49.643  1.00  0.00    -0.334 OA
HETATM   16  C   UNL     1      23.901  50.273  48.385  1.00  0.00     0.142 A 
HETATM   17  C   UNL     1      23.379  49.158  47.774  1.00  0.00     0.034 A 
ENDBRANCH   7  13
BRANCH  11  18
HETATM   18  N   UNL     1      19.560  46.861  45.343  1.00  0.00    -0.282 NA
HETATM   19  H   UNL     1      19.818  46.501  44.428  1.00  0.00     0.126 HD
HETATM   20  H   UNL     1      18.642  46.544  45.652  1.00  0.00     0.126 HD
ENDBRANCH  11  18
BRANCH   1  21
HETATM   21  C   UNL     1      24.375  45.846  49.986  1.00  0.00    -0.007 A 
HETATM   22  C   UNL     1      24.265  45.035  51.122  1.00  0.00     0.016 A 
HETATM   23  C   UNL     1      25.037  45.289  52.261  1.00  0.00     0.037 A 
HETATM   24  C   UNL     1      25.936  46.355  52.271  1.00  0.00     0.069 A 
HETATM   25  C   UNL     1      26.019  47.191  51.157  1.00  0.00     0.037 A 
HETATM   26  C   UNL     1      25.248  46.937  50.018  1.00  0.00     0.016 A 
BRANCH  24  27
HETATM   27  O   UNL     1      26.771  46.680  53.304  1.00  0.00    -0.347 OA
BRANCH  27  28
HETATM   28  C   UNL     1      26.687  45.851  54.467  1.00  0.00     0.214 C 
BRANCH  28  29
HETATM   29  C   UNL     1      27.985  45.107  54.682  1.00  0.00    -0.034 A 
HETATM   30  C   UNL     1      28.916  45.580  55.620  1.00  0.00     0.009 A 
HETATM   31  C   UNL     1      30.091  44.870  55.876  1.00  0.00     0.001 A 
HETATM   32  C   UNL     1      30.345  43.676  55.204  1.00  0.00     0.000 A 
HETATM   33  C   UNL     1      29.424  43.189  54.279  1.00  0.00     0.001 A 
HETATM   34  C   UNL     1      28.248  43.897  54.024  1.00  0.00     0.009 A 
ENDBRANCH  28  29
ENDBRANCH  27  28
ENDBRANCH  24  27
ENDBRANCH   1  21
TORSDOF 6
ENDMDL
