MODEL 1
REMARK VINA RESULT:     -10.4      0.000      0.000
REMARK  9 active torsions:
REMARK  status: ('A' for Active; 'I' for Inactive)
REMARK    1  A    between atoms: O_2  and  C_3 
REMARK    2  A    between atoms: C_6  and  C_7 
REMARK    3  A    between atoms: C_7  and  C_8 
REMARK    4  A    between atoms: C_8  and  N_9 
REMARK       I    between atoms: N_9  and  C_10 
REMARK    5  A    between atoms: C_10  and  C_11 
REMARK    6  A    between atoms: C_12  and  N_13 
REMARK    7  A    between atoms: N_14  and  C_15 
REMARK    8  A    between atoms: C_18  and  S_19 
REMARK    9  A    between atoms: S_19  and  N_20 
ROOT
HETATM    1  C   UNL     1      24.580  46.963  50.344  1.00  0.00     0.103 C 
HETATM    2  C   UNL     1      24.019  45.747  49.966  1.00  0.00     0.105 C 
HETATM    3  N   UNL     1      24.889  44.746  50.421  1.00  0.00    -0.284 N 
HETATM    4  C   UNL     1      25.489  45.272  51.561  1.00  0.00     0.166 A 
HETATM    5  C   UNL     1      25.386  46.660  51.468  1.00  0.00     0.123 A 
HETATM    6  N   UNL     1      26.000  47.472  52.365  1.00  0.00    -0.242 NA
HETATM    7  C   UNL     1      26.613  46.843  53.376  1.00  0.00     0.086 A 
HETATM    8  C   UNL     1      26.668  45.430  53.478  1.00  0.00     0.088 A 
HETATM    9  N   UNL     1      26.130  44.613  52.556  1.00  0.00    -0.226 NA
HETATM   10  C   UNL     1      27.202  47.612  54.372  1.00  0.00     0.034 A 
HETATM   11  C   UNL     1      27.833  47.027  55.471  1.00  0.00     0.002 A 
HETATM   12  C   UNL     1      27.881  45.644  55.574  1.00  0.00     0.002 A 
HETATM   13  C   UNL     1      27.302  44.860  54.574  1.00  0.00     0.034 A 
ENDROOT
BRANCH   3  14
HETATM   14  C   UNL     1      25.200  43.502  49.758  1.00  0.00     0.042 A 
HETATM   15  C   UNL     1      24.221  42.511  49.581  1.00  0.00     0.031 A 
HETATM   16  C   UNL     1      24.561  41.241  49.095  1.00  0.00     0.027 A 
HETATM   17  C   UNL     1      25.887  40.958  48.767  1.00  0.00     0.074 A 
HETATM   18  C   UNL     1      26.869  41.931  48.908  1.00  0.00     0.027 A 
HETATM   19  C   UNL     1      26.529  43.186  49.418  1.00  0.00     0.031 A 
BRANCH  17  20
HETATM   20  S   UNL     1      26.341  39.334  48.221  1.00  0.00     0.243 S 
HETATM   21  O   UNL     1      26.511  38.498  49.391  1.00  0.00    -0.206 OA
HETATM   22  O   UNL     1      25.422  38.966  47.167  1.00  0.00    -0.206 OA
BRANCH  20  23
HETATM   23  N   UNL     1      27.878  39.560  47.528  1.00  0.00    -0.202 NA
HETATM   24  C   UNL     1      28.915  38.516  47.803  1.00  0.00     0.134 C 
HETATM   25  C   UNL     1      28.799  37.315  46.857  1.00  0.00     0.183 C 
HETATM   26  O   UNL     1      28.817  37.725  45.483  1.00  0.00    -0.389 OA
HETATM   27  C   UNL     1      27.731  38.621  45.211  1.00  0.00     0.183 C 
HETATM   28  C   UNL     1      27.849  39.888  46.065  1.00  0.00     0.134 C 
ENDBRANCH  20  23
ENDBRANCH  17  20
ENDBRANCH   3  14
BRANCH   2  29
HETATM   29  N   UNL     1      22.887  45.515  49.242  1.00  0.00    -0.287 NA
HETATM   30  H   UNL     1      21.995  45.561  49.740  1.00  0.00     0.125 HD
HETATM   31  H   UNL     1      22.884  44.705  48.618  1.00  0.00     0.125 HD
ENDBRANCH   2  29
BRANCH   1  32
HETATM   32  C   UNL     1      24.322  48.261  49.736  1.00  0.00     0.257 C 
HETATM   33  N   UNL     1      22.973  48.522  49.567  1.00  0.00    -0.356 N 
HETATM   34  H   UNL     1      22.341  47.761  49.797  1.00  0.00     0.162 HD
HETATM   35  O   UNL     1      25.199  49.008  49.317  1.00  0.00    -0.267 OA
BRANCH  33  36
HETATM   36  C   UNL     1      22.499  49.473  48.583  1.00  0.00     0.127 C 
BRANCH  36  37
HETATM   37  C   UNL     1      22.113  50.824  49.204  1.00  0.00     0.058 C 
BRANCH  37  38
HETATM   38  C   UNL     1      20.618  51.026  49.338  1.00  0.00    -0.057 A 
HETATM   39  C   UNL     1      19.854  50.206  50.178  1.00  0.00     0.010 A 
HETATM   40  C   UNL     1      18.473  50.410  50.312  1.00  0.00     0.037 A 
HETATM   41  C   UNL     1      17.843  51.435  49.607  1.00  0.00     0.068 A 
HETATM   42  C   UNL     1      18.596  52.232  48.744  1.00  0.00     0.037 A 
HETATM   43  C   UNL     1      19.974  52.037  48.615  1.00  0.00     0.010 A 
BRANCH  41  44
HETATM   44  O   UNL     1      16.512  51.742  49.662  1.00  0.00    -0.356 OA
HETATM   45  C   UNL     1      16.187  53.090  49.980  1.00  0.00     0.210 C 
ENDBRANCH  41  44
ENDBRANCH  37  38
ENDBRANCH  36  37
ENDBRANCH  33  36
ENDBRANCH   1  32
TORSDOF 9
ENDMDL
MODEL 2
REMARK VINA RESULT:     -10.4      2.177      3.208
REMARK  9 active torsions:
REMARK  status: ('A' for Active; 'I' for Inactive)
REMARK    1  A    between atoms: O_2  and  C_3 
REMARK    2  A    between atoms: C_6  and  C_7 
REMARK    3  A    between atoms: C_7  and  C_8 
REMARK    4  A    between atoms: C_8  and  N_9 
REMARK       I    between atoms: N_9  and  C_10 
REMARK    5  A    between atoms: C_10  and  C_11 
REMARK    6  A    between atoms: C_12  and  N_13 
REMARK    7  A    between atoms: N_14  and  C_15 
REMARK    8  A    between atoms: C_18  and  S_19 
REMARK    9  A    between atoms: S_19  and  N_20 
ROOT
HETATM    1  C   UNL     1      26.040  45.027  52.564  1.00  0.00     0.103 C 
HETATM    2  C   UNL     1      25.604  43.755  52.207  1.00  0.00     0.105 C 
HETATM    3  N   UNL     1      26.729  42.918  52.253  1.00  0.00    -0.284 N 
HETATM    4  C   UNL     1      27.554  43.467  53.230  1.00  0.00     0.166 A 
HETATM    5  C   UNL     1      27.194  44.809  53.355  1.00  0.00     0.123 A 
HETATM    6  N   UNL     1      27.908  45.659  54.135  1.00  0.00    -0.242 NA
HETATM    7  C   UNL     1      28.901  45.092  54.832  1.00  0.00     0.086 A 
HETATM    8  C   UNL     1      29.224  43.716  54.725  1.00  0.00     0.088 A 
HETATM    9  N   UNL     1      28.573  42.878  53.899  1.00  0.00    -0.226 NA
HETATM   10  C   UNL     1      29.631  45.887  55.708  1.00  0.00     0.034 A 
HETATM   11  C   UNL     1      30.660  45.361  56.489  1.00  0.00     0.002 A 
HETATM   12  C   UNL     1      30.972  44.012  56.389  1.00  0.00     0.002 A 
HETATM   13  C   UNL     1      30.253  43.205  55.506  1.00  0.00     0.034 A 
ENDROOT
BRANCH   3  14
HETATM   14  C   UNL     1      27.024  41.816  51.370  1.00  0.00     0.042 A 
HETATM   15  C   UNL     1      26.034  41.267  50.538  1.00  0.00     0.031 A 
HETATM   16  C   UNL     1      26.273  40.093  49.811  1.00  0.00     0.027 A 
HETATM   17  C   UNL     1      27.515  39.465  49.900  1.00  0.00     0.074 A 
HETATM   18  C   UNL     1      28.520  40.002  50.697  1.00  0.00     0.027 A 
HETATM   19  C   UNL     1      28.267  41.158  51.439  1.00  0.00     0.031 A 
BRANCH  17  20
HETATM   20  S   UNL     1      27.804  37.940  49.044  1.00  0.00     0.243 S 
HETATM   21  O   UNL     1      29.218  37.855  48.742  1.00  0.00    -0.206 OA
HETATM   22  O   UNL     1      27.135  36.899  49.791  1.00  0.00    -0.206 OA
BRANCH  20  23
HETATM   23  N   UNL     1      26.980  38.146  47.570  1.00  0.00    -0.202 NA
HETATM   24  C   UNL     1      27.806  38.426  46.353  1.00  0.00     0.134 C 
HETATM   25  C   UNL     1      28.365  37.145  45.722  1.00  0.00     0.183 C 
HETATM   26  O   UNL     1      27.325  36.199  45.444  1.00  0.00    -0.389 OA
HETATM   27  C   UNL     1      26.634  35.843  46.649  1.00  0.00     0.183 C 
HETATM   28  C   UNL     1      25.972  37.076  47.276  1.00  0.00     0.134 C 
ENDBRANCH  20  23
ENDBRANCH  17  20
ENDBRANCH   3  14
BRANCH   2  29
HETATM   29  N   UNL     1      24.360  43.354  51.817  1.00  0.00    -0.287 NA
HETATM   30  H   UNL     1      23.560  43.829  52.243  1.00  0.00     0.125 HD
HETATM   31  H   UNL     1      24.176  42.348  51.786  1.00  0.00     0.125 HD
ENDBRANCH   2  29
BRANCH   1  32
HETATM   32  C   UNL     1      25.391  46.288  52.234  1.00  0.00     0.257 C 
HETATM   33  N   UNL     1      24.854  46.304  50.958  1.00  0.00    -0.356 N 
HETATM   34  H   UNL     1      25.049  45.489  50.383  1.00  0.00     0.162 HD
HETATM   35  O   UNL     1      25.403  47.275  52.959  1.00  0.00    -0.267 OA
BRANCH  33  36
HETATM   36  C   UNL     1      24.610  47.543  50.249  1.00  0.00     0.127 C 
BRANCH  36  37
HETATM   37  C   UNL     1      23.498  47.414  49.198  1.00  0.00     0.058 C 
BRANCH  37  38
HETATM   38  C   UNL     1      22.673  48.672  49.028  1.00  0.00    -0.057 A 
HETATM   39  C   UNL     1      23.287  49.910  48.797  1.00  0.00     0.010 A 
HETATM   40  C   UNL     1      22.517  51.068  48.622  1.00  0.00     0.037 A 
HETATM   41  C   UNL     1      21.125  51.001  48.678  1.00  0.00     0.068 A 
HETATM   42  C   UNL     1      20.511  49.776  48.942  1.00  0.00     0.037 A 
HETATM   43  C   UNL     1      21.276  48.618  49.107  1.00  0.00     0.010 A 
BRANCH  41  44
HETATM   44  O   UNL     1      20.267  52.053  48.512  1.00  0.00    -0.356 OA
HETATM   45  C   UNL     1      19.025  51.968  49.201  1.00  0.00     0.210 C 
ENDBRANCH  41  44
ENDBRANCH  37  38
ENDBRANCH  36  37
ENDBRANCH  33  36
ENDBRANCH   1  32
TORSDOF 9
ENDMDL
MODEL 3
REMARK VINA RESULT:     -10.1      3.289     10.886
REMARK  9 active torsions:
REMARK  status: ('A' for Active; 'I' for Inactive)
REMARK    1  A    between atoms: O_2  and  C_3 
REMARK    2  A    between atoms: C_6  and  C_7 
REMARK    3  A    between atoms: C_7  and  C_8 
REMARK    4  A    between atoms: C_8  and  N_9 
REMARK       I    between atoms: N_9  and  C_10 
REMARK    5  A    between atoms: C_10  and  C_11 
REMARK    6  A    between atoms: C_12  and  N_13 
REMARK    7  A    between atoms: N_14  and  C_15 
REMARK    8  A    between atoms: C_18  and  S_19 
REMARK    9  A    between atoms: S_19  and  N_20 
ROOT
HETATM    1  C   UNL     1      25.838  42.064  50.072  1.00  0.00     0.103 C 
HETATM    2  C   UNL     1      24.856  42.922  50.557  1.00  0.00     0.105 C 
HETATM    3  N   UNL     1      24.302  43.570  49.443  1.00  0.00    -0.284 N 
HETATM    4  C   UNL     1      24.424  42.663  48.395  1.00  0.00     0.166 A 
HETATM    5  C   UNL     1      25.450  41.782  48.739  1.00  0.00     0.123 A 
HETATM    6  N   UNL     1      25.908  40.858  47.860  1.00  0.00    -0.242 NA
HETATM    7  C   UNL     1      25.243  40.799  46.698  1.00  0.00     0.086 A 
HETATM    8  C   UNL     1      24.173  41.673  46.384  1.00  0.00     0.088 A 
HETATM    9  N   UNL     1      23.758  42.644  47.216  1.00  0.00    -0.226 NA
HETATM   10  C   UNL     1      25.610  39.826  45.776  1.00  0.00     0.034 A 
HETATM   11  C   UNL     1      24.943  39.684  44.558  1.00  0.00     0.002 A 
HETATM   12  C   UNL     1      23.891  40.536  44.253  1.00  0.00     0.002 A 
HETATM   13  C   UNL     1      23.519  41.524  45.167  1.00  0.00     0.034 A 
ENDROOT
BRANCH   3  14
HETATM   14  C   UNL     1      23.845  44.936  49.375  1.00  0.00     0.042 A 
HETATM   15  C   UNL     1      22.668  45.274  48.686  1.00  0.00     0.031 A 
HETATM   16  C   UNL     1      22.317  46.614  48.473  1.00  0.00     0.027 A 
HETATM   17  C   UNL     1      23.135  47.630  48.965  1.00  0.00     0.074 A 
HETATM   18  C   UNL     1      24.291  47.322  49.673  1.00  0.00     0.027 A 
HETATM   19  C   UNL     1      24.650  45.985  49.859  1.00  0.00     0.031 A 
BRANCH  17  20
HETATM   20  S   UNL     1      22.740  49.327  48.639  1.00  0.00     0.243 S 
HETATM   21  O   UNL     1      22.979  50.085  49.848  1.00  0.00    -0.206 OA
HETATM   22  O   UNL     1      23.384  49.682  47.393  1.00  0.00    -0.206 OA
BRANCH  20  23
HETATM   23  N   UNL     1      21.059  49.303  48.376  1.00  0.00    -0.202 NA
HETATM   24  C   UNL     1      20.181  49.085  49.569  1.00  0.00     0.134 C 
HETATM   25  C   UNL     1      19.919  50.382  50.344  1.00  0.00     0.183 C 
HETATM   26  O   UNL     1      19.399  51.409  49.490  1.00  0.00    -0.389 OA
HETATM   27  C   UNL     1      20.322  51.695  48.429  1.00  0.00     0.183 C 
HETATM   28  C   UNL     1      20.549  50.453  47.561  1.00  0.00     0.134 C 
ENDBRANCH  20  23
ENDBRANCH  17  20
ENDBRANCH   3  14
BRANCH   2  29
HETATM   29  N   UNL     1      24.502  43.174  51.851  1.00  0.00    -0.287 NA
HETATM   30  H   UNL     1      24.314  42.366  52.450  1.00  0.00     0.125 HD
HETATM   31  H   UNL     1      23.790  43.889  52.014  1.00  0.00     0.125 HD
ENDBRANCH   2  29
BRANCH   1  32
HETATM   32  C   UNL     1      26.972  41.537  50.818  1.00  0.00     0.257 C 
HETATM   33  N   UNL     1      26.845  41.703  52.186  1.00  0.00    -0.356 N 
HETATM   34  H   UNL     1      26.040  42.240  52.497  1.00  0.00     0.162 HD
HETATM   35  O   UNL     1      27.986  41.087  50.297  1.00  0.00    -0.267 OA
BRANCH  33  36
HETATM   36  C   UNL     1      27.998  41.715  53.063  1.00  0.00     0.127 C 
BRANCH  36  37
HETATM   37  C   UNL     1      28.945  42.890  52.779  1.00  0.00     0.058 C 
BRANCH  37  38
HETATM   38  C   UNL     1      29.320  43.681  54.014  1.00  0.00    -0.057 A 
HETATM   39  C   UNL     1      30.389  43.283  54.827  1.00  0.00     0.010 A 
HETATM   40  C   UNL     1      30.743  44.030  55.959  1.00  0.00     0.037 A 
HETATM   41  C   UNL     1      30.030  45.182  56.290  1.00  0.00     0.068 A 
HETATM   42  C   UNL     1      28.944  45.563  55.502  1.00  0.00     0.037 A 
HETATM   43  C   UNL     1      28.595  44.825  54.368  1.00  0.00     0.010 A 
BRANCH  41  44
HETATM   44  O   UNL     1      30.284  45.999  57.357  1.00  0.00    -0.356 OA
HETATM   45  C   UNL     1      30.834  45.376  58.512  1.00  0.00     0.210 C 
ENDBRANCH  41  44
ENDBRANCH  37  38
ENDBRANCH  36  37
ENDBRANCH  33  36
ENDBRANCH   1  32
TORSDOF 9
ENDMDL
MODEL 4
REMARK VINA RESULT:     -10.1      3.480     10.957
REMARK  9 active torsions:
REMARK  status: ('A' for Active; 'I' for Inactive)
REMARK    1  A    between atoms: O_2  and  C_3 
REMARK    2  A    between atoms: C_6  and  C_7 
REMARK    3  A    between atoms: C_7  and  C_8 
REMARK    4  A    between atoms: C_8  and  N_9 
REMARK       I    between atoms: N_9  and  C_10 
REMARK    5  A    between atoms: C_10  and  C_11 
REMARK    6  A    between atoms: C_12  and  N_13 
REMARK    7  A    between atoms: N_14  and  C_15 
REMARK    8  A    between atoms: C_18  and  S_19 
REMARK    9  A    between atoms: S_19  and  N_20 
ROOT
HETATM    1  C   UNL     1      25.459  43.295  50.183  1.00  0.00     0.103 C 
HETATM    2  C   UNL     1      24.345  44.034  50.569  1.00  0.00     0.105 C 
HETATM    3  N   UNL     1      23.435  43.975  49.503  1.00  0.00    -0.284 N 
HETATM    4  C   UNL     1      23.671  42.750  48.888  1.00  0.00     0.166 A 
HETATM    5  C   UNL     1      24.970  42.370  49.228  1.00  0.00     0.123 A 
HETATM    6  N   UNL     1      25.553  41.280  48.671  1.00  0.00    -0.242 NA
HETATM    7  C   UNL     1      24.761  40.562  47.863  1.00  0.00     0.086 A 
HETATM    8  C   UNL     1      23.429  40.939  47.564  1.00  0.00     0.088 A 
HETATM    9  N   UNL     1      22.863  42.059  48.049  1.00  0.00    -0.226 NA
HETATM   10  C   UNL     1      25.268  39.391  47.312  1.00  0.00     0.034 A 
HETATM   11  C   UNL     1      24.493  38.576  46.486  1.00  0.00     0.002 A 
HETATM   12  C   UNL     1      23.186  38.942  46.198  1.00  0.00     0.002 A 
HETATM   13  C   UNL     1      22.669  40.122  46.737  1.00  0.00     0.034 A 
ENDROOT
BRANCH   3  14
HETATM   14  C   UNL     1      22.552  45.026  49.059  1.00  0.00     0.042 A 
HETATM   15  C   UNL     1      23.039  46.315  48.787  1.00  0.00     0.031 A 
HETATM   16  C   UNL     1      22.162  47.376  48.523  1.00  0.00     0.027 A 
HETATM   17  C   UNL     1      20.786  47.150  48.515  1.00  0.00     0.074 A 
HETATM   18  C   UNL     1      20.280  45.878  48.757  1.00  0.00     0.027 A 
HETATM   19  C   UNL     1      21.158  44.830  49.044  1.00  0.00     0.031 A 
BRANCH  17  20
HETATM   20  S   UNL     1      19.665  48.499  48.257  1.00  0.00     0.243 S 
HETATM   21  O   UNL     1      20.013  49.139  47.006  1.00  0.00    -0.206 OA
HETATM   22  O   UNL     1      18.330  47.994  48.492  1.00  0.00    -0.206 OA
BRANCH  20  23
HETATM   23  N   UNL     1      20.048  49.584  49.509  1.00  0.00    -0.202 NA
HETATM   24  C   UNL     1      20.750  50.851  49.130  1.00  0.00     0.134 C 
HETATM   25  C   UNL     1      19.778  51.936  48.652  1.00  0.00     0.183 C 
HETATM   26  O   UNL     1      18.745  52.177  49.616  1.00  0.00    -0.389 OA
HETATM   27  C   UNL     1      17.998  50.977  49.863  1.00  0.00     0.183 C 
HETATM   28  C   UNL     1      18.907  49.883  50.433  1.00  0.00     0.134 C 
ENDBRANCH  20  23
ENDBRANCH  17  20
ENDBRANCH   3  14
BRANCH   2  29
HETATM   29  N   UNL     1      24.146  44.749  51.714  1.00  0.00    -0.287 NA
HETATM   30  H   UNL     1      24.908  45.356  52.025  1.00  0.00     0.125 HD
HETATM   31  H   UNL     1      23.762  44.251  52.520  1.00  0.00     0.125 HD
ENDBRANCH   2  29
BRANCH   1  32
HETATM   32  C   UNL     1      26.809  43.425  50.712  1.00  0.00     0.257 C 
HETATM   33  N   UNL     1      27.413  42.205  50.963  1.00  0.00    -0.356 N 
HETATM   34  H   UNL     1      26.827  41.385  50.837  1.00  0.00     0.162 HD
HETATM   35  O   UNL     1      27.329  44.494  51.009  1.00  0.00    -0.267 OA
BRANCH  33  36
HETATM   36  C   UNL     1      28.503  42.073  51.907  1.00  0.00     0.127 C 
BRANCH  36  37
HETATM   37  C   UNL     1      28.022  42.042  53.365  1.00  0.00     0.058 C 
BRANCH  37  38
HETATM   38  C   UNL     1      28.633  43.125  54.229  1.00  0.00    -0.057 A 
HETATM   39  C   UNL     1      27.941  44.314  54.490  1.00  0.00     0.010 A 
HETATM   40  C   UNL     1      28.505  45.305  55.306  1.00  0.00     0.037 A 
HETATM   41  C   UNL     1      29.767  45.116  55.869  1.00  0.00     0.068 A 
HETATM   42  C   UNL     1      30.473  43.947  55.585  1.00  0.00     0.037 A 
HETATM   43  C   UNL     1      29.910  42.954  54.779  1.00  0.00     0.010 A 
BRANCH  41  44
HETATM   44  O   UNL     1      30.416  45.998  56.688  1.00  0.00    -0.356 OA
HETATM   45  C   UNL     1      30.508  45.635  58.061  1.00  0.00     0.210 C 
ENDBRANCH  41  44
ENDBRANCH  37  38
ENDBRANCH  36  37
ENDBRANCH  33  36
ENDBRANCH   1  32
TORSDOF 9
ENDMDL
MODEL 5
REMARK VINA RESULT:     -10.1      4.701     11.354
REMARK  9 active torsions:
REMARK  status: ('A' for Active; 'I' for Inactive)
REMARK    1  A    between atoms: O_2  and  C_3 
REMARK    2  A    between atoms: C_6  and  C_7 
REMARK    3  A    between atoms: C_7  and  C_8 
REMARK    4  A    between atoms: C_8  and  N_9 
REMARK       I    between atoms: N_9  and  C_10 
REMARK    5  A    between atoms: C_10  and  C_11 
REMARK    6  A    between atoms: C_12  and  N_13 
REMARK    7  A    between atoms: N_14  and  C_15 
REMARK    8  A    between atoms: C_18  and  S_19 
REMARK    9  A    between atoms: S_19  and  N_20 
ROOT
HETATM    1  C   UNL     1      23.199  45.369  49.708  1.00  0.00     0.103 C 
HETATM    2  C   UNL     1      22.084  45.390  48.876  1.00  0.00     0.105 C 
HETATM    3  N   UNL     1      21.820  46.737  48.591  1.00  0.00    -0.284 N 
HETATM    4  C   UNL     1      23.058  47.370  48.638  1.00  0.00     0.166 A 
HETATM    5  C   UNL     1      23.893  46.569  49.418  1.00  0.00     0.123 A 
HETATM    6  N   UNL     1      25.136  46.981  49.770  1.00  0.00    -0.242 NA
HETATM    7  C   UNL     1      25.520  48.149  49.237  1.00  0.00     0.086 A 
HETATM    8  C   UNL     1      24.674  48.928  48.409  1.00  0.00     0.088 A 
HETATM    9  N   UNL     1      23.412  48.568  48.114  1.00  0.00    -0.226 NA
HETATM   10  C   UNL     1      26.809  48.600  49.495  1.00  0.00     0.034 A 
HETATM   11  C   UNL     1      27.290  49.791  48.950  1.00  0.00     0.002 A 
HETATM   12  C   UNL     1      26.463  50.551  48.134  1.00  0.00     0.002 A 
HETATM   13  C   UNL     1      25.163  50.114  47.876  1.00  0.00     0.034 A 
ENDROOT
BRANCH   3  14
HETATM   14  C   UNL     1      20.524  47.351  48.434  1.00  0.00     0.042 A 
HETATM   15  C   UNL     1      20.048  47.725  47.166  1.00  0.00     0.031 A 
HETATM   16  C   UNL     1      18.871  48.474  47.030  1.00  0.00     0.027 A 
HETATM   17  C   UNL     1      18.151  48.842  48.166  1.00  0.00     0.074 A 
HETATM   18  C   UNL     1      18.587  48.463  49.430  1.00  0.00     0.027 A 
HETATM   19  C   UNL     1      19.775  47.738  49.561  1.00  0.00     0.031 A 
BRANCH  17  20
HETATM   20  S   UNL     1      16.701  49.851  48.012  1.00  0.00     0.243 S 
HETATM   21  O   UNL     1      15.546  48.979  47.992  1.00  0.00    -0.206 OA
HETATM   22  O   UNL     1      16.818  50.915  48.984  1.00  0.00    -0.206 OA
BRANCH  20  23
HETATM   23  N   UNL     1      16.852  50.533  46.460  1.00  0.00    -0.202 NA
HETATM   24  C   UNL     1      15.969  49.988  45.382  1.00  0.00     0.134 C 
HETATM   25  C   UNL     1      14.574  50.625  45.393  1.00  0.00     0.183 C 
HETATM   26  O   UNL     1      14.649  52.055  45.338  1.00  0.00    -0.389 OA
HETATM   27  C   UNL     1      15.387  52.563  46.458  1.00  0.00     0.183 C 
HETATM   28  C   UNL     1      16.824  52.032  46.444  1.00  0.00     0.134 C 
ENDBRANCH  20  23
ENDBRANCH  17  20
ENDBRANCH   3  14
BRANCH   2  29
HETATM   29  N   UNL     1      21.320  44.346  48.443  1.00  0.00    -0.287 NA
HETATM   30  H   UNL     1      21.648  43.402  48.663  1.00  0.00     0.125 HD
HETATM   31  H   UNL     1      20.991  44.371  47.475  1.00  0.00     0.125 HD
ENDBRANCH   2  29
BRANCH   1  32
HETATM   32  C   UNL     1      23.577  44.300  50.622  1.00  0.00     0.257 C 
HETATM   33  N   UNL     1      24.516  44.695  51.559  1.00  0.00    -0.356 N 
HETATM   34  H   UNL     1      24.889  45.634  51.447  1.00  0.00     0.162 HD
HETATM   35  O   UNL     1      23.193  43.142  50.518  1.00  0.00    -0.267 OA
BRANCH  33  36
HETATM   36  C   UNL     1      25.378  43.740  52.225  1.00  0.00     0.127 C 
BRANCH  36  37
HETATM   37  C   UNL     1      25.627  44.094  53.698  1.00  0.00     0.058 C 
BRANCH  37  38
HETATM   38  C   UNL     1      27.069  43.925  54.127  1.00  0.00    -0.057 A 
HETATM   39  C   UNL     1      27.761  44.969  54.755  1.00  0.00     0.010 A 
HETATM   40  C   UNL     1      29.090  44.800  55.167  1.00  0.00     0.037 A 
HETATM   41  C   UNL     1      29.742  43.584  54.955  1.00  0.00     0.068 A 
HETATM   42  C   UNL     1      29.067  42.553  54.300  1.00  0.00     0.037 A 
HETATM   43  C   UNL     1      27.739  42.717  53.897  1.00  0.00     0.010 A 
BRANCH  41  44
HETATM   44  O   UNL     1      31.027  43.293  55.320  1.00  0.00    -0.356 OA
HETATM   45  C   UNL     1      31.395  43.628  56.653  1.00  0.00     0.210 C 
ENDBRANCH  41  44
ENDBRANCH  37  38
ENDBRANCH  36  37
ENDBRANCH  33  36
ENDBRANCH   1  32
TORSDOF 9
ENDMDL
MODEL 6
REMARK VINA RESULT:      -9.9      3.349     10.285
REMARK  9 active torsions:
REMARK  status: ('A' for Active; 'I' for Inactive)
REMARK    1  A    between atoms: O_2  and  C_3 
REMARK    2  A    between atoms: C_6  and  C_7 
REMARK    3  A    between atoms: C_7  and  C_8 
REMARK    4  A    between atoms: C_8  and  N_9 
REMARK       I    between atoms: N_9  and  C_10 
REMARK    5  A    between atoms: C_10  and  C_11 
REMARK    6  A    between atoms: C_12  and  N_13 
REMARK    7  A    between atoms: N_14  and  C_15 
REMARK    8  A    between atoms: C_18  and  S_19 
REMARK    9  A    between atoms: S_19  and  N_20 
ROOT
HETATM    1  C   UNL     1      24.609  43.254  49.687  1.00  0.00     0.103 C 
HETATM    2  C   UNL     1      24.185  44.022  48.608  1.00  0.00     0.105 C 
HETATM    3  N   UNL     1      23.673  45.214  49.140  1.00  0.00    -0.284 N 
HETATM    4  C   UNL     1      24.389  45.429  50.313  1.00  0.00     0.166 A 
HETATM    5  C   UNL     1      24.892  44.189  50.712  1.00  0.00     0.123 A 
HETATM    6  N   UNL     1      25.524  44.037  51.902  1.00  0.00    -0.242 NA
HETATM    7  C   UNL     1      25.708  45.168  52.597  1.00  0.00     0.086 A 
HETATM    8  C   UNL     1      25.229  46.426  52.154  1.00  0.00     0.088 A 
HETATM    9  N   UNL     1      24.534  46.579  51.013  1.00  0.00    -0.226 NA
HETATM   10  C   UNL     1      26.413  45.100  53.793  1.00  0.00     0.034 A 
HETATM   11  C   UNL     1      26.669  46.240  54.557  1.00  0.00     0.002 A 
HETATM   12  C   UNL     1      26.206  47.473  54.119  1.00  0.00     0.002 A 
HETATM   13  C   UNL     1      25.488  47.552  52.925  1.00  0.00     0.034 A 
ENDROOT
BRANCH   3  14
HETATM   14  C   UNL     1      22.545  45.968  48.648  1.00  0.00     0.042 A 
HETATM   15  C   UNL     1      22.709  47.266  48.135  1.00  0.00     0.031 A 
HETATM   16  C   UNL     1      21.598  48.060  47.819  1.00  0.00     0.027 A 
HETATM   17  C   UNL     1      20.311  47.554  47.999  1.00  0.00     0.074 A 
HETATM   18  C   UNL     1      20.124  46.264  48.481  1.00  0.00     0.027 A 
HETATM   19  C   UNL     1      21.234  45.486  48.819  1.00  0.00     0.031 A 
BRANCH  17  20
HETATM   20  S   UNL     1      18.900  48.576  47.673  1.00  0.00     0.243 S 
HETATM   21  O   UNL     1      19.343  49.725  46.912  1.00  0.00    -0.206 OA
HETATM   22  O   UNL     1      17.853  47.709  47.178  1.00  0.00    -0.206 OA
BRANCH  20  23
HETATM   23  N   UNL     1      18.442  49.131  49.214  1.00  0.00    -0.202 NA
HETATM   24  C   UNL     1      19.537  49.417  50.194  1.00  0.00     0.134 C 
HETATM   25  C   UNL     1      20.138  50.814  50.004  1.00  0.00     0.183 C 
HETATM   26  O   UNL     1      19.128  51.830  50.033  1.00  0.00    -0.389 OA
HETATM   27  C   UNL     1      18.162  51.609  48.996  1.00  0.00     0.183 C 
HETATM   28  C   UNL     1      17.459  50.262  49.192  1.00  0.00     0.134 C 
ENDBRANCH  20  23
ENDBRANCH  17  20
ENDBRANCH   3  14
BRANCH   2  29
HETATM   29  N   UNL     1      24.181  43.706  47.280  1.00  0.00    -0.287 NA
HETATM   30  H   UNL     1      25.013  43.954  46.738  1.00  0.00     0.125 HD
HETATM   31  H   UNL     1      23.345  43.940  46.742  1.00  0.00     0.125 HD
ENDBRANCH   2  29
BRANCH   1  32
HETATM   32  C   UNL     1      24.778  41.807  49.707  1.00  0.00     0.257 C 
HETATM   33  N   UNL     1      25.563  41.368  50.760  1.00  0.00    -0.356 N 
HETATM   34  H   UNL     1      25.992  42.093  51.328  1.00  0.00     0.162 HD
HETATM   35  O   UNL     1      24.365  41.057  48.832  1.00  0.00    -0.267 OA
BRANCH  33  36
HETATM   36  C   UNL     1      26.255  40.097  50.715  1.00  0.00     0.127 C 
BRANCH  36  37
HETATM   37  C   UNL     1      27.782  40.252  50.772  1.00  0.00     0.058 C 
BRANCH  37  38
HETATM   38  C   UNL     1      28.256  41.208  51.846  1.00  0.00    -0.057 A 
HETATM   39  C   UNL     1      28.174  40.866  53.201  1.00  0.00     0.010 A 
HETATM   40  C   UNL     1      28.631  41.749  54.190  1.00  0.00     0.037 A 
HETATM   41  C   UNL     1      29.175  42.983  53.833  1.00  0.00     0.068 A 
HETATM   42  C   UNL     1      29.227  43.341  52.486  1.00  0.00     0.037 A 
HETATM   43  C   UNL     1      28.780  42.459  51.497  1.00  0.00     0.010 A 
BRANCH  41  44
HETATM   44  O   UNL     1      29.664  43.921  54.699  1.00  0.00    -0.356 OA
HETATM   45  C   UNL     1      30.732  43.504  55.543  1.00  0.00     0.210 C 
ENDBRANCH  41  44
ENDBRANCH  37  38
ENDBRANCH  36  37
ENDBRANCH  33  36
ENDBRANCH   1  32
TORSDOF 9
ENDMDL
MODEL 7
REMARK VINA RESULT:      -9.4      2.690     10.712
REMARK  9 active torsions:
REMARK  status: ('A' for Active; 'I' for Inactive)
REMARK    1  A    between atoms: O_2  and  C_3 
REMARK    2  A    between atoms: C_6  and  C_7 
REMARK    3  A    between atoms: C_7  and  C_8 
REMARK    4  A    between atoms: C_8  and  N_9 
REMARK       I    between atoms: N_9  and  C_10 
REMARK    5  A    between atoms: C_10  and  C_11 
REMARK    6  A    between atoms: C_12  and  N_13 
REMARK    7  A    between atoms: N_14  and  C_15 
REMARK    8  A    between atoms: C_18  and  S_19 
REMARK    9  A    between atoms: S_19  and  N_20 
ROOT
HETATM    1  C   UNL     1      24.829  43.285  49.936  1.00  0.00     0.103 C 
HETATM    2  C   UNL     1      24.453  44.121  48.889  1.00  0.00     0.105 C 
HETATM    3  N   UNL     1      24.081  45.344  49.465  1.00  0.00    -0.284 N 
HETATM    4  C   UNL     1      24.850  45.453  50.620  1.00  0.00     0.166 A 
HETATM    5  C   UNL     1      25.235  44.159  50.973  1.00  0.00     0.123 A 
HETATM    6  N   UNL     1      25.884  43.912  52.138  1.00  0.00    -0.242 NA
HETATM    7  C   UNL     1      26.202  44.999  52.853  1.00  0.00     0.086 A 
HETATM    8  C   UNL     1      25.841  46.310  52.456  1.00  0.00     0.088 A 
HETATM    9  N   UNL     1      25.132  46.563  51.342  1.00  0.00    -0.226 NA
HETATM   10  C   UNL     1      26.931  44.828  54.024  1.00  0.00     0.034 A 
HETATM   11  C   UNL     1      27.325  45.915  54.806  1.00  0.00     0.002 A 
HETATM   12  C   UNL     1      26.977  47.200  54.413  1.00  0.00     0.002 A 
HETATM   13  C   UNL     1      26.236  47.384  53.244  1.00  0.00     0.034 A 
ENDROOT
BRANCH   3  14
HETATM   14  C   UNL     1      23.022  46.221  49.028  1.00  0.00     0.042 A 
HETATM   15  C   UNL     1      23.190  47.615  49.024  1.00  0.00     0.031 A 
HETATM   16  C   UNL     1      22.111  48.471  48.766  1.00  0.00     0.027 A 
HETATM   17  C   UNL     1      20.853  47.934  48.492  1.00  0.00     0.074 A 
HETATM   18  C   UNL     1      20.667  46.556  48.464  1.00  0.00     0.027 A 
HETATM   19  C   UNL     1      21.741  45.709  48.748  1.00  0.00     0.031 A 
BRANCH  17  20
HETATM   20  S   UNL     1      19.465  49.006  48.236  1.00  0.00     0.243 S 
HETATM   21  O   UNL     1      19.579  49.581  46.913  1.00  0.00    -0.206 OA
HETATM   22  O   UNL     1      18.282  48.274  48.634  1.00  0.00    -0.206 OA
BRANCH  20  23
HETATM   23  N   UNL     1      19.714  50.259  49.359  1.00  0.00    -0.202 NA
HETATM   24  C   UNL     1      20.164  51.583  48.823  1.00  0.00     0.134 C 
HETATM   25  C   UNL     1      18.994  52.434  48.317  1.00  0.00     0.183 C 
HETATM   26  O   UNL     1      17.984  52.590  49.322  1.00  0.00    -0.389 OA
HETATM   27  C   UNL     1      17.472  51.312  49.723  1.00  0.00     0.183 C 
HETATM   28  C   UNL     1      18.585  50.449  50.327  1.00  0.00     0.134 C 
ENDBRANCH  20  23
ENDBRANCH  17  20
ENDBRANCH   3  14
BRANCH   2  29
HETATM   29  N   UNL     1      24.378  43.842  47.555  1.00  0.00    -0.287 NA
HETATM   30  H   UNL     1      23.985  42.936  47.288  1.00  0.00     0.125 HD
HETATM   31  H   UNL     1      25.206  44.031  46.986  1.00  0.00     0.125 HD
ENDBRANCH   2  29
BRANCH   1  32
HETATM   32  C   UNL     1      24.850  41.829  49.916  1.00  0.00     0.257 C 
HETATM   33  N   UNL     1      25.707  41.287  50.859  1.00  0.00    -0.356 N 
HETATM   34  H   UNL     1      26.273  41.950  51.379  1.00  0.00     0.162 HD
HETATM   35  O   UNL     1      24.259  41.146  49.088  1.00  0.00    -0.267 OA
BRANCH  33  36
HETATM   36  C   UNL     1      26.255  39.954  50.713  1.00  0.00     0.127 C 
BRANCH  36  37
HETATM   37  C   UNL     1      27.697  39.962  50.187  1.00  0.00     0.058 C 
BRANCH  37  38
HETATM   38  C   UNL     1      27.795  39.857  48.680  1.00  0.00    -0.057 A 
HETATM   39  C   UNL     1      27.861  41.006  47.881  1.00  0.00     0.010 A 
HETATM   40  C   UNL     1      27.969  40.903  46.487  1.00  0.00     0.037 A 
HETATM   41  C   UNL     1      28.012  39.649  45.878  1.00  0.00     0.068 A 
HETATM   42  C   UNL     1      27.913  38.503  46.667  1.00  0.00     0.037 A 
HETATM   43  C   UNL     1      27.814  38.603  48.057  1.00  0.00     0.010 A 
BRANCH  41  44
HETATM   44  O   UNL     1      28.129  39.418  44.535  1.00  0.00    -0.356 OA
HETATM   45  C   UNL     1      28.781  40.428  43.775  1.00  0.00     0.210 C 
ENDBRANCH  41  44
ENDBRANCH  37  38
ENDBRANCH  36  37
ENDBRANCH  33  36
ENDBRANCH   1  32
TORSDOF 9
ENDMDL
MODEL 8
REMARK VINA RESULT:      -9.2      2.146      3.452
REMARK  9 active torsions:
REMARK  status: ('A' for Active; 'I' for Inactive)
REMARK    1  A    between atoms: O_2  and  C_3 
REMARK    2  A    between atoms: C_6  and  C_7 
REMARK    3  A    between atoms: C_7  and  C_8 
REMARK    4  A    between atoms: C_8  and  N_9 
REMARK       I    between atoms: N_9  and  C_10 
REMARK    5  A    between atoms: C_10  and  C_11 
REMARK    6  A    between atoms: C_12  and  N_13 
REMARK    7  A    between atoms: N_14  and  C_15 
REMARK    8  A    between atoms: C_18  and  S_19 
REMARK    9  A    between atoms: S_19  and  N_20 
ROOT
HETATM    1  C   UNL     1      25.403  43.916  50.684  1.00  0.00     0.103 C 
HETATM    2  C   UNL     1      25.143  42.608  50.290  1.00  0.00     0.105 C 
HETATM    3  N   UNL     1      26.325  41.883  50.501  1.00  0.00    -0.284 N 
HETATM    4  C   UNL     1      26.952  42.510  51.573  1.00  0.00     0.166 A 
HETATM    5  C   UNL     1      26.453  43.812  51.628  1.00  0.00     0.123 A 
HETATM    6  N   UNL     1      26.969  44.727  52.485  1.00  0.00    -0.242 NA
HETATM    7  C   UNL     1      27.907  44.260  53.320  1.00  0.00     0.086 A 
HETATM    8  C   UNL     1      28.370  42.921  53.279  1.00  0.00     0.088 A 
HETATM    9  N   UNL     1      27.921  42.023  52.384  1.00  0.00    -0.226 NA
HETATM   10  C   UNL     1      28.431  45.123  54.275  1.00  0.00     0.034 A 
HETATM   11  C   UNL     1      29.389  44.700  55.197  1.00  0.00     0.002 A 
HETATM   12  C   UNL     1      29.837  43.387  55.161  1.00  0.00     0.002 A 
HETATM   13  C   UNL     1      29.326  42.512  54.200  1.00  0.00     0.034 A 
ENDROOT
BRANCH   3  14
HETATM   14  C   UNL     1      26.842  40.813  49.684  1.00  0.00     0.042 A 
HETATM   15  C   UNL     1      27.580  41.082  48.519  1.00  0.00     0.031 A 
HETATM   16  C   UNL     1      27.933  40.052  47.635  1.00  0.00     0.027 A 
HETATM   17  C   UNL     1      27.563  38.738  47.922  1.00  0.00     0.074 A 
HETATM   18  C   UNL     1      26.855  38.443  49.081  1.00  0.00     0.027 A 
HETATM   19  C   UNL     1      26.483  39.476  49.944  1.00  0.00     0.031 A 
BRANCH  17  20
HETATM   20  S   UNL     1      27.940  37.439  46.776  1.00  0.00     0.243 S 
HETATM   21  O   UNL     1      29.378  37.284  46.730  1.00  0.00    -0.206 OA
HETATM   22  O   UNL     1      27.078  36.323  47.099  1.00  0.00    -0.206 OA
BRANCH  20  23
HETATM   23  N   UNL     1      27.447  38.072  45.276  1.00  0.00    -0.202 NA
HETATM   24  C   UNL     1      28.520  38.520  44.333  1.00  0.00     0.134 C 
HETATM   25  C   UNL     1      29.099  37.360  43.516  1.00  0.00     0.183 C 
HETATM   26  O   UNL     1      28.070  36.633  42.832  1.00  0.00    -0.389 OA
HETATM   27  C   UNL     1      27.125  36.098  43.770  1.00  0.00     0.183 C 
HETATM   28  C   UNL     1      26.443  37.225  44.553  1.00  0.00     0.134 C 
ENDBRANCH  20  23
ENDBRANCH  17  20
ENDBRANCH   3  14
BRANCH   2  29
HETATM   29  N   UNL     1      24.008  42.088  49.740  1.00  0.00    -0.287 NA
HETATM   30  H   UNL     1      23.319  41.687  50.381  1.00  0.00     0.125 HD
HETATM   31  H   UNL     1      24.114  41.473  48.931  1.00  0.00     0.125 HD
ENDBRANCH   2  29
BRANCH   1  32
HETATM   32  C   UNL     1      24.688  45.109  50.250  1.00  0.00     0.257 C 
HETATM   33  N   UNL     1      25.424  46.270  50.412  1.00  0.00    -0.356 N 
HETATM   34  H   UNL     1      26.317  46.169  50.886  1.00  0.00     0.162 HD
HETATM   35  O   UNL     1      23.521  45.111  49.878  1.00  0.00    -0.267 OA
BRANCH  33  36
HETATM   36  C   UNL     1      24.787  47.567  50.518  1.00  0.00     0.127 C 
BRANCH  36  37
HETATM   37  C   UNL     1      24.900  48.389  49.225  1.00  0.00     0.058 C 
BRANCH  37  38
HETATM   38  C   UNL     1      23.630  49.129  48.863  1.00  0.00    -0.057 A 
HETATM   39  C   UNL     1      23.613  50.526  48.768  1.00  0.00     0.010 A 
HETATM   40  C   UNL     1      22.439  51.204  48.414  1.00  0.00     0.037 A 
HETATM   41  C   UNL     1      21.269  50.492  48.151  1.00  0.00     0.068 A 
HETATM   42  C   UNL     1      21.273  49.102  48.277  1.00  0.00     0.037 A 
HETATM   43  C   UNL     1      22.445  48.423  48.621  1.00  0.00     0.010 A 
BRANCH  41  44
HETATM   44  O   UNL     1      20.068  51.034  47.786  1.00  0.00    -0.356 OA
HETATM   45  C   UNL     1      19.531  52.023  48.657  1.00  0.00     0.210 C 
ENDBRANCH  41  44
ENDBRANCH  37  38
ENDBRANCH  36  37
ENDBRANCH  33  36
ENDBRANCH   1  32
TORSDOF 9
ENDMDL
MODEL 9
REMARK VINA RESULT:      -9.1      9.758     12.018
REMARK  9 active torsions:
REMARK  status: ('A' for Active; 'I' for Inactive)
REMARK    1  A    between atoms: O_2  and  C_3 
REMARK    2  A    between atoms: C_6  and  C_7 
REMARK    3  A    between atoms: C_7  and  C_8 
REMARK    4  A    between atoms: C_8  and  N_9 
REMARK       I    between atoms: N_9  and  C_10 
REMARK    5  A    between atoms: C_10  and  C_11 
REMARK    6  A    between atoms: C_12  and  N_13 
REMARK    7  A    between atoms: N_14  and  C_15 
REMARK    8  A    between atoms: C_18  and  S_19 
REMARK    9  A    between atoms: S_19  and  N_20 
ROOT
HETATM    1  C   UNL     1      24.634  49.341  39.200  1.00  0.00     0.103 C 
HETATM    2  C   UNL     1      25.930  49.539  38.731  1.00  0.00     0.105 C 
HETATM    3  N   UNL     1      26.793  48.998  39.696  1.00  0.00    -0.284 N 
HETATM    4  C   UNL     1      26.079  47.959  40.284  1.00  0.00     0.166 A 
HETATM    5  C   UNL     1      24.726  48.222  40.063  1.00  0.00     0.123 A 
HETATM    6  N   UNL     1      23.760  47.460  40.633  1.00  0.00    -0.242 NA
HETATM    7  C   UNL     1      24.203  46.404  41.328  1.00  0.00     0.086 A 
HETATM    8  C   UNL     1      25.582  46.128  41.504  1.00  0.00     0.088 A 
HETATM    9  N   UNL     1      26.551  46.917  41.008  1.00  0.00    -0.226 NA
HETATM   10  C   UNL     1      23.268  45.537  41.881  1.00  0.00     0.034 A 
HETATM   11  C   UNL     1      23.655  44.400  42.592  1.00  0.00     0.002 A 
HETATM   12  C   UNL     1      25.005  44.126  42.758  1.00  0.00     0.002 A 
HETATM   13  C   UNL     1      25.954  44.995  42.217  1.00  0.00     0.034 A 
ENDROOT
BRANCH   3  14
HETATM   14  C   UNL     1      28.082  49.512  40.088  1.00  0.00     0.042 A 
HETATM   15  C   UNL     1      28.196  50.713  40.808  1.00  0.00     0.031 A 
HETATM   16  C   UNL     1      29.449  51.299  41.038  1.00  0.00     0.027 A 
HETATM   17  C   UNL     1      30.602  50.675  40.563  1.00  0.00     0.074 A 
HETATM   18  C   UNL     1      30.518  49.472  39.871  1.00  0.00     0.027 A 
HETATM   19  C   UNL     1      29.265  48.907  39.622  1.00  0.00     0.031 A 
BRANCH  17  20
HETATM   20  S   UNL     1      32.184  51.443  40.785  1.00  0.00     0.243 S 
HETATM   21  O   UNL     1      32.953  51.245  39.575  1.00  0.00    -0.206 OA
HETATM   22  O   UNL     1      31.944  52.769  41.310  1.00  0.00    -0.206 OA
BRANCH  20  23
HETATM   23  N   UNL     1      32.912  50.513  42.010  1.00  0.00    -0.202 NA
HETATM   24  C   UNL     1      34.380  50.703  42.235  1.00  0.00     0.134 C 
HETATM   25  C   UNL     1      34.681  51.905  43.138  1.00  0.00     0.183 C 
HETATM   26  O   UNL     1      33.965  51.824  44.377  1.00  0.00    -0.389 OA
HETATM   27  C   UNL     1      32.551  51.780  44.139  1.00  0.00     0.183 C 
HETATM   28  C   UNL     1      32.181  50.540  43.318  1.00  0.00     0.134 C 
ENDBRANCH  20  23
ENDBRANCH  17  20
ENDBRANCH   3  14
BRANCH   2  29
HETATM   29  N   UNL     1      26.342  50.182  37.601  1.00  0.00    -0.287 NA
HETATM   30  H   UNL     1      25.636  50.366  36.883  1.00  0.00     0.125 HD
HETATM   31  H   UNL     1      27.198  49.848  37.154  1.00  0.00     0.125 HD
ENDBRANCH   2  29
BRANCH   1  32
HETATM   32  C   UNL     1      23.450  50.096  38.816  1.00  0.00     0.257 C 
HETATM   33  N   UNL     1      22.833  50.717  39.888  1.00  0.00    -0.356 N 
HETATM   34  H   UNL     1      23.215  50.506  40.805  1.00  0.00     0.162 HD
HETATM   35  O   UNL     1      22.978  50.103  37.686  1.00  0.00    -0.267 OA
BRANCH  33  36
HETATM   36  C   UNL     1      21.434  51.093  39.849  1.00  0.00     0.127 C 
BRANCH  36  37
HETATM   37  C   UNL     1      20.576  50.283  40.832  1.00  0.00     0.058 C 
BRANCH  37  38
HETATM   38  C   UNL     1      19.465  51.087  41.473  1.00  0.00    -0.057 A 
HETATM   39  C   UNL     1      19.004  52.273  40.888  1.00  0.00     0.010 A 
HETATM   40  C   UNL     1      17.962  53.003  41.477  1.00  0.00     0.037 A 
HETATM   41  C   UNL     1      17.371  52.554  42.658  1.00  0.00     0.068 A 
HETATM   42  C   UNL     1      17.850  51.391  43.262  1.00  0.00     0.037 A 
HETATM   43  C   UNL     1      18.882  50.657  42.672  1.00  0.00     0.010 A 
BRANCH  41  44
HETATM   44  O   UNL     1      16.343  53.168  43.320  1.00  0.00    -0.356 OA
HETATM   45  C   UNL     1      15.051  53.034  42.741  1.00  0.00     0.210 C 
ENDBRANCH  41  44
ENDBRANCH  37  38
ENDBRANCH  36  37
ENDBRANCH  33  36
ENDBRANCH   1  32
TORSDOF 9
ENDMDL
MODEL 10
REMARK VINA RESULT:      -9.0      3.436     10.492
REMARK  9 active torsions:
REMARK  status: ('A' for Active; 'I' for Inactive)
REMARK    1  A    between atoms: O_2  and  C_3 
REMARK    2  A    between atoms: C_6  and  C_7 
REMARK    3  A    between atoms: C_7  and  C_8 
REMARK    4  A    between atoms: C_8  and  N_9 
REMARK       I    between atoms: N_9  and  C_10 
REMARK    5  A    between atoms: C_10  and  C_11 
REMARK    6  A    between atoms: C_12  and  N_13 
REMARK    7  A    between atoms: N_14  and  C_15 
REMARK    8  A    between atoms: C_18  and  S_19 
REMARK    9  A    between atoms: S_19  and  N_20 
ROOT
HETATM    1  C   UNL     1      24.679  42.865  49.397  1.00  0.00     0.103 C 
HETATM    2  C   UNL     1      23.722  43.767  49.853  1.00  0.00     0.105 C 
HETATM    3  N   UNL     1      22.749  43.863  48.848  1.00  0.00    -0.284 N 
HETATM    4  C   UNL     1      22.750  42.621  48.219  1.00  0.00     0.166 A 
HETATM    5  C   UNL     1      23.991  42.039  48.476  1.00  0.00     0.123 A 
HETATM    6  N   UNL     1      24.358  40.875  47.883  1.00  0.00    -0.242 NA
HETATM    7  C   UNL     1      23.413  40.300  47.127  1.00  0.00     0.086 A 
HETATM    8  C   UNL     1      22.141  40.885  46.914  1.00  0.00     0.088 A 
HETATM    9  N   UNL     1      21.791  42.075  47.434  1.00  0.00    -0.226 NA
HETATM   10  C   UNL     1      23.693  39.068  46.546  1.00  0.00     0.034 A 
HETATM   11  C   UNL     1      22.748  38.394  45.771  1.00  0.00     0.002 A 
HETATM   12  C   UNL     1      21.500  38.965  45.567  1.00  0.00     0.002 A 
HETATM   13  C   UNL     1      21.210  40.206  46.138  1.00  0.00     0.034 A 
ENDROOT
BRANCH   3  14
HETATM   14  C   UNL     1      22.017  45.044  48.461  1.00  0.00     0.042 A 
HETATM   15  C   UNL     1      22.682  46.178  47.963  1.00  0.00     0.031 A 
HETATM   16  C   UNL     1      21.994  47.380  47.751  1.00  0.00     0.027 A 
HETATM   17  C   UNL     1      20.627  47.453  48.021  1.00  0.00     0.074 A 
HETATM   18  C   UNL     1      19.943  46.338  48.490  1.00  0.00     0.027 A 
HETATM   19  C   UNL     1      20.638  45.149  48.724  1.00  0.00     0.031 A 
BRANCH  17  20
HETATM   20  S   UNL     1      19.763  48.988  47.826  1.00  0.00     0.243 S 
HETATM   21  O   UNL     1      20.712  50.065  48.008  1.00  0.00    -0.206 OA
HETATM   22  O   UNL     1      18.974  48.882  46.618  1.00  0.00    -0.206 OA
BRANCH  20  23
HETATM   23  N   UNL     1      18.697  49.018  49.152  1.00  0.00    -0.202 NA
HETATM   24  C   UNL     1      19.003  49.980  50.257  1.00  0.00     0.134 C 
HETATM   25  C   UNL     1      18.482  51.392  49.962  1.00  0.00     0.183 C 
HETATM   26  O   UNL     1      17.083  51.381  49.647  1.00  0.00    -0.389 OA
HETATM   27  C   UNL     1      16.833  50.558  48.499  1.00  0.00     0.183 C 
HETATM   28  C   UNL     1      17.249  49.108  48.773  1.00  0.00     0.134 C 
ENDBRANCH  20  23
ENDBRANCH  17  20
ENDBRANCH   3  14
BRANCH   2  29
HETATM   29  N   UNL     1      23.712  44.493  51.009  1.00  0.00    -0.287 NA
HETATM   30  H   UNL     1      24.600  44.592  51.507  1.00  0.00     0.125 HD
HETATM   31  H   UNL     1      22.968  44.297  51.682  1.00  0.00     0.125 HD
ENDBRANCH   2  29
BRANCH   1  32
HETATM   32  C   UNL     1      26.064  42.775  49.839  1.00  0.00     0.257 C 
HETATM   33  N   UNL     1      26.192  42.755  51.217  1.00  0.00    -0.356 N 
HETATM   34  H   UNL     1      25.336  42.892  51.746  1.00  0.00     0.162 HD
HETATM   35  O   UNL     1      27.028  42.819  49.085  1.00  0.00    -0.267 OA
BRANCH  33  36
HETATM   36  C   UNL     1      27.421  43.152  51.874  1.00  0.00     0.127 C 
BRANCH  36  37
HETATM   37  C   UNL     1      27.282  43.212  53.402  1.00  0.00     0.058 C 
BRANCH  37  38
HETATM   38  C   UNL     1      27.275  44.620  53.957  1.00  0.00    -0.057 A 
HETATM   39  C   UNL     1      28.289  45.060  54.817  1.00  0.00     0.010 A 
HETATM   40  C   UNL     1      28.287  46.371  55.313  1.00  0.00     0.037 A 
HETATM   41  C   UNL     1      27.271  47.256  54.954  1.00  0.00     0.068 A 
HETATM   42  C   UNL     1      26.241  46.812  54.124  1.00  0.00     0.037 A 
HETATM   43  C   UNL     1      26.246  45.508  53.621  1.00  0.00     0.010 A 
BRANCH  41  44
HETATM   44  O   UNL     1      27.165  48.558  55.359  1.00  0.00    -0.356 OA
HETATM   45  C   UNL     1      26.149  48.841  56.314  1.00  0.00     0.210 C 
ENDBRANCH  41  44
ENDBRANCH  37  38
ENDBRANCH  36  37
ENDBRANCH  33  36
ENDBRANCH   1  32
TORSDOF 9
ENDMDL
