MODEL 1
REMARK VINA RESULT:      -8.5      0.000      0.000
REMARK  5 active torsions:
REMARK  status: ('A' for Active; 'I' for Inactive)
REMARK    1  A    between atoms: C_5  and  C_6 
REMARK    2  A    between atoms: C_11  and  C_12 
REMARK       I    between atoms: C_12  and  N_13 
REMARK    3  A    between atoms: N_13  and  C_14 
REMARK    4  A    between atoms: C_16  and  O_17 
REMARK    5  A    between atoms: C_23  and  C_24 
ROOT
HETATM    1  C   UNL     1      39.493  41.949  62.991  1.00  0.00     0.118 C 
HETATM    2  N   UNL     1      40.284  43.164  63.156  1.00  0.00    -0.366 N 
HETATM    3  C   UNL     1      39.783  44.271  63.743  1.00  0.00     0.123 A 
HETATM    4  N   UNL     1      38.457  44.387  64.054  1.00  0.00    -0.240 N 
HETATM    5  N   UNL     1      38.122  45.585  64.571  1.00  0.00    -0.165 NA
HETATM    6  C   UNL     1      39.311  46.223  64.684  1.00  0.00     0.148 A 
HETATM    7  C   UNL     1      40.370  45.436  64.155  1.00  0.00     0.089 A 
HETATM    8  C   UNL     1      37.472  43.346  63.835  1.00  0.00     0.221 C 
HETATM    9  C   UNL     1      37.999  42.291  62.842  1.00  0.00     0.066 C 
HETATM   10  H   UNL     1      41.292  43.032  63.077  1.00  0.00     0.161 HD
ENDROOT
BRANCH   6  11
HETATM   11  C   UNL     1      39.434  47.561  65.290  1.00  0.00     0.276 C 
HETATM   12  N   UNL     1      38.211  48.058  65.695  1.00  0.00    -0.322 N 
HETATM   13  H   UNL     1      37.430  47.445  65.474  1.00  0.00     0.169 HD
HETATM   14  O   UNL     1      40.522  48.117  65.395  1.00  0.00    -0.266 OA
BRANCH  12  15
HETATM   15  C   UNL     1      37.939  49.268  66.359  1.00  0.00     0.037 A 
HETATM   16  C   UNL     1      37.998  50.520  65.741  1.00  0.00     0.066 A 
HETATM   17  C   UNL     1      37.728  51.671  66.481  1.00  0.00     0.067 A 
HETATM   18  C   UNL     1      37.392  51.596  67.827  1.00  0.00     0.036 A 
HETATM   19  C   UNL     1      37.329  50.352  68.448  1.00  0.00     0.005 A 
HETATM   20  C   UNL     1      37.607  49.193  67.718  1.00  0.00     0.029 A 
BRANCH  17  21
HETATM   21  O   UNL     1      37.790  52.909  65.911  1.00  0.00    -0.361 OA
HETATM   22  H   UNL     1      37.733  52.804  64.946  1.00  0.00     0.217 HD
ENDBRANCH  17  21
ENDBRANCH  12  15
ENDBRANCH   6  11
BRANCH   8  23
HETATM   23  C   UNL     1      37.015  42.768  65.155  1.00  0.00     0.409 C 
HETATM   24  F   UNL     1      37.953  42.791  66.119  1.00  0.00    -0.169 F 
HETATM   25  F   UNL     1      35.927  43.415  65.636  1.00  0.00    -0.169 F 
HETATM   26  F   UNL     1      36.637  41.473  64.992  1.00  0.00    -0.169 F 
ENDBRANCH   8  23
BRANCH   1  27
HETATM   27  C   UNL     1      39.817  40.890  64.029  1.00  0.00    -0.035 A 
HETATM   28  C   UNL     1      39.225  39.617  64.036  1.00  0.00     0.010 A 
HETATM   29  C   UNL     1      39.532  38.683  65.030  1.00  0.00     0.007 A 
HETATM   30  C   UNL     1      40.431  39.002  66.051  1.00  0.00    -0.062 A 
HETATM   31  C   UNL     1      40.760  38.009  67.126  1.00  0.00     0.048 C 
HETATM   32  C   UNL     1      41.024  40.266  66.057  1.00  0.00     0.007 A 
HETATM   33  C   UNL     1      40.722  41.198  65.059  1.00  0.00     0.010 A 
ENDBRANCH   1  27
TORSDOF 5
ENDMDL
MODEL 2
REMARK VINA RESULT:      -8.4     24.343     26.511
REMARK  5 active torsions:
REMARK  status: ('A' for Active; 'I' for Inactive)
REMARK    1  A    between atoms: C_5  and  C_6 
REMARK    2  A    between atoms: C_11  and  C_12 
REMARK       I    between atoms: C_12  and  N_13 
REMARK    3  A    between atoms: N_13  and  C_14 
REMARK    4  A    between atoms: C_16  and  O_17 
REMARK    5  A    between atoms: C_23  and  C_24 
ROOT
HETATM    1  C   UNL     1      18.155  52.243  48.679  1.00  0.00     0.118 C 
HETATM    2  N   UNL     1      19.595  52.255  48.449  1.00  0.00    -0.366 N 
HETATM    3  C   UNL     1      20.371  51.179  48.700  1.00  0.00     0.123 A 
HETATM    4  N   UNL     1      19.890  50.079  49.353  1.00  0.00    -0.240 N 
HETATM    5  N   UNL     1      20.821  49.130  49.578  1.00  0.00    -0.165 NA
HETATM    6  C   UNL     1      21.919  49.612  48.950  1.00  0.00     0.148 A 
HETATM    7  C   UNL     1      21.678  50.903  48.407  1.00  0.00     0.089 A 
HETATM    8  C   UNL     1      18.519  49.927  49.800  1.00  0.00     0.221 C 
HETATM    9  C   UNL     1      17.800  51.290  49.835  1.00  0.00     0.066 C 
HETATM   10  H   UNL     1      19.923  52.994  47.827  1.00  0.00     0.161 HD
ENDROOT
BRANCH   6  11
HETATM   11  C   UNL     1      23.178  48.848  48.868  1.00  0.00     0.276 C 
HETATM   12  N   UNL     1      23.244  47.857  49.826  1.00  0.00    -0.322 N 
HETATM   13  H   UNL     1      22.441  47.842  50.451  1.00  0.00     0.169 HD
HETATM   14  O   UNL     1      24.029  49.111  48.025  1.00  0.00    -0.266 OA
BRANCH  12  15
HETATM   15  C   UNL     1      24.256  46.899  50.021  1.00  0.00     0.037 A 
HETATM   16  C   UNL     1      24.412  45.764  49.222  1.00  0.00     0.066 A 
HETATM   17  C   UNL     1      25.435  44.858  49.498  1.00  0.00     0.067 A 
HETATM   18  C   UNL     1      26.313  45.067  50.554  1.00  0.00     0.036 A 
HETATM   19  C   UNL     1      26.166  46.197  51.353  1.00  0.00     0.005 A 
HETATM   20  C   UNL     1      25.137  47.107  51.090  1.00  0.00     0.029 A 
BRANCH  17  21
HETATM   21  O   UNL     1      25.605  43.732  48.745  1.00  0.00    -0.361 OA
HETATM   22  H   UNL     1      26.462  43.795  48.291  1.00  0.00     0.217 HD
ENDBRANCH  17  21
ENDBRANCH  12  15
ENDBRANCH   6  11
BRANCH   8  23
HETATM   23  C   UNL     1      17.808  48.882  48.969  1.00  0.00     0.409 C 
HETATM   24  F   UNL     1      16.495  49.116  48.801  1.00  0.00    -0.169 F 
HETATM   25  F   UNL     1      18.358  48.763  47.737  1.00  0.00    -0.169 F 
HETATM   26  F   UNL     1      17.929  47.661  49.552  1.00  0.00    -0.169 F 
ENDBRANCH   8  23
BRANCH   1  27
HETATM   27  C   UNL     1      17.356  52.043  47.404  1.00  0.00    -0.035 A 
HETATM   28  C   UNL     1      17.949  51.751  46.165  1.00  0.00     0.010 A 
HETATM   29  C   UNL     1      17.174  51.603  45.010  1.00  0.00     0.007 A 
HETATM   30  C   UNL     1      15.787  51.755  45.062  1.00  0.00    -0.062 A 
HETATM   31  C   UNL     1      14.950  51.607  43.826  1.00  0.00     0.048 C 
HETATM   32  C   UNL     1      15.185  52.049  46.287  1.00  0.00     0.007 A 
HETATM   33  C   UNL     1      15.959  52.190  47.444  1.00  0.00     0.010 A 
ENDBRANCH   1  27
TORSDOF 5
ENDMDL
MODEL 3
REMARK VINA RESULT:      -8.4     17.345     19.500
REMARK  5 active torsions:
REMARK  status: ('A' for Active; 'I' for Inactive)
REMARK    1  A    between atoms: C_5  and  C_6 
REMARK    2  A    between atoms: C_11  and  C_12 
REMARK       I    between atoms: C_12  and  N_13 
REMARK    3  A    between atoms: N_13  and  C_14 
REMARK    4  A    between atoms: C_16  and  O_17 
REMARK    5  A    between atoms: C_23  and  C_24 
ROOT
HETATM    1  C   UNL     1      26.128  38.869  47.821  1.00  0.00     0.118 C 
HETATM    2  N   UNL     1      25.623  40.062  48.490  1.00  0.00    -0.366 N 
HETATM    3  C   UNL     1      26.230  40.588  49.574  1.00  0.00     0.123 A 
HETATM    4  N   UNL     1      27.243  39.937  50.221  1.00  0.00    -0.240 N 
HETATM    5  N   UNL     1      27.685  40.576  51.323  1.00  0.00    -0.165 NA
HETATM    6  C   UNL     1      26.983  41.734  51.317  1.00  0.00     0.148 A 
HETATM    7  C   UNL     1      26.049  41.765  50.247  1.00  0.00     0.089 A 
HETATM    8  C   UNL     1      27.796  38.663  49.802  1.00  0.00     0.221 C 
HETATM    9  C   UNL     1      26.843  37.947  48.825  1.00  0.00     0.066 C 
HETATM   10  H   UNL     1      24.984  40.628  47.931  1.00  0.00     0.161 HD
ENDROOT
BRANCH   6  11
HETATM   11  C   UNL     1      27.206  42.795  52.316  1.00  0.00     0.276 C 
HETATM   12  N   UNL     1      28.347  42.571  53.061  1.00  0.00    -0.322 N 
HETATM   13  H   UNL     1      28.819  41.700  52.829  1.00  0.00     0.169 HD
HETATM   14  O   UNL     1      26.433  43.740  52.425  1.00  0.00    -0.266 OA
BRANCH  12  15
HETATM   15  C   UNL     1      28.909  43.386  54.061  1.00  0.00     0.037 A 
HETATM   16  C   UNL     1      28.301  44.547  54.544  1.00  0.00     0.066 A 
HETATM   17  C   UNL     1      28.938  45.304  55.527  1.00  0.00     0.067 A 
HETATM   18  C   UNL     1      30.170  44.920  56.043  1.00  0.00     0.036 A 
HETATM   19  C   UNL     1      30.780  43.763  55.567  1.00  0.00     0.005 A 
HETATM   20  C   UNL     1      30.153  43.002  54.576  1.00  0.00     0.029 A 
BRANCH  17  21
HETATM   21  O   UNL     1      28.378  46.451  56.010  1.00  0.00    -0.361 OA
HETATM   22  H   UNL     1      27.704  46.208  56.667  1.00  0.00     0.217 HD
ENDBRANCH  17  21
ENDBRANCH  12  15
ENDBRANCH   6  11
BRANCH   8  23
HETATM   23  C   UNL     1      29.196  38.849  49.263  1.00  0.00     0.409 C 
HETATM   24  F   UNL     1      29.410  40.049  48.693  1.00  0.00    -0.169 F 
HETATM   25  F   UNL     1      30.131  38.690  50.231  1.00  0.00    -0.169 F 
HETATM   26  F   UNL     1      29.466  37.904  48.326  1.00  0.00    -0.169 F 
ENDBRANCH   8  23
BRANCH   1  27
HETATM   27  C   UNL     1      26.911  39.187  46.560  1.00  0.00    -0.035 A 
HETATM   28  C   UNL     1      27.419  38.198  45.703  1.00  0.00     0.010 A 
HETATM   29  C   UNL     1      28.160  38.537  44.567  1.00  0.00     0.007 A 
HETATM   30  C   UNL     1      28.424  39.875  44.265  1.00  0.00    -0.062 A 
HETATM   31  C   UNL     1      29.226  40.248  43.053  1.00  0.00     0.048 C 
HETATM   32  C   UNL     1      27.927  40.869  45.111  1.00  0.00     0.007 A 
HETATM   33  C   UNL     1      27.180  40.529  46.244  1.00  0.00     0.010 A 
ENDBRANCH   1  27
TORSDOF 5
ENDMDL
MODEL 4
REMARK VINA RESULT:      -8.3     16.766     18.748
REMARK  5 active torsions:
REMARK  status: ('A' for Active; 'I' for Inactive)
REMARK    1  A    between atoms: C_5  and  C_6 
REMARK    2  A    between atoms: C_11  and  C_12 
REMARK       I    between atoms: C_12  and  N_13 
REMARK    3  A    between atoms: N_13  and  C_14 
REMARK    4  A    between atoms: C_16  and  O_17 
REMARK    5  A    between atoms: C_23  and  C_24 
ROOT
HETATM    1  C   UNL     1      28.225  39.770  48.042  1.00  0.00     0.118 C 
HETATM    2  N   UNL     1      28.926  39.835  49.319  1.00  0.00    -0.366 N 
HETATM    3  C   UNL     1      28.567  40.700  50.291  1.00  0.00     0.123 A 
HETATM    4  N   UNL     1      27.647  41.687  50.076  1.00  0.00    -0.240 N 
HETATM    5  N   UNL     1      27.462  42.499  51.135  1.00  0.00    -0.165 NA
HETATM    6  C   UNL     1      28.229  41.938  52.099  1.00  0.00     0.148 A 
HETATM    7  C   UNL     1      28.951  40.821  51.599  1.00  0.00     0.089 A 
HETATM    8  C   UNL     1      26.940  41.887  48.826  1.00  0.00     0.221 C 
HETATM    9  C   UNL     1      27.644  41.147  47.672  1.00  0.00     0.066 C 
HETATM   10  H   UNL     1      29.490  39.014  49.540  1.00  0.00     0.161 HD
ENDROOT
BRANCH   6  11
HETATM   11  C   UNL     1      28.269  42.460  53.478  1.00  0.00     0.276 C 
HETATM   12  N   UNL     1      29.444  43.135  53.741  1.00  0.00    -0.322 N 
HETATM   13  H   UNL     1      30.099  43.128  52.963  1.00  0.00     0.169 HD
HETATM   14  O   UNL     1      27.336  42.281  54.254  1.00  0.00    -0.266 OA
BRANCH  12  15
HETATM   15  C   UNL     1      29.815  43.811  54.917  1.00  0.00     0.037 A 
HETATM   16  C   UNL     1      30.808  43.359  55.789  1.00  0.00     0.066 A 
HETATM   17  C   UNL     1      31.101  44.085  56.943  1.00  0.00     0.067 A 
HETATM   18  C   UNL     1      30.426  45.263  57.240  1.00  0.00     0.036 A 
HETATM   19  C   UNL     1      29.437  45.721  56.374  1.00  0.00     0.005 A 
HETATM   20  C   UNL     1      29.129  44.995  55.220  1.00  0.00     0.029 A 
BRANCH  17  21
HETATM   21  O   UNL     1      32.055  43.663  57.822  1.00  0.00    -0.361 OA
HETATM   22  H   UNL     1      31.962  44.175  58.643  1.00  0.00     0.217 HD
ENDBRANCH  17  21
ENDBRANCH  12  15
ENDBRANCH   6  11
BRANCH   8  23
HETATM   23  C   UNL     1      25.480  41.523  48.984  1.00  0.00     0.409 C 
HETATM   24  F   UNL     1      24.715  42.520  49.463  1.00  0.00    -0.169 F 
HETATM   25  F   UNL     1      24.934  41.123  47.811  1.00  0.00    -0.169 F 
HETATM   26  F   UNL     1      25.350  40.472  49.835  1.00  0.00    -0.169 F 
ENDBRANCH   8  23
BRANCH   1  27
HETATM   27  C   UNL     1      27.247  38.611  47.966  1.00  0.00    -0.035 A 
HETATM   28  C   UNL     1      27.134  37.636  48.969  1.00  0.00     0.010 A 
HETATM   29  C   UNL     1      26.238  36.569  48.842  1.00  0.00     0.007 A 
HETATM   30  C   UNL     1      25.441  36.443  47.703  1.00  0.00    -0.062 A 
HETATM   31  C   UNL     1      24.485  35.297  47.554  1.00  0.00     0.048 C 
HETATM   32  C   UNL     1      25.547  37.404  46.695  1.00  0.00     0.007 A 
HETATM   33  C   UNL     1      26.438  38.475  46.825  1.00  0.00     0.010 A 
ENDBRANCH   1  27
TORSDOF 5
ENDMDL
MODEL 5
REMARK VINA RESULT:      -8.2     24.941     26.972
REMARK  5 active torsions:
REMARK  status: ('A' for Active; 'I' for Inactive)
REMARK    1  A    between atoms: C_5  and  C_6 
REMARK    2  A    between atoms: C_11  and  C_12 
REMARK       I    between atoms: C_12  and  N_13 
REMARK    3  A    between atoms: N_13  and  C_14 
REMARK    4  A    between atoms: C_16  and  O_17 
REMARK    5  A    between atoms: C_23  and  C_24 
ROOT
HETATM    1  C   UNL     1      17.562  52.384  48.660  1.00  0.00     0.118 C 
HETATM    2  N   UNL     1      19.004  52.415  48.443  1.00  0.00    -0.366 N 
HETATM    3  C   UNL     1      19.764  51.302  48.517  1.00  0.00     0.123 A 
HETATM    4  N   UNL     1      19.265  50.115  48.974  1.00  0.00    -0.240 N 
HETATM    5  N   UNL     1      20.182  49.130  49.044  1.00  0.00    -0.165 NA
HETATM    6  C   UNL     1      21.291  49.694  48.512  1.00  0.00     0.148 A 
HETATM    7  C   UNL     1      21.071  51.060  48.190  1.00  0.00     0.089 A 
HETATM    8  C   UNL     1      17.889  49.910  49.381  1.00  0.00     0.221 C 
HETATM    9  C   UNL     1      17.186  51.257  49.639  1.00  0.00     0.066 C 
HETATM   10  H   UNL     1      19.346  53.242  47.955  1.00  0.00     0.161 HD
ENDROOT
BRANCH   6  11
HETATM   11  C   UNL     1      22.541  48.938  48.311  1.00  0.00     0.276 C 
HETATM   12  N   UNL     1      23.579  49.446  49.066  1.00  0.00    -0.322 N 
HETATM   13  H   UNL     1      23.325  50.275  49.600  1.00  0.00     0.169 HD
HETATM   14  O   UNL     1      22.590  47.978  47.550  1.00  0.00    -0.266 OA
BRANCH  12  15
HETATM   15  C   UNL     1      24.894  48.960  49.179  1.00  0.00     0.037 A 
HETATM   16  C   UNL     1      26.026  49.705  48.841  1.00  0.00     0.066 A 
HETATM   17  C   UNL     1      27.293  49.137  48.969  1.00  0.00     0.067 A 
HETATM   18  C   UNL     1      27.453  47.839  49.437  1.00  0.00     0.036 A 
HETATM   19  C   UNL     1      26.330  47.091  49.778  1.00  0.00     0.005 A 
HETATM   20  C   UNL     1      25.055  47.648  49.644  1.00  0.00     0.029 A 
BRANCH  17  21
HETATM   21  O   UNL     1      28.418  49.833  48.634  1.00  0.00    -0.361 OA
HETATM   22  H   UNL     1      28.782  50.232  49.443  1.00  0.00     0.217 HD
ENDBRANCH  17  21
ENDBRANCH  12  15
ENDBRANCH   6  11
BRANCH   8  23
HETATM   23  C   UNL     1      17.171  49.027  48.385  1.00  0.00     0.409 C 
HETATM   24  F   UNL     1      17.219  47.716  48.679  1.00  0.00    -0.169 F 
HETATM   25  F   UNL     1      15.865  49.366  48.264  1.00  0.00    -0.169 F 
HETATM   26  F   UNL     1      17.713  49.183  47.148  1.00  0.00    -0.169 F 
ENDBRANCH   8  23
BRANCH   1  27
HETATM   27  C   UNL     1      16.771  52.410  47.364  1.00  0.00    -0.035 A 
HETATM   28  C   UNL     1      15.376  52.556  47.320  1.00  0.00     0.010 A 
HETATM   29  C   UNL     1      14.686  52.545  46.104  1.00  0.00     0.007 A 
HETATM   30  C   UNL     1      15.373  52.375  44.900  1.00  0.00    -0.062 A 
HETATM   31  C   UNL     1      14.640  52.354  43.591  1.00  0.00     0.048 C 
HETATM   32  C   UNL     1      16.761  52.225  44.930  1.00  0.00     0.007 A 
HETATM   33  C   UNL     1      17.452  52.243  46.146  1.00  0.00     0.010 A 
ENDBRANCH   1  27
TORSDOF 5
ENDMDL
MODEL 6
REMARK VINA RESULT:      -8.2     27.003     28.762
REMARK  5 active torsions:
REMARK  status: ('A' for Active; 'I' for Inactive)
REMARK    1  A    between atoms: C_5  and  C_6 
REMARK    2  A    between atoms: C_11  and  C_12 
REMARK       I    between atoms: C_12  and  N_13 
REMARK    3  A    between atoms: N_13  and  C_14 
REMARK    4  A    between atoms: C_16  and  O_17 
REMARK    5  A    between atoms: C_23  and  C_24 
ROOT
HETATM    1  C   UNL     1      31.140  51.112  39.194  1.00  0.00     0.118 C 
HETATM    2  N   UNL     1      29.807  51.564  38.814  1.00  0.00    -0.366 N 
HETATM    3  C   UNL     1      28.774  50.707  38.667  1.00  0.00     0.123 A 
HETATM    4  N   UNL     1      28.952  49.352  38.686  1.00  0.00    -0.240 N 
HETATM    5  N   UNL     1      27.823  48.652  38.456  1.00  0.00    -0.165 NA
HETATM    6  C   UNL     1      26.868  49.609  38.385  1.00  0.00     0.148 A 
HETATM    7  C   UNL     1      27.432  50.909  38.494  1.00  0.00     0.089 A 
HETATM    8  C   UNL     1      30.227  48.698  38.903  1.00  0.00     0.221 C 
HETATM    9  C   UNL     1      31.393  49.682  38.684  1.00  0.00     0.066 C 
HETATM   10  H   UNL     1      29.636  52.559  38.955  1.00  0.00     0.161 HD
ENDROOT
BRANCH   6  11
HETATM   11  C   UNL     1      25.439  49.286  38.221  1.00  0.00     0.276 C 
HETATM   12  N   UNL     1      24.679  49.759  39.272  1.00  0.00    -0.322 N 
HETATM   13  H   UNL     1      25.228  50.212  39.999  1.00  0.00     0.169 HD
HETATM   14  O   UNL     1      25.034  48.666  37.244  1.00  0.00    -0.266 OA
BRANCH  12  15
HETATM   15  C   UNL     1      23.284  49.691  39.438  1.00  0.00     0.037 A 
HETATM   16  C   UNL     1      22.400  50.663  38.963  1.00  0.00     0.066 A 
HETATM   17  C   UNL     1      21.031  50.524  39.186  1.00  0.00     0.067 A 
HETATM   18  C   UNL     1      20.524  49.425  39.870  1.00  0.00     0.036 A 
HETATM   19  C   UNL     1      21.398  48.452  40.344  1.00  0.00     0.005 A 
HETATM   20  C   UNL     1      22.774  48.588  40.133  1.00  0.00     0.029 A 
BRANCH  17  21
HETATM   21  O   UNL     1      20.143  51.463  38.748  1.00  0.00    -0.361 OA
HETATM   22  H   UNL     1      20.007  51.332  37.794  1.00  0.00     0.217 HD
ENDBRANCH  17  21
ENDBRANCH  12  15
ENDBRANCH   6  11
BRANCH   8  23
HETATM   23  C   UNL     1      30.246  48.018  40.254  1.00  0.00     0.409 C 
HETATM   24  F   UNL     1      29.633  48.714  41.227  1.00  0.00    -0.169 F 
HETATM   25  F   UNL     1      29.667  46.794  40.207  1.00  0.00    -0.169 F 
HETATM   26  F   UNL     1      31.528  47.809  40.654  1.00  0.00    -0.169 F 
ENDBRANCH   8  23
BRANCH   1  27
HETATM   27  C   UNL     1      31.443  51.341  40.664  1.00  0.00    -0.035 A 
HETATM   28  C   UNL     1      30.643  52.138  41.497  1.00  0.00     0.010 A 
HETATM   29  C   UNL     1      30.978  52.343  42.839  1.00  0.00     0.007 A 
HETATM   30  C   UNL     1      32.128  51.766  43.381  1.00  0.00    -0.062 A 
HETATM   31  C   UNL     1      32.499  51.989  44.817  1.00  0.00     0.048 C 
HETATM   32  C   UNL     1      32.936  50.974  42.561  1.00  0.00     0.007 A 
HETATM   33  C   UNL     1      32.597  50.763  41.221  1.00  0.00     0.010 A 
ENDBRANCH   1  27
TORSDOF 5
ENDMDL
MODEL 7
REMARK VINA RESULT:      -8.1      1.390      2.088
REMARK  5 active torsions:
REMARK  status: ('A' for Active; 'I' for Inactive)
REMARK    1  A    between atoms: C_5  and  C_6 
REMARK    2  A    between atoms: C_11  and  C_12 
REMARK       I    between atoms: C_12  and  N_13 
REMARK    3  A    between atoms: N_13  and  C_14 
REMARK    4  A    between atoms: C_16  and  O_17 
REMARK    5  A    between atoms: C_23  and  C_24 
ROOT
HETATM    1  C   UNL     1      39.968  43.395  62.910  1.00  0.00     0.118 C 
HETATM    2  N   UNL     1      40.678  44.460  63.609  1.00  0.00    -0.366 N 
HETATM    3  C   UNL     1      40.030  45.419  64.303  1.00  0.00     0.123 A 
HETATM    4  N   UNL     1      38.672  45.559  64.245  1.00  0.00    -0.240 N 
HETATM    5  N   UNL     1      38.203  46.611  64.946  1.00  0.00    -0.165 NA
HETATM    6  C   UNL     1      39.308  47.100  65.556  1.00  0.00     0.148 A 
HETATM    7  C   UNL     1      40.473  46.390  65.159  1.00  0.00     0.089 A 
HETATM    8  C   UNL     1      37.792  44.692  63.487  1.00  0.00     0.221 C 
HETATM    9  C   UNL     1      38.585  43.884  62.441  1.00  0.00     0.066 C 
HETATM   10  H   UNL     1      41.665  44.272  63.786  1.00  0.00     0.161 HD
ENDROOT
BRANCH   6  11
HETATM   11  C   UNL     1      39.250  48.227  66.506  1.00  0.00     0.276 C 
HETATM   12  N   UNL     1      38.242  49.116  66.191  1.00  0.00    -0.322 N 
HETATM   13  H   UNL     1      37.737  48.873  65.341  1.00  0.00     0.169 HD
HETATM   14  O   UNL     1      40.032  48.308  67.446  1.00  0.00    -0.266 OA
BRANCH  12  15
HETATM   15  C   UNL     1      37.849  50.271  66.891  1.00  0.00     0.037 A 
HETATM   16  C   UNL     1      37.213  50.244  68.134  1.00  0.00     0.066 A 
HETATM   17  C   UNL     1      36.844  51.439  68.750  1.00  0.00     0.067 A 
HETATM   18  C   UNL     1      37.105  52.665  68.151  1.00  0.00     0.036 A 
HETATM   19  C   UNL     1      37.740  52.700  66.914  1.00  0.00     0.005 A 
HETATM   20  C   UNL     1      38.106  51.507  66.284  1.00  0.00     0.029 A 
BRANCH  17  21
HETATM   21  O   UNL     1      36.209  51.445  69.958  1.00  0.00    -0.361 OA
HETATM   22  H   UNL     1      36.870  51.617  70.650  1.00  0.00     0.217 HD
ENDBRANCH  17  21
ENDBRANCH  12  15
ENDBRANCH   6  11
BRANCH   8  23
HETATM   23  C   UNL     1      36.964  43.836  64.420  1.00  0.00     0.409 C 
HETATM   24  F   UNL     1      35.813  44.408  64.813  1.00  0.00    -0.169 F 
HETATM   25  F   UNL     1      36.651  42.643  63.860  1.00  0.00    -0.169 F 
HETATM   26  F   UNL     1      37.674  43.548  65.542  1.00  0.00    -0.169 F 
ENDBRANCH   8  23
BRANCH   1  27
HETATM   27  C   UNL     1      39.968  42.085  63.676  1.00  0.00    -0.035 A 
HETATM   28  C   UNL     1      40.564  41.934  64.938  1.00  0.00     0.010 A 
HETATM   29  C   UNL     1      40.564  40.700  65.594  1.00  0.00     0.007 A 
HETATM   30  C   UNL     1      39.980  39.580  65.000  1.00  0.00    -0.062 A 
HETATM   31  C   UNL     1      39.983  38.249  65.693  1.00  0.00     0.048 C 
HETATM   32  C   UNL     1      39.386  39.715  63.743  1.00  0.00     0.007 A 
HETATM   33  C   UNL     1      39.380  40.951  63.089  1.00  0.00     0.010 A 
ENDBRANCH   1  27
TORSDOF 5
ENDMDL
MODEL 8
REMARK VINA RESULT:      -8.1     25.316     26.959
REMARK  5 active torsions:
REMARK  status: ('A' for Active; 'I' for Inactive)
REMARK    1  A    between atoms: C_5  and  C_6 
REMARK    2  A    between atoms: C_11  and  C_12 
REMARK       I    between atoms: C_12  and  N_13 
REMARK    3  A    between atoms: N_13  and  C_14 
REMARK    4  A    between atoms: C_16  and  O_17 
REMARK    5  A    between atoms: C_23  and  C_24 
ROOT
HETATM    1  C   UNL     1      29.200  51.865  38.231  1.00  0.00     0.118 C 
HETATM    2  N   UNL     1      30.597  51.584  37.917  1.00  0.00    -0.366 N 
HETATM    3  C   UNL     1      31.593  51.836  38.792  1.00  0.00     0.123 A 
HETATM    4  N   UNL     1      31.381  52.534  39.947  1.00  0.00    -0.240 N 
HETATM    5  N   UNL     1      32.500  52.752  40.665  1.00  0.00    -0.165 NA
HETATM    6  C   UNL     1      33.450  52.073  39.980  1.00  0.00     0.148 A 
HETATM    7  C   UNL     1      32.920  51.504  38.790  1.00  0.00     0.089 A 
HETATM    8  C   UNL     1      30.089  53.034  40.374  1.00  0.00     0.221 C 
HETATM    9  C   UNL     1      29.093  53.059  39.198  1.00  0.00     0.066 C 
HETATM   10  H   UNL     1      30.738  50.931  37.146  1.00  0.00     0.161 HD
ENDROOT
BRANCH   6  11
HETATM   11  C   UNL     1      34.841  51.966  40.457  1.00  0.00     0.276 C 
HETATM   12  N   UNL     1      34.914  51.948  41.835  1.00  0.00    -0.322 N 
HETATM   13  H   UNL     1      34.010  52.052  42.291  1.00  0.00     0.169 HD
HETATM   14  O   UNL     1      35.782  51.904  39.672  1.00  0.00    -0.266 OA
BRANCH  12  15
HETATM   15  C   UNL     1      36.055  51.802  42.645  1.00  0.00     0.037 A 
HETATM   16  C   UNL     1      36.982  50.768  42.498  1.00  0.00     0.066 A 
HETATM   17  C   UNL     1      38.077  50.691  43.357  1.00  0.00     0.067 A 
HETATM   18  C   UNL     1      38.270  51.633  44.359  1.00  0.00     0.036 A 
HETATM   19  C   UNL     1      37.352  52.668  44.511  1.00  0.00     0.005 A 
HETATM   20  C   UNL     1      36.246  52.749  43.660  1.00  0.00     0.029 A 
BRANCH  17  21
HETATM   21  O   UNL     1      38.992  49.685  43.248  1.00  0.00    -0.361 OA
HETATM   22  H   UNL     1      39.568  49.877  42.488  1.00  0.00     0.217 HD
ENDBRANCH  17  21
ENDBRANCH  12  15
ENDBRANCH   6  11
BRANCH   8  23
HETATM   23  C   UNL     1      29.596  52.258  41.575  1.00  0.00     0.409 C 
HETATM   24  F   UNL     1      29.984  50.970  41.593  1.00  0.00    -0.169 F 
HETATM   25  F   UNL     1      30.009  52.819  42.738  1.00  0.00    -0.169 F 
HETATM   26  F   UNL     1      28.239  52.271  41.616  1.00  0.00    -0.169 F 
ENDBRANCH   8  23
BRANCH   1  27
HETATM   27  C   UNL     1      28.427  50.625  38.641  1.00  0.00    -0.035 A 
HETATM   28  C   UNL     1      27.058  50.643  38.950  1.00  0.00     0.010 A 
HETATM   29  C   UNL     1      26.393  49.480  39.352  1.00  0.00     0.007 A 
HETATM   30  C   UNL     1      27.082  48.271  39.467  1.00  0.00    -0.062 A 
HETATM   31  C   UNL     1      26.379  47.021  39.905  1.00  0.00     0.048 C 
HETATM   32  C   UNL     1      28.446  48.241  39.165  1.00  0.00     0.007 A 
HETATM   33  C   UNL     1      29.110  49.402  38.757  1.00  0.00     0.010 A 
ENDBRANCH   1  27
TORSDOF 5
ENDMDL
MODEL 9
REMARK VINA RESULT:      -8.0      3.976      9.448
REMARK  5 active torsions:
REMARK  status: ('A' for Active; 'I' for Inactive)
REMARK    1  A    between atoms: C_5  and  C_6 
REMARK    2  A    between atoms: C_11  and  C_12 
REMARK       I    between atoms: C_12  and  N_13 
REMARK    3  A    between atoms: N_13  and  C_14 
REMARK    4  A    between atoms: C_16  and  O_17 
REMARK    5  A    between atoms: C_23  and  C_24 
ROOT
HETATM    1  C   UNL     1      37.406  43.885  63.131  1.00  0.00     0.118 C 
HETATM    2  N   UNL     1      37.299  42.524  63.643  1.00  0.00    -0.366 N 
HETATM    3  C   UNL     1      38.356  41.871  64.170  1.00  0.00     0.123 A 
HETATM    4  N   UNL     1      39.626  42.370  64.092  1.00  0.00    -0.240 N 
HETATM    5  N   UNL     1      40.565  41.554  64.610  1.00  0.00    -0.165 NA
HETATM    6  C   UNL     1      39.842  40.533  65.129  1.00  0.00     0.148 A 
HETATM    7  C   UNL     1      38.457  40.690  64.853  1.00  0.00     0.089 A 
HETATM    8  C   UNL     1      39.968  43.644  63.489  1.00  0.00     0.221 C 
HETATM    9  C   UNL     1      38.823  44.151  62.590  1.00  0.00     0.066 C 
HETATM   10  H   UNL     1      36.348  42.217  63.848  1.00  0.00     0.161 HD
ENDROOT
BRANCH   6  11
HETATM   11  C   UNL     1      40.466  39.428  65.879  1.00  0.00     0.276 C 
HETATM   12  N   UNL     1      40.190  38.199  65.313  1.00  0.00    -0.322 N 
HETATM   13  H   UNL     1      39.575  38.254  64.505  1.00  0.00     0.169 HD
HETATM   14  O   UNL     1      41.140  39.638  66.881  1.00  0.00    -0.266 OA
BRANCH  12  15
HETATM   15  C   UNL     1      40.652  36.932  65.713  1.00  0.00     0.037 A 
HETATM   16  C   UNL     1      41.938  36.458  65.444  1.00  0.00     0.066 A 
HETATM   17  C   UNL     1      42.308  35.180  65.864  1.00  0.00     0.067 A 
HETATM   18  C   UNL     1      41.419  34.368  66.557  1.00  0.00     0.036 A 
HETATM   19  C   UNL     1      40.136  34.835  66.831  1.00  0.00     0.005 A 
HETATM   20  C   UNL     1      39.754  36.111  66.405  1.00  0.00     0.029 A 
BRANCH  17  21
HETATM   21  O   UNL     1      43.551  34.682  65.604  1.00  0.00    -0.361 OA
HETATM   22  H   UNL     1      43.859  35.056  64.761  1.00  0.00     0.217 HD
ENDBRANCH  17  21
ENDBRANCH  12  15
ENDBRANCH   6  11
BRANCH   8  23
HETATM   23  C   UNL     1      40.393  44.632  64.552  1.00  0.00     0.409 C 
HETATM   24  F   UNL     1      39.718  44.516  65.710  1.00  0.00    -0.169 F 
HETATM   25  F   UNL     1      41.712  44.520  64.841  1.00  0.00    -0.169 F 
HETATM   26  F   UNL     1      40.214  45.903  64.108  1.00  0.00    -0.169 F 
ENDBRANCH   8  23
BRANCH   1  27
HETATM   27  C   UNL     1      36.878  44.924  64.104  1.00  0.00    -0.035 A 
HETATM   28  C   UNL     1      36.970  46.306  63.875  1.00  0.00     0.010 A 
HETATM   29  C   UNL     1      36.494  47.227  64.813  1.00  0.00     0.007 A 
HETATM   30  C   UNL     1      35.925  46.791  66.011  1.00  0.00    -0.062 A 
HETATM   31  C   UNL     1      35.420  47.772  67.027  1.00  0.00     0.048 C 
HETATM   32  C   UNL     1      35.830  45.418  66.253  1.00  0.00     0.007 A 
HETATM   33  C   UNL     1      36.299  44.496  65.311  1.00  0.00     0.010 A 
ENDBRANCH   1  27
TORSDOF 5
ENDMDL
MODEL 10
REMARK VINA RESULT:      -7.7     26.660     28.125
REMARK  5 active torsions:
REMARK  status: ('A' for Active; 'I' for Inactive)
REMARK    1  A    between atoms: C_5  and  C_6 
REMARK    2  A    between atoms: C_11  and  C_12 
REMARK       I    between atoms: C_12  and  N_13 
REMARK    3  A    between atoms: N_13  and  C_14 
REMARK    4  A    between atoms: C_16  and  O_17 
REMARK    5  A    between atoms: C_23  and  C_24 
ROOT
HETATM    1  C   UNL     1      20.467  48.235  48.672  1.00  0.00     0.118 C 
HETATM    2  N   UNL     1      19.740  48.257  47.407  1.00  0.00    -0.366 N 
HETATM    3  C   UNL     1      18.825  49.207  47.122  1.00  0.00     0.123 A 
HETATM    4  N   UNL     1      18.391  50.097  48.064  1.00  0.00    -0.240 N 
HETATM    5  N   UNL     1      17.428  50.930  47.623  1.00  0.00    -0.165 NA
HETATM    6  C   UNL     1      17.317  50.616  46.311  1.00  0.00     0.148 A 
HETATM    7  C   UNL     1      18.164  49.527  45.968  1.00  0.00     0.089 A 
HETATM    8  C   UNL     1      18.881  50.149  49.428  1.00  0.00     0.221 C 
HETATM    9  C   UNL     1      19.611  48.843  49.798  1.00  0.00     0.066 C 
HETATM   10  H   UNL     1      20.166  47.709  46.660  1.00  0.00     0.161 HD
ENDROOT
BRANCH   6  11
HETATM   11  C   UNL     1      16.419  51.347  45.398  1.00  0.00     0.276 C 
HETATM   12  N   UNL     1      16.239  52.658  45.792  1.00  0.00    -0.322 N 
HETATM   13  H   UNL     1      16.717  52.890  46.660  1.00  0.00     0.169 HD
HETATM   14  O   UNL     1      15.921  50.801  44.420  1.00  0.00    -0.266 OA
BRANCH  12  15
HETATM   15  C   UNL     1      15.502  53.668  45.148  1.00  0.00     0.037 A 
HETATM   16  C   UNL     1      15.795  54.141  43.866  1.00  0.00     0.066 A 
HETATM   17  C   UNL     1      15.020  55.158  43.310  1.00  0.00     0.067 A 
HETATM   18  C   UNL     1      13.950  55.708  44.006  1.00  0.00     0.036 A 
HETATM   19  C   UNL     1      13.652  55.240  45.282  1.00  0.00     0.005 A 
HETATM   20  C   UNL     1      14.428  54.227  45.852  1.00  0.00     0.029 A 
BRANCH  17  21
HETATM   21  O   UNL     1      15.288  55.652  42.066  1.00  0.00    -0.361 OA
HETATM   22  H   UNL     1      14.446  55.767  41.595  1.00  0.00     0.217 HD
ENDBRANCH  17  21
ENDBRANCH  12  15
ENDBRANCH   6  11
BRANCH   8  23
HETATM   23  C   UNL     1      19.711  51.395  49.641  1.00  0.00     0.409 C 
HETATM   24  F   UNL     1      20.799  51.204  50.409  1.00  0.00    -0.169 F 
HETATM   25  F   UNL     1      20.134  51.923  48.467  1.00  0.00    -0.169 F 
HETATM   26  F   UNL     1      18.962  52.359  50.236  1.00  0.00    -0.169 F 
ENDBRANCH   8  23
BRANCH   1  27
HETATM   27  C   UNL     1      21.874  48.791  48.553  1.00  0.00    -0.035 A 
HETATM   28  C   UNL     1      22.203  49.874  47.723  1.00  0.00     0.010 A 
HETATM   29  C   UNL     1      23.519  50.335  47.623  1.00  0.00     0.007 A 
HETATM   30  C   UNL     1      24.544  49.716  48.342  1.00  0.00    -0.062 A 
HETATM   31  C   UNL     1      25.961  50.197  48.234  1.00  0.00     0.048 C 
HETATM   32  C   UNL     1      24.231  48.634  49.168  1.00  0.00     0.007 A 
HETATM   33  C   UNL     1      22.913  48.178  49.273  1.00  0.00     0.010 A 
ENDBRANCH   1  27
TORSDOF 5
ENDMDL
