MODEL 1
REMARK VINA RESULT:     -10.2      0.000      0.000
REMARK  8 active torsions:
REMARK  status: ('A' for Active; 'I' for Inactive)
REMARK    1  A    between atoms: C_4  and  S_5 
REMARK    2  A    between atoms: S_5  and  C_6 
REMARK    3  A    between atoms: C_6  and  C_7 
REMARK       I    between atoms: C_7  and  N_8 
REMARK    4  A    between atoms: N_8  and  C_9 
REMARK    5  A    between atoms: C_10  and  O_11 
REMARK    6  A    between atoms: C_22  and  C_23 
REMARK    7  A    between atoms: C_29  and  C_30 
REMARK       I    between atoms: C_30  and  N_31 
REMARK    8  A    between atoms: N_31  and  C_32 
ROOT
HETATM    1  C   UNL     1      22.347  45.126  47.948  1.00  0.00     0.069 C 
HETATM    2  C   UNL     1      23.226  45.770  48.991  1.00  0.00     0.019 C 
HETATM    3  N   UNL     1      23.965  44.898  49.781  1.00  0.00    -0.353 N 
HETATM    4  C   UNL     1      24.534  45.257  50.993  1.00  0.00     0.088 C 
HETATM    5  C   UNL     1      24.741  46.567  51.265  1.00  0.00     0.069 C 
HETATM    6  C   UNL     1      25.283  47.039  52.498  1.00  0.00     0.099 C 
HETATM    7  N   UNL     1      25.693  47.486  53.487  1.00  0.00    -0.192 NA
HETATM    8  C   UNL     1      24.301  47.631  50.259  1.00  0.00     0.106 C 
HETATM    9  C   UNL     1      23.319  47.105  49.211  1.00  0.00     0.046 C 
HETATM   10  H   UNL     1      23.761  43.906  49.686  1.00  0.00     0.166 HD
ENDROOT
BRANCH   4  11
HETATM   11  S   UNL     1      24.853  44.017  52.199  1.00  0.00    -0.102 SA
BRANCH  11  12
HETATM   12  C   UNL     1      25.739  42.869  51.102  1.00  0.00     0.184 C 
BRANCH  12  13
HETATM   13  C   UNL     1      26.876  43.530  50.346  1.00  0.00     0.231 C 
HETATM   14  N   UNL     1      27.883  44.129  51.058  1.00  0.00    -0.324 N 
HETATM   15  H   UNL     1      28.325  44.903  50.569  1.00  0.00     0.169 HD
HETATM   16  O   UNL     1      26.831  43.690  49.125  1.00  0.00    -0.272 OA
BRANCH  14  17
HETATM   17  C   UNL     1      28.342  43.891  52.365  1.00  0.00     0.070 A 
HETATM   18  C   UNL     1      28.896  42.630  52.656  1.00  0.00     0.095 A 
HETATM   19  C   UNL     1      29.305  42.335  53.960  1.00  0.00     0.041 A 
HETATM   20  C   UNL     1      29.168  43.292  54.969  1.00  0.00     0.026 A 
HETATM   21  C   UNL     1      28.612  44.533  54.676  1.00  0.00     0.036 A 
HETATM   22 CL   UNL     1      28.415  45.699  55.927  1.00  0.00    -0.084 Cl
HETATM   23  C   UNL     1      28.193  44.837  53.383  1.00  0.00     0.056 A 
BRANCH  18  24
HETATM   24  O   UNL     1      28.998  41.753  51.603  1.00  0.00    -0.354 OA
HETATM   25  C   UNL     1      28.792  40.381  51.928  1.00  0.00     0.210 C 
ENDBRANCH  18  24
ENDBRANCH  14  17
ENDBRANCH  12  13
ENDBRANCH  11  12
ENDBRANCH   4  11
BRANCH   8  26
HETATM   26  C   UNL     1      25.523  48.315  49.636  1.00  0.00    -0.044 A 
HETATM   27  C   UNL     1      25.403  49.480  48.860  1.00  0.00     0.008 A 
HETATM   28  C   UNL     1      26.530  50.083  48.301  1.00  0.00     0.001 A 
HETATM   29  C   UNL     1      27.791  49.522  48.495  1.00  0.00     0.000 A 
HETATM   30  C   UNL     1      27.924  48.355  49.244  1.00  0.00     0.001 A 
HETATM   31  C   UNL     1      26.800  47.753  49.810  1.00  0.00     0.008 A 
ENDBRANCH   8  26
BRANCH   9  32
HETATM   32  C   UNL     1      22.301  48.047  48.631  1.00  0.00     0.255 C 
HETATM   33  N   UNL     1      21.783  48.958  49.525  1.00  0.00    -0.323 N 
HETATM   34  H   UNL     1      22.218  49.035  50.434  1.00  0.00     0.169 HD
HETATM   35  O   UNL     1      21.939  47.899  47.468  1.00  0.00    -0.268 OA
BRANCH  33  36
HETATM   36  C   UNL     1      20.654  49.789  49.341  1.00  0.00     0.035 A 
HETATM   37  C   UNL     1      19.365  49.471  49.774  1.00  0.00     0.029 A 
HETATM   38  C   UNL     1      18.310  50.371  49.587  1.00  0.00     0.002 A 
HETATM   39  C   UNL     1      18.537  51.600  48.973  1.00  0.00     0.000 A 
HETATM   40  C   UNL     1      19.816  51.926  48.533  1.00  0.00     0.002 A 
HETATM   41  C   UNL     1      20.868  51.022  48.710  1.00  0.00     0.029 A 
ENDBRANCH  33  36
ENDBRANCH   9  32
TORSDOF 8
ENDMDL
MODEL 2
REMARK VINA RESULT:      -9.9      1.775      2.457
REMARK  8 active torsions:
REMARK  status: ('A' for Active; 'I' for Inactive)
REMARK    1  A    between atoms: C_4  and  S_5 
REMARK    2  A    between atoms: S_5  and  C_6 
REMARK    3  A    between atoms: C_6  and  C_7 
REMARK       I    between atoms: C_7  and  N_8 
REMARK    4  A    between atoms: N_8  and  C_9 
REMARK    5  A    between atoms: C_10  and  O_11 
REMARK    6  A    between atoms: C_22  and  C_23 
REMARK    7  A    between atoms: C_29  and  C_30 
REMARK       I    between atoms: C_30  and  N_31 
REMARK    8  A    between atoms: N_31  and  C_32 
ROOT
HETATM    1  C   UNL     1      23.022  44.357  47.891  1.00  0.00     0.069 C 
HETATM    2  C   UNL     1      23.684  45.226  48.931  1.00  0.00     0.019 C 
HETATM    3  N   UNL     1      24.574  44.581  49.780  1.00  0.00    -0.353 N 
HETATM    4  C   UNL     1      24.996  45.107  50.992  1.00  0.00     0.088 C 
HETATM    5  C   UNL     1      24.880  46.438  51.211  1.00  0.00     0.069 C 
HETATM    6  C   UNL     1      25.249  47.068  52.438  1.00  0.00     0.099 C 
HETATM    7  N   UNL     1      25.503  47.634  53.418  1.00  0.00    -0.192 NA
HETATM    8  C   UNL     1      24.245  47.332  50.146  1.00  0.00     0.106 C 
HETATM    9  C   UNL     1      23.454  46.553  49.094  1.00  0.00     0.046 C 
HETATM   10  H   UNL     1      24.611  43.566  49.723  1.00  0.00     0.166 HD
ENDROOT
BRANCH   4  11
HETATM   11  S   UNL     1      25.547  44.021  52.261  1.00  0.00    -0.102 SA
BRANCH  11  12
HETATM   12  C   UNL     1      27.275  44.589  52.297  1.00  0.00     0.184 C 
BRANCH  12  13
HETATM   13  C   UNL     1      28.253  43.488  52.660  1.00  0.00     0.231 C 
HETATM   14  N   UNL     1      29.180  43.725  53.642  1.00  0.00    -0.324 N 
HETATM   15  H   UNL     1      30.040  43.195  53.528  1.00  0.00     0.169 HD
HETATM   16  O   UNL     1      28.347  42.461  51.985  1.00  0.00    -0.272 OA
BRANCH  14  17
HETATM   17  C   UNL     1      29.154  44.624  54.722  1.00  0.00     0.070 A 
HETATM   18  C   UNL     1      30.049  44.410  55.787  1.00  0.00     0.095 A 
HETATM   19  C   UNL     1      30.010  45.246  56.906  1.00  0.00     0.041 A 
HETATM   20  C   UNL     1      29.086  46.293  56.965  1.00  0.00     0.026 A 
HETATM   21  C   UNL     1      28.198  46.494  55.912  1.00  0.00     0.036 A 
HETATM   22 CL   UNL     1      27.039  47.764  56.000  1.00  0.00    -0.084 Cl
HETATM   23  C   UNL     1      28.222  45.663  54.795  1.00  0.00     0.056 A 
BRANCH  18  24
HETATM   24  O   UNL     1      30.926  43.362  55.643  1.00  0.00    -0.354 OA
HETATM   25  C   UNL     1      31.733  43.079  56.783  1.00  0.00     0.210 C 
ENDBRANCH  18  24
ENDBRANCH  14  17
ENDBRANCH  12  13
ENDBRANCH  11  12
ENDBRANCH   4  11
BRANCH   8  26
HETATM   26  C   UNL     1      25.297  48.261  49.530  1.00  0.00    -0.044 A 
HETATM   27  C   UNL     1      24.937  49.370  48.747  1.00  0.00     0.008 A 
HETATM   28  C   UNL     1      25.914  50.199  48.195  1.00  0.00     0.001 A 
HETATM   29  C   UNL     1      27.264  49.924  48.404  1.00  0.00     0.000 A 
HETATM   30  C   UNL     1      27.637  48.816  49.160  1.00  0.00     0.001 A 
HETATM   31  C   UNL     1      26.663  47.988  49.719  1.00  0.00     0.008 A 
ENDBRANCH   8  26
BRANCH   9  32
HETATM   32  C   UNL     1      22.269  47.208  48.442  1.00  0.00     0.255 C 
HETATM   33  N   UNL     1      21.161  47.332  49.252  1.00  0.00    -0.323 N 
HETATM   34  H   UNL     1      21.264  47.128  50.236  1.00  0.00     0.169 HD
HETATM   35  O   UNL     1      22.323  47.502  47.252  1.00  0.00    -0.268 OA
BRANCH  33  36
HETATM   36  C   UNL     1      19.847  47.672  48.855  1.00  0.00     0.035 A 
HETATM   37  C   UNL     1      19.003  46.831  48.128  1.00  0.00     0.029 A 
HETATM   38  C   UNL     1      17.700  47.231  47.813  1.00  0.00     0.002 A 
HETATM   39  C   UNL     1      17.227  48.472  48.229  1.00  0.00     0.000 A 
HETATM   40  C   UNL     1      18.060  49.321  48.952  1.00  0.00     0.002 A 
HETATM   41  C   UNL     1      19.366  48.925  49.257  1.00  0.00     0.029 A 
ENDBRANCH  33  36
ENDBRANCH   9  32
TORSDOF 8
ENDMDL
MODEL 3
REMARK VINA RESULT:      -9.9      2.772      8.985
REMARK  8 active torsions:
REMARK  status: ('A' for Active; 'I' for Inactive)
REMARK    1  A    between atoms: C_4  and  S_5 
REMARK    2  A    between atoms: S_5  and  C_6 
REMARK    3  A    between atoms: C_6  and  C_7 
REMARK       I    between atoms: C_7  and  N_8 
REMARK    4  A    between atoms: N_8  and  C_9 
REMARK    5  A    between atoms: C_10  and  O_11 
REMARK    6  A    between atoms: C_22  and  C_23 
REMARK    7  A    between atoms: C_29  and  C_30 
REMARK       I    between atoms: C_30  and  N_31 
REMARK    8  A    between atoms: N_31  and  C_32 
ROOT
HETATM    1  C   UNL     1      25.941  46.359  49.949  1.00  0.00     0.069 C 
HETATM    2  C   UNL     1      25.354  45.014  49.600  1.00  0.00     0.019 C 
HETATM    3  N   UNL     1      24.619  44.963  48.422  1.00  0.00    -0.353 N 
HETATM    4  C   UNL     1      23.724  43.948  48.120  1.00  0.00     0.088 C 
HETATM    5  C   UNL     1      23.827  42.762  48.766  1.00  0.00     0.069 C 
HETATM    6  C   UNL     1      22.932  41.671  48.555  1.00  0.00     0.099 C 
HETATM    7  N   UNL     1      22.222  40.760  48.448  1.00  0.00    -0.192 NA
HETATM    8  C   UNL     1      24.890  42.575  49.849  1.00  0.00     0.106 C 
HETATM    9  C   UNL     1      25.480  43.894  50.353  1.00  0.00     0.046 C 
HETATM   10  H   UNL     1      24.426  45.850  47.962  1.00  0.00     0.166 HD
ENDROOT
BRANCH   4  11
HETATM   11  S   UNL     1      22.401  44.265  47.005  1.00  0.00    -0.102 SA
BRANCH  11  12
HETATM   12  C   UNL     1      22.212  46.032  47.390  1.00  0.00     0.184 C 
BRANCH  12  13
HETATM   13  C   UNL     1      21.118  46.304  48.405  1.00  0.00     0.231 C 
HETATM   14  N   UNL     1      21.215  47.417  49.199  1.00  0.00    -0.324 N 
HETATM   15  H   UNL     1      20.765  47.313  50.104  1.00  0.00     0.169 HD
HETATM   16  O   UNL     1      20.244  45.470  48.649  1.00  0.00    -0.272 OA
BRANCH  14  17
HETATM   17  C   UNL     1      21.891  48.631  48.988  1.00  0.00     0.070 A 
HETATM   18  C   UNL     1      21.129  49.810  48.894  1.00  0.00     0.095 A 
HETATM   19  C   UNL     1      21.760  51.026  48.622  1.00  0.00     0.041 A 
HETATM   20  C   UNL     1      23.146  51.072  48.449  1.00  0.00     0.026 A 
HETATM   21  C   UNL     1      23.894  49.901  48.536  1.00  0.00     0.036 A 
HETATM   22 CL   UNL     1      25.597  49.953  48.290  1.00  0.00    -0.084 Cl
HETATM   23  C   UNL     1      23.275  48.681  48.798  1.00  0.00     0.056 A 
BRANCH  18  24
HETATM   24  O   UNL     1      19.774  49.674  49.082  1.00  0.00    -0.354 OA
HETATM   25  C   UNL     1      19.277  50.167  50.324  1.00  0.00     0.210 C 
ENDBRANCH  18  24
ENDBRANCH  14  17
ENDBRANCH  12  13
ENDBRANCH  11  12
ENDBRANCH   4  11
BRANCH   8  26
HETATM   26  C   UNL     1      25.963  41.587  49.380  1.00  0.00    -0.044 A 
HETATM   27  C   UNL     1      26.739  41.827  48.233  1.00  0.00     0.008 A 
HETATM   28  C   UNL     1      27.708  40.910  47.825  1.00  0.00     0.001 A 
HETATM   29  C   UNL     1      27.904  39.733  48.545  1.00  0.00     0.000 A 
HETATM   30  C   UNL     1      27.129  39.470  49.671  1.00  0.00     0.001 A 
HETATM   31  C   UNL     1      26.163  40.388  50.087  1.00  0.00     0.008 A 
ENDBRANCH   8  26
BRANCH   9  32
HETATM   32  C   UNL     1      25.959  43.979  51.775  1.00  0.00     0.255 C 
HETATM   33  N   UNL     1      27.311  44.205  51.916  1.00  0.00    -0.323 N 
HETATM   34  H   UNL     1      27.842  44.447  51.091  1.00  0.00     0.169 HD
HETATM   35  O   UNL     1      25.170  43.762  52.689  1.00  0.00    -0.268 OA
BRANCH  33  36
HETATM   36  C   UNL     1      28.078  44.088  53.098  1.00  0.00     0.035 A 
HETATM   37  C   UNL     1      28.942  43.027  53.373  1.00  0.00     0.029 A 
HETATM   38  C   UNL     1      29.697  43.011  54.551  1.00  0.00     0.002 A 
HETATM   39  C   UNL     1      29.599  44.060  55.461  1.00  0.00     0.000 A 
HETATM   40  C   UNL     1      28.737  45.121  55.200  1.00  0.00     0.002 A 
HETATM   41  C   UNL     1      27.975  45.131  54.028  1.00  0.00     0.029 A 
ENDBRANCH  33  36
ENDBRANCH   9  32
TORSDOF 8
ENDMDL
MODEL 4
REMARK VINA RESULT:      -9.6      2.539      3.578
REMARK  8 active torsions:
REMARK  status: ('A' for Active; 'I' for Inactive)
REMARK    1  A    between atoms: C_4  and  S_5 
REMARK    2  A    between atoms: S_5  and  C_6 
REMARK    3  A    between atoms: C_6  and  C_7 
REMARK       I    between atoms: C_7  and  N_8 
REMARK    4  A    between atoms: N_8  and  C_9 
REMARK    5  A    between atoms: C_10  and  O_11 
REMARK    6  A    between atoms: C_22  and  C_23 
REMARK    7  A    between atoms: C_29  and  C_30 
REMARK       I    between atoms: C_30  and  N_31 
REMARK    8  A    between atoms: N_31  and  C_32 
ROOT
HETATM    1  C   UNL     1      22.788  44.532  47.999  1.00  0.00     0.069 C 
HETATM    2  C   UNL     1      23.534  45.343  49.029  1.00  0.00     0.019 C 
HETATM    3  N   UNL     1      24.380  44.626  49.865  1.00  0.00    -0.353 N 
HETATM    4  C   UNL     1      24.861  45.113  51.071  1.00  0.00     0.088 C 
HETATM    5  C   UNL     1      24.857  46.449  51.294  1.00  0.00     0.069 C 
HETATM    6  C   UNL     1      25.292  47.045  52.515  1.00  0.00     0.099 C 
HETATM    7  N   UNL     1      25.606  47.586  53.492  1.00  0.00    -0.192 NA
HETATM    8  C   UNL     1      24.281  47.394  50.239  1.00  0.00     0.106 C 
HETATM    9  C   UNL     1      23.415  46.683  49.197  1.00  0.00     0.046 C 
HETATM   10  H   UNL     1      24.334  43.611  49.806  1.00  0.00     0.166 HD
ENDROOT
BRANCH   4  11
HETATM   11  S   UNL     1      25.340  43.983  52.331  1.00  0.00    -0.102 SA
BRANCH  11  12
HETATM   12  C   UNL     1      26.849  43.378  51.518  1.00  0.00     0.184 C 
BRANCH  12  13
HETATM   13  C   UNL     1      27.389  42.105  52.140  1.00  0.00     0.231 C 
HETATM   14  N   UNL     1      27.035  40.899  51.591  1.00  0.00    -0.324 N 
HETATM   15  H   UNL     1      27.021  40.134  52.260  1.00  0.00     0.169 HD
HETATM   16  O   UNL     1      27.989  42.117  53.216  1.00  0.00    -0.272 OA
BRANCH  14  17
HETATM   17  C   UNL     1      26.627  40.577  50.285  1.00  0.00     0.070 A 
HETATM   18  C   UNL     1      27.553  39.947  49.434  1.00  0.00     0.095 A 
HETATM   19  C   UNL     1      27.203  39.669  48.110  1.00  0.00     0.041 A 
HETATM   20  C   UNL     1      25.935  40.013  47.635  1.00  0.00     0.026 A 
HETATM   21  C   UNL     1      25.026  40.644  48.479  1.00  0.00     0.036 A 
HETATM   22 CL   UNL     1      23.476  41.096  47.883  1.00  0.00    -0.084 Cl
HETATM   23  C   UNL     1      25.366  40.933  49.798  1.00  0.00     0.056 A 
BRANCH  18  24
HETATM   24  O   UNL     1      28.774  39.640  49.986  1.00  0.00    -0.354 OA
HETATM   25  C   UNL     1      29.094  38.252  50.029  1.00  0.00     0.210 C 
ENDBRANCH  18  24
ENDBRANCH  14  17
ENDBRANCH  12  13
ENDBRANCH  11  12
ENDBRANCH   4  11
BRANCH   8  26
HETATM   26  C   UNL     1      25.396  48.235  49.609  1.00  0.00    -0.044 A 
HETATM   27  C   UNL     1      25.115  49.347  48.797  1.00  0.00     0.008 A 
HETATM   28  C   UNL     1      26.149  50.096  48.233  1.00  0.00     0.001 A 
HETATM   29  C   UNL     1      27.476  49.735  48.457  1.00  0.00     0.000 A 
HETATM   30  C   UNL     1      27.770  48.623  49.241  1.00  0.00     0.001 A 
HETATM   31  C   UNL     1      26.740  47.876  49.813  1.00  0.00     0.008 A 
ENDBRANCH   8  26
BRANCH   9  32
HETATM   32  C   UNL     1      22.277  47.434  48.563  1.00  0.00     0.255 C 
HETATM   33  N   UNL     1      21.221  47.702  49.407  1.00  0.00    -0.323 N 
HETATM   34  H   UNL     1      21.343  47.523  50.394  1.00  0.00     0.169 HD
HETATM   35  O   UNL     1      22.313  47.677  47.361  1.00  0.00    -0.268 OA
BRANCH  33  36
HETATM   36  C   UNL     1      19.934  48.161  49.045  1.00  0.00     0.035 A 
HETATM   37  C   UNL     1      19.558  49.505  49.016  1.00  0.00     0.029 A 
HETATM   38  C   UNL     1      18.273  49.875  48.605  1.00  0.00     0.002 A 
HETATM   39  C   UNL     1      17.355  48.905  48.212  1.00  0.00     0.000 A 
HETATM   40  C   UNL     1      17.717  47.561  48.241  1.00  0.00     0.002 A 
HETATM   41  C   UNL     1      18.998  47.191  48.662  1.00  0.00     0.029 A 
ENDBRANCH  33  36
ENDBRANCH   9  32
TORSDOF 8
ENDMDL
MODEL 5
REMARK VINA RESULT:      -9.5      2.864      3.908
REMARK  8 active torsions:
REMARK  status: ('A' for Active; 'I' for Inactive)
REMARK    1  A    between atoms: C_4  and  S_5 
REMARK    2  A    between atoms: S_5  and  C_6 
REMARK    3  A    between atoms: C_6  and  C_7 
REMARK       I    between atoms: C_7  and  N_8 
REMARK    4  A    between atoms: N_8  and  C_9 
REMARK    5  A    between atoms: C_10  and  O_11 
REMARK    6  A    between atoms: C_22  and  C_23 
REMARK    7  A    between atoms: C_29  and  C_30 
REMARK       I    between atoms: C_30  and  N_31 
REMARK    8  A    between atoms: N_31  and  C_32 
ROOT
HETATM    1  C   UNL     1      21.967  45.597  47.011  1.00  0.00     0.069 C 
HETATM    2  C   UNL     1      22.888  45.867  48.175  1.00  0.00     0.019 C 
HETATM    3  N   UNL     1      23.584  44.768  48.662  1.00  0.00    -0.353 N 
HETATM    4  C   UNL     1      24.181  44.731  49.913  1.00  0.00     0.088 C 
HETATM    5  C   UNL     1      24.461  45.895  50.547  1.00  0.00     0.069 C 
HETATM    6  C   UNL     1      25.038  45.962  51.850  1.00  0.00     0.099 C 
HETATM    7  N   UNL     1      25.479  46.082  52.917  1.00  0.00    -0.192 NA
HETATM    8  C   UNL     1      24.072  47.225  49.901  1.00  0.00     0.106 C 
HETATM    9  C   UNL     1      23.055  47.075  48.769  1.00  0.00     0.046 C 
HETATM   10  H   UNL     1      23.325  43.857  48.289  1.00  0.00     0.166 HD
ENDROOT
BRANCH   4  11
HETATM   11  S   UNL     1      24.441  43.181  50.702  1.00  0.00    -0.102 SA
BRANCH  11  12
HETATM   12  C   UNL     1      25.367  42.400  49.346  1.00  0.00     0.184 C 
BRANCH  12  13
HETATM   13  C   UNL     1      26.844  42.745  49.360  1.00  0.00     0.231 C 
HETATM   14  N   UNL     1      27.762  41.728  49.305  1.00  0.00    -0.324 N 
HETATM   15  H   UNL     1      28.643  41.948  49.761  1.00  0.00     0.169 HD
HETATM   16  O   UNL     1      27.235  43.891  49.590  1.00  0.00    -0.272 OA
BRANCH  14  17
HETATM   17  C   UNL     1      27.650  40.426  48.787  1.00  0.00     0.070 A 
HETATM   18  C   UNL     1      27.877  40.235  47.412  1.00  0.00     0.095 A 
HETATM   19  C   UNL     1      27.713  38.966  46.851  1.00  0.00     0.041 A 
HETATM   20  C   UNL     1      27.328  37.890  47.654  1.00  0.00     0.026 A 
HETATM   21  C   UNL     1      27.097  38.087  49.013  1.00  0.00     0.036 A 
HETATM   22 CL   UNL     1      26.591  36.768  49.996  1.00  0.00    -0.084 Cl
HETATM   23  C   UNL     1      27.249  39.349  49.582  1.00  0.00     0.056 A 
BRANCH  18  24
HETATM   24  O   UNL     1      28.257  41.346  46.698  1.00  0.00    -0.354 OA
HETATM   25  C   UNL     1      28.299  41.179  45.283  1.00  0.00     0.210 C 
ENDBRANCH  18  24
ENDBRANCH  14  17
ENDBRANCH  12  13
ENDBRANCH  11  12
ENDBRANCH   4  11
BRANCH   8  26
HETATM   26  C   UNL     1      25.325  47.998  49.474  1.00  0.00    -0.044 A 
HETATM   27  C   UNL     1      26.617  47.498  49.707  1.00  0.00     0.008 A 
HETATM   28  C   UNL     1      27.742  48.222  49.311  1.00  0.00     0.001 A 
HETATM   29  C   UNL     1      27.594  49.462  48.692  1.00  0.00     0.000 A 
HETATM   30  C   UNL     1      26.320  49.980  48.474  1.00  0.00     0.001 A 
HETATM   31  C   UNL     1      25.192  49.257  48.862  1.00  0.00     0.008 A 
ENDBRANCH   8  26
BRANCH   9  32
HETATM   32  C   UNL     1      22.086  48.194  48.510  1.00  0.00     0.255 C 
HETATM   33  N   UNL     1      21.267  48.507  49.573  1.00  0.00    -0.323 N 
HETATM   34  H   UNL     1      21.471  48.089  50.471  1.00  0.00     0.169 HD
HETATM   35  O   UNL     1      22.019  48.683  47.387  1.00  0.00    -0.268 OA
BRANCH  33  36
HETATM   36  C   UNL     1      20.114  49.325  49.552  1.00  0.00     0.035 A 
HETATM   37  C   UNL     1      18.830  48.866  49.259  1.00  0.00     0.029 A 
HETATM   38  C   UNL     1      17.736  49.737  49.302  1.00  0.00     0.002 A 
HETATM   39  C   UNL     1      17.917  51.074  49.646  1.00  0.00     0.000 A 
HETATM   40  C   UNL     1      19.194  51.545  49.936  1.00  0.00     0.002 A 
HETATM   41  C   UNL     1      20.288  50.676  49.883  1.00  0.00     0.029 A 
ENDBRANCH  33  36
ENDBRANCH   9  32
TORSDOF 8
ENDMDL
MODEL 6
REMARK VINA RESULT:      -9.4      2.962      9.432
REMARK  8 active torsions:
REMARK  status: ('A' for Active; 'I' for Inactive)
REMARK    1  A    between atoms: C_4  and  S_5 
REMARK    2  A    between atoms: S_5  and  C_6 
REMARK    3  A    between atoms: C_6  and  C_7 
REMARK       I    between atoms: C_7  and  N_8 
REMARK    4  A    between atoms: N_8  and  C_9 
REMARK    5  A    between atoms: C_10  and  O_11 
REMARK    6  A    between atoms: C_22  and  C_23 
REMARK    7  A    between atoms: C_29  and  C_30 
REMARK       I    between atoms: C_30  and  N_31 
REMARK    8  A    between atoms: N_31  and  C_32 
ROOT
HETATM    1  C   UNL     1      26.140  46.363  49.926  1.00  0.00     0.069 C 
HETATM    2  C   UNL     1      25.540  45.030  49.552  1.00  0.00     0.019 C 
HETATM    3  N   UNL     1      24.752  45.023  48.409  1.00  0.00    -0.353 N 
HETATM    4  C   UNL     1      23.845  44.017  48.108  1.00  0.00     0.088 C 
HETATM    5  C   UNL     1      23.979  42.807  48.702  1.00  0.00     0.069 C 
HETATM    6  C   UNL     1      23.077  41.722  48.490  1.00  0.00     0.099 C 
HETATM    7  N   UNL     1      22.365  40.813  48.380  1.00  0.00    -0.192 NA
HETATM    8  C   UNL     1      25.092  42.582  49.727  1.00  0.00     0.106 C 
HETATM    9  C   UNL     1      25.702  43.882  50.254  1.00  0.00     0.046 C 
HETATM   10  H   UNL     1      24.535  45.926  47.993  1.00  0.00     0.166 HD
ENDROOT
BRANCH   4  11
HETATM   11  S   UNL     1      22.472  44.372  47.069  1.00  0.00    -0.102 SA
BRANCH  11  12
HETATM   12  C   UNL     1      22.004  45.943  47.857  1.00  0.00     0.184 C 
BRANCH  12  13
HETATM   13  C   UNL     1      20.708  45.852  48.639  1.00  0.00     0.231 C 
HETATM   14  N   UNL     1      20.197  46.990  49.207  1.00  0.00    -0.324 N 
HETATM   15  H   UNL     1      19.648  46.817  50.044  1.00  0.00     0.169 HD
HETATM   16  O   UNL     1      20.199  44.765  48.918  1.00  0.00    -0.272 OA
BRANCH  14  17
HETATM   17  C   UNL     1      20.373  48.341  48.859  1.00  0.00     0.070 A 
HETATM   18  C   UNL     1      19.361  48.973  48.113  1.00  0.00     0.095 A 
HETATM   19  C   UNL     1      19.529  50.296  47.695  1.00  0.00     0.041 A 
HETATM   20  C   UNL     1      20.698  50.989  48.021  1.00  0.00     0.026 A 
HETATM   21  C   UNL     1      21.698  50.355  48.752  1.00  0.00     0.036 A 
HETATM   22 CL   UNL     1      23.151  51.200  49.126  1.00  0.00    -0.084 Cl
HETATM   23  C   UNL     1      21.546  49.035  49.167  1.00  0.00     0.056 A 
BRANCH  18  24
HETATM   24  O   UNL     1      18.245  48.219  47.842  1.00  0.00    -0.354 OA
HETATM   25  C   UNL     1      17.047  48.647  48.485  1.00  0.00     0.210 C 
ENDBRANCH  18  24
ENDBRANCH  14  17
ENDBRANCH  12  13
ENDBRANCH  11  12
ENDBRANCH   4  11
BRANCH   8  26
HETATM   26  C   UNL     1      26.143  41.616  49.170  1.00  0.00    -0.044 A 
HETATM   27  C   UNL     1      26.767  40.653  49.982  1.00  0.00     0.008 A 
HETATM   28  C   UNL     1      27.723  39.786  49.452  1.00  0.00     0.001 A 
HETATM   29  C   UNL     1      28.083  39.879  48.110  1.00  0.00     0.000 A 
HETATM   30  C   UNL     1      27.490  40.842  47.297  1.00  0.00     0.001 A 
HETATM   31  C   UNL     1      26.528  41.706  47.821  1.00  0.00     0.008 A 
ENDBRANCH   8  26
BRANCH   9  32
HETATM   32  C   UNL     1      26.246  43.913  51.655  1.00  0.00     0.255 C 
HETATM   33  N   UNL     1      27.610  44.087  51.741  1.00  0.00    -0.323 N 
HETATM   34  H   UNL     1      28.113  44.331  50.899  1.00  0.00     0.169 HD
HETATM   35  O   UNL     1      25.490  43.701  52.598  1.00  0.00    -0.268 OA
BRANCH  33  36
HETATM   36  C   UNL     1      28.424  43.912  52.884  1.00  0.00     0.035 A 
HETATM   37  C   UNL     1      29.409  42.932  53.005  1.00  0.00     0.029 A 
HETATM   38  C   UNL     1      30.199  42.856  54.157  1.00  0.00     0.002 A 
HETATM   39  C   UNL     1      30.015  43.765  55.195  1.00  0.00     0.000 A 
HETATM   40  C   UNL     1      29.032  44.745  55.088  1.00  0.00     0.002 A 
HETATM   41  C   UNL     1      28.236  44.813  53.941  1.00  0.00     0.029 A 
ENDBRANCH  33  36
ENDBRANCH   9  32
TORSDOF 8
ENDMDL
MODEL 7
REMARK VINA RESULT:      -9.4      3.684      9.877
REMARK  8 active torsions:
REMARK  status: ('A' for Active; 'I' for Inactive)
REMARK    1  A    between atoms: C_4  and  S_5 
REMARK    2  A    between atoms: S_5  and  C_6 
REMARK    3  A    between atoms: C_6  and  C_7 
REMARK       I    between atoms: C_7  and  N_8 
REMARK    4  A    between atoms: N_8  and  C_9 
REMARK    5  A    between atoms: C_10  and  O_11 
REMARK    6  A    between atoms: C_22  and  C_23 
REMARK    7  A    between atoms: C_29  and  C_30 
REMARK       I    between atoms: C_30  and  N_31 
REMARK    8  A    between atoms: N_31  and  C_32 
ROOT
HETATM    1  C   UNL     1      25.266  47.473  49.870  1.00  0.00     0.069 C 
HETATM    2  C   UNL     1      24.072  46.676  49.408  1.00  0.00     0.019 C 
HETATM    3  N   UNL     1      23.167  47.355  48.602  1.00  0.00    -0.353 N 
HETATM    4  C   UNL     1      21.866  46.928  48.380  1.00  0.00     0.088 C 
HETATM    5  C   UNL     1      21.549  45.631  48.606  1.00  0.00     0.069 C 
HETATM    6  C   UNL     1      20.233  45.103  48.445  1.00  0.00     0.099 C 
HETATM    7  N   UNL     1      19.181  44.622  48.359  1.00  0.00    -0.192 NA
HETATM    8  C   UNL     1      22.610  44.671  49.146  1.00  0.00     0.106 C 
HETATM    9  C   UNL     1      23.826  45.384  49.738  1.00  0.00     0.046 C 
HETATM   10  H   UNL     1      23.307  48.357  48.496  1.00  0.00     0.166 HD
ENDROOT
BRANCH   4  11
HETATM   11  S   UNL     1      20.633  48.102  47.939  1.00  0.00    -0.102 SA
BRANCH  11  12
HETATM   12  C   UNL     1      21.717  49.562  47.934  1.00  0.00     0.184 C 
BRANCH  12  13
HETATM   13  C   UNL     1      21.726  50.298  49.260  1.00  0.00     0.231 C 
HETATM   14  N   UNL     1      20.714  51.183  49.533  1.00  0.00    -0.324 N 
HETATM   15  H   UNL     1      20.989  51.938  50.154  1.00  0.00     0.169 HD
HETATM   16  O   UNL     1      22.698  50.252  50.016  1.00  0.00    -0.272 OA
BRANCH  14  17
HETATM   17  C   UNL     1      19.401  51.246  49.037  1.00  0.00     0.070 A 
HETATM   18  C   UNL     1      18.381  50.616  49.774  1.00  0.00     0.095 A 
HETATM   19  C   UNL     1      17.073  50.604  49.281  1.00  0.00     0.041 A 
HETATM   20  C   UNL     1      16.780  51.219  48.061  1.00  0.00     0.026 A 
HETATM   21  C   UNL     1      17.795  51.832  47.333  1.00  0.00     0.036 A 
HETATM   22 CL   UNL     1      17.439  52.561  45.815  1.00  0.00    -0.084 Cl
HETATM   23  C   UNL     1      19.103  51.844  47.810  1.00  0.00     0.056 A 
BRANCH  18  24
HETATM   24  O   UNL     1      18.756  50.042  50.965  1.00  0.00    -0.354 OA
HETATM   25  C   UNL     1      18.602  48.627  51.037  1.00  0.00     0.210 C 
ENDBRANCH  18  24
ENDBRANCH  14  17
ENDBRANCH  12  13
ENDBRANCH  11  12
ENDBRANCH   4  11
BRANCH   8  26
HETATM   26  C   UNL     1      22.988  43.638  48.079  1.00  0.00    -0.044 A 
HETATM   27  C   UNL     1      23.209  42.288  48.401  1.00  0.00     0.008 A 
HETATM   28  C   UNL     1      23.555  41.367  47.412  1.00  0.00     0.001 A 
HETATM   29  C   UNL     1      23.703  41.783  46.091  1.00  0.00     0.000 A 
HETATM   30  C   UNL     1      23.509  43.121  45.758  1.00  0.00     0.001 A 
HETATM   31  C   UNL     1      23.156  44.044  46.743  1.00  0.00     0.008 A 
ENDBRANCH   8  26
BRANCH   9  32
HETATM   32  C   UNL     1      24.577  44.727  50.863  1.00  0.00     0.255 C 
HETATM   33  N   UNL     1      25.830  44.263  50.527  1.00  0.00    -0.323 N 
HETATM   34  H   UNL     1      26.210  44.524  49.628  1.00  0.00     0.169 HD
HETATM   35  O   UNL     1      24.020  44.569  51.945  1.00  0.00    -0.268 OA
BRANCH  33  36
HETATM   36  C   UNL     1      26.653  43.400  51.287  1.00  0.00     0.035 A 
HETATM   37  C   UNL     1      27.488  43.820  52.323  1.00  0.00     0.029 A 
HETATM   38  C   UNL     1      28.239  42.891  53.051  1.00  0.00     0.002 A 
HETATM   39  C   UNL     1      28.156  41.533  52.755  1.00  0.00     0.000 A 
HETATM   40  C   UNL     1      27.329  41.103  51.722  1.00  0.00     0.002 A 
HETATM   41  C   UNL     1      26.587  42.032  50.987  1.00  0.00     0.029 A 
ENDBRANCH  33  36
ENDBRANCH   9  32
TORSDOF 8
ENDMDL
MODEL 8
REMARK VINA RESULT:      -9.4      3.495      9.392
REMARK  8 active torsions:
REMARK  status: ('A' for Active; 'I' for Inactive)
REMARK    1  A    between atoms: C_4  and  S_5 
REMARK    2  A    between atoms: S_5  and  C_6 
REMARK    3  A    between atoms: C_6  and  C_7 
REMARK       I    between atoms: C_7  and  N_8 
REMARK    4  A    between atoms: N_8  and  C_9 
REMARK    5  A    between atoms: C_10  and  O_11 
REMARK    6  A    between atoms: C_22  and  C_23 
REMARK    7  A    between atoms: C_29  and  C_30 
REMARK       I    between atoms: C_30  and  N_31 
REMARK    8  A    between atoms: N_31  and  C_32 
ROOT
HETATM    1  C   UNL     1      26.007  46.197  49.730  1.00  0.00     0.069 C 
HETATM    2  C   UNL     1      25.387  44.862  49.403  1.00  0.00     0.019 C 
HETATM    3  N   UNL     1      24.659  44.807  48.221  1.00  0.00    -0.353 N 
HETATM    4  C   UNL     1      23.740  43.810  47.932  1.00  0.00     0.088 C 
HETATM    5  C   UNL     1      23.806  42.635  48.602  1.00  0.00     0.069 C 
HETATM    6  C   UNL     1      22.883  41.564  48.406  1.00  0.00     0.099 C 
HETATM    7  N   UNL     1      22.150  40.670  48.311  1.00  0.00    -0.192 NA
HETATM    8  C   UNL     1      24.856  42.441  49.696  1.00  0.00     0.106 C 
HETATM    9  C   UNL     1      25.477  43.753  50.179  1.00  0.00     0.046 C 
HETATM   10  H   UNL     1      24.493  45.689  47.742  1.00  0.00     0.166 HD
ENDROOT
BRANCH   4  11
HETATM   11  S   UNL     1      22.433  44.139  46.802  1.00  0.00    -0.102 SA
BRANCH  11  12
HETATM   12  C   UNL     1      21.994  45.781  47.450  1.00  0.00     0.184 C 
BRANCH  12  13
HETATM   13  C   UNL     1      20.940  45.726  48.539  1.00  0.00     0.231 C 
HETATM   14  N   UNL     1      20.405  46.901  49.001  1.00  0.00    -0.324 N 
HETATM   15  H   UNL     1      20.094  46.855  49.967  1.00  0.00     0.169 HD
HETATM   16  O   UNL     1      20.681  44.677  49.132  1.00  0.00    -0.272 OA
BRANCH  14  17
HETATM   17  C   UNL     1      20.289  48.156  48.379  1.00  0.00     0.070 A 
HETATM   18  C   UNL     1      21.266  49.129  48.657  1.00  0.00     0.095 A 
HETATM   19  C   UNL     1      21.149  50.409  48.107  1.00  0.00     0.041 A 
HETATM   20  C   UNL     1      20.065  50.718  47.282  1.00  0.00     0.026 A 
HETATM   21  C   UNL     1      19.097  49.754  47.018  1.00  0.00     0.036 A 
HETATM   22 CL   UNL     1      17.746  50.147  46.026  1.00  0.00    -0.084 Cl
HETATM   23  C   UNL     1      19.199  48.478  47.566  1.00  0.00     0.056 A 
BRANCH  18  24
HETATM   24  O   UNL     1      22.300  48.737  49.474  1.00  0.00    -0.354 OA
HETATM   25  C   UNL     1      23.606  48.891  48.925  1.00  0.00     0.210 C 
ENDBRANCH  18  24
ENDBRANCH  14  17
ENDBRANCH  12  13
ENDBRANCH  11  12
ENDBRANCH   4  11
BRANCH   8  26
HETATM   26  C   UNL     1      25.905  41.415  49.254  1.00  0.00    -0.044 A 
HETATM   27  C   UNL     1      26.116  40.221  49.965  1.00  0.00     0.008 A 
HETATM   28  C   UNL     1      27.079  39.304  49.543  1.00  0.00     0.001 A 
HETATM   29  C   UNL     1      27.856  39.572  48.418  1.00  0.00     0.000 A 
HETATM   30  C   UNL     1      27.673  40.760  47.716  1.00  0.00     0.001 A 
HETATM   31  C   UNL     1      26.707  41.678  48.130  1.00  0.00     0.008 A 
ENDBRANCH   8  26
BRANCH   9  32
HETATM   32  C   UNL     1      25.949  43.853  51.602  1.00  0.00     0.255 C 
HETATM   33  N   UNL     1      27.303  44.057  51.749  1.00  0.00    -0.323 N 
HETATM   34  H   UNL     1      27.845  44.275  50.923  1.00  0.00     0.169 HD
HETATM   35  O   UNL     1      25.150  43.667  52.515  1.00  0.00    -0.268 OA
BRANCH  33  36
HETATM   36  C   UNL     1      28.061  43.946  52.938  1.00  0.00     0.035 A 
HETATM   37  C   UNL     1      28.960  42.912  53.203  1.00  0.00     0.029 A 
HETATM   38  C   UNL     1      29.701  42.902  54.390  1.00  0.00     0.002 A 
HETATM   39  C   UNL     1      29.554  43.929  55.318  1.00  0.00     0.000 A 
HETATM   40  C   UNL     1      28.657  44.963  55.066  1.00  0.00     0.002 A 
HETATM   41  C   UNL     1      27.909  44.967  53.885  1.00  0.00     0.029 A 
ENDBRANCH  33  36
ENDBRANCH   9  32
TORSDOF 8
ENDMDL
MODEL 9
REMARK VINA RESULT:      -9.4      3.303      9.672
REMARK  8 active torsions:
REMARK  status: ('A' for Active; 'I' for Inactive)
REMARK    1  A    between atoms: C_4  and  S_5 
REMARK    2  A    between atoms: S_5  and  C_6 
REMARK    3  A    between atoms: C_6  and  C_7 
REMARK       I    between atoms: C_7  and  N_8 
REMARK    4  A    between atoms: N_8  and  C_9 
REMARK    5  A    between atoms: C_10  and  O_11 
REMARK    6  A    between atoms: C_22  and  C_23 
REMARK    7  A    between atoms: C_29  and  C_30 
REMARK       I    between atoms: C_30  and  N_31 
REMARK    8  A    between atoms: N_31  and  C_32 
ROOT
HETATM    1  C   UNL     1      23.391  41.977  48.789  1.00  0.00     0.069 C 
HETATM    2  C   UNL     1      24.150  43.165  49.324  1.00  0.00     0.019 C 
HETATM    3  N   UNL     1      23.426  44.346  49.431  1.00  0.00    -0.353 N 
HETATM    4  C   UNL     1      24.012  45.597  49.551  1.00  0.00     0.088 C 
HETATM    5  C   UNL     1      25.295  45.688  49.975  1.00  0.00     0.069 C 
HETATM    6  C   UNL     1      25.999  46.924  50.093  1.00  0.00     0.099 C 
HETATM    7  N   UNL     1      26.632  47.892  50.183  1.00  0.00    -0.192 NA
HETATM    8  C   UNL     1      26.092  44.416  50.267  1.00  0.00     0.106 C 
HETATM    9  C   UNL     1      25.459  43.156  49.675  1.00  0.00     0.046 C 
HETATM   10  H   UNL     1      22.493  44.353  49.024  1.00  0.00     0.166 HD
ENDROOT
BRANCH   4  11
HETATM   11  S   UNL     1      23.125  47.022  49.026  1.00  0.00    -0.102 SA
BRANCH  11  12
HETATM   12  C   UNL     1      22.037  46.176  47.840  1.00  0.00     0.184 C 
BRANCH  12  13
HETATM   13  C   UNL     1      20.705  45.770  48.441  1.00  0.00     0.231 C 
HETATM   14  N   UNL     1      19.747  46.731  48.635  1.00  0.00    -0.324 N 
HETATM   15  H   UNL     1      19.119  46.531  49.408  1.00  0.00     0.169 HD
HETATM   16  O   UNL     1      20.528  44.646  48.914  1.00  0.00    -0.272 OA
BRANCH  14  17
HETATM   17  C   UNL     1      19.546  47.962  47.987  1.00  0.00     0.070 A 
HETATM   18  C   UNL     1      18.962  47.953  46.707  1.00  0.00     0.095 A 
HETATM   19  C   UNL     1      18.805  49.152  46.007  1.00  0.00     0.041 A 
HETATM   20  C   UNL     1      19.224  50.356  46.579  1.00  0.00     0.026 A 
HETATM   21  C   UNL     1      19.809  50.357  47.842  1.00  0.00     0.036 A 
HETATM   22 CL   UNL     1      20.353  51.837  48.532  1.00  0.00    -0.084 Cl
HETATM   23  C   UNL     1      19.978  49.168  48.546  1.00  0.00     0.056 A 
BRANCH  18  24
HETATM   24  O   UNL     1      18.575  46.726  46.224  1.00  0.00    -0.354 OA
HETATM   25  C   UNL     1      19.218  46.312  45.021  1.00  0.00     0.210 C 
ENDBRANCH  18  24
ENDBRANCH  14  17
ENDBRANCH  12  13
ENDBRANCH  11  12
ENDBRANCH   4  11
BRANCH   8  26
HETATM   26  C   UNL     1      26.367  44.292  51.769  1.00  0.00    -0.044 A 
HETATM   27  C   UNL     1      25.338  44.393  52.721  1.00  0.00     0.008 A 
HETATM   28  C   UNL     1      25.614  44.279  54.084  1.00  0.00     0.001 A 
HETATM   29  C   UNL     1      26.923  44.078  54.517  1.00  0.00     0.000 A 
HETATM   30  C   UNL     1      27.957  43.997  53.588  1.00  0.00     0.001 A 
HETATM   31  C   UNL     1      27.684  44.105  52.224  1.00  0.00     0.008 A 
ENDBRANCH   8  26
BRANCH   9  32
HETATM   32  C   UNL     1      26.353  42.021  49.258  1.00  0.00     0.255 C 
HETATM   33  N   UNL     1      26.254  40.891  50.041  1.00  0.00    -0.323 N 
HETATM   34  H   UNL     1      25.504  40.844  50.717  1.00  0.00     0.169 HD
HETATM   35  O   UNL     1      27.151  42.190  48.342  1.00  0.00    -0.268 OA
BRANCH  33  36
HETATM   36  C   UNL     1      27.126  39.779  50.050  1.00  0.00     0.035 A 
HETATM   37  C   UNL     1      26.826  38.540  49.481  1.00  0.00     0.029 A 
HETATM   38  C   UNL     1      27.766  37.503  49.498  1.00  0.00     0.002 A 
HETATM   39  C   UNL     1      29.016  37.699  50.078  1.00  0.00     0.000 A 
HETATM   40  C   UNL     1      29.325  38.929  50.653  1.00  0.00     0.002 A 
HETATM   41  C   UNL     1      28.382  39.961  50.644  1.00  0.00     0.029 A 
ENDBRANCH  33  36
ENDBRANCH   9  32
TORSDOF 8
ENDMDL
MODEL 10
REMARK VINA RESULT:      -9.3      3.783     10.044
REMARK  8 active torsions:
REMARK  status: ('A' for Active; 'I' for Inactive)
REMARK    1  A    between atoms: C_4  and  S_5 
REMARK    2  A    between atoms: S_5  and  C_6 
REMARK    3  A    between atoms: C_6  and  C_7 
REMARK       I    between atoms: C_7  and  N_8 
REMARK    4  A    between atoms: N_8  and  C_9 
REMARK    5  A    between atoms: C_10  and  O_11 
REMARK    6  A    between atoms: C_22  and  C_23 
REMARK    7  A    between atoms: C_29  and  C_30 
REMARK       I    between atoms: C_30  and  N_31 
REMARK    8  A    between atoms: N_31  and  C_32 
ROOT
HETATM    1  C   UNL     1      24.434  48.708  49.133  1.00  0.00     0.069 C 
HETATM    2  C   UNL     1      23.352  47.711  48.804  1.00  0.00     0.019 C 
HETATM    3  N   UNL     1      22.185  48.241  48.268  1.00  0.00    -0.353 N 
HETATM    4  C   UNL     1      20.976  47.561  48.238  1.00  0.00     0.088 C 
HETATM    5  C   UNL     1      20.974  46.212  48.357  1.00  0.00     0.069 C 
HETATM    6  C   UNL     1      19.783  45.426  48.378  1.00  0.00     0.099 C 
HETATM    7  N   UNL     1      18.852  44.736  48.429  1.00  0.00    -0.192 NA
HETATM    8  C   UNL     1      22.291  45.465  48.571  1.00  0.00     0.106 C 
HETATM    9  C   UNL     1      23.439  46.374  49.013  1.00  0.00     0.046 C 
HETATM   10  H   UNL     1      22.100  49.255  48.262  1.00  0.00     0.166 HD
ENDROOT
BRANCH   4  11
HETATM   11  S   UNL     1      19.473  48.471  48.179  1.00  0.00    -0.102 SA
BRANCH  11  12
HETATM   12  C   UNL     1      19.773  49.482  49.661  1.00  0.00     0.184 C 
BRANCH  12  13
HETATM   13  C   UNL     1      20.443  50.807  49.349  1.00  0.00     0.231 C 
HETATM   14  N   UNL     1      19.734  51.762  48.667  1.00  0.00    -0.324 N 
HETATM   15  H   UNL     1      20.316  52.381  48.108  1.00  0.00     0.169 HD
HETATM   16  O   UNL     1      21.649  50.979  49.538  1.00  0.00    -0.272 OA
BRANCH  14  17
HETATM   17  C   UNL     1      18.348  51.970  48.566  1.00  0.00     0.070 A 
HETATM   18  C   UNL     1      17.728  51.727  47.327  1.00  0.00     0.095 A 
HETATM   19  C   UNL     1      16.362  51.983  47.171  1.00  0.00     0.041 A 
HETATM   20  C   UNL     1      15.616  52.475  48.245  1.00  0.00     0.026 A 
HETATM   21  C   UNL     1      16.238  52.721  49.466  1.00  0.00     0.036 A 
HETATM   22 CL   UNL     1      15.324  53.357  50.779  1.00  0.00    -0.084 Cl
HETATM   23  C   UNL     1      17.599  52.478  49.631  1.00  0.00     0.056 A 
BRANCH  18  24
HETATM   24  O   UNL     1      18.535  51.239  46.328  1.00  0.00    -0.354 OA
HETATM   25  C   UNL     1      17.860  50.558  45.273  1.00  0.00     0.210 C 
ENDBRANCH  18  24
ENDBRANCH  14  17
ENDBRANCH  12  13
ENDBRANCH  11  12
ENDBRANCH   4  11
BRANCH   8  26
HETATM   26  C   UNL     1      22.638  44.629  47.334  1.00  0.00    -0.044 A 
HETATM   27  C   UNL     1      23.166  43.332  47.442  1.00  0.00     0.008 A 
HETATM   28  C   UNL     1      23.476  42.592  46.301  1.00  0.00     0.001 A 
HETATM   29  C   UNL     1      23.280  43.142  45.036  1.00  0.00     0.000 A 
HETATM   30  C   UNL     1      22.777  44.435  44.912  1.00  0.00     0.001 A 
HETATM   31  C   UNL     1      22.459  45.176  46.051  1.00  0.00     0.008 A 
ENDBRANCH   8  26
BRANCH   9  32
HETATM   32  C   UNL     1      24.518  45.807  49.891  1.00  0.00     0.255 C 
HETATM   33  N   UNL     1      24.291  45.939  51.243  1.00  0.00    -0.323 N 
HETATM   34  H   UNL     1      23.379  46.253  51.545  1.00  0.00     0.169 HD
HETATM   35  O   UNL     1      25.538  45.358  49.377  1.00  0.00    -0.268 OA
BRANCH  33  36
HETATM   36  C   UNL     1      25.219  45.733  52.290  1.00  0.00     0.035 A 
HETATM   37  C   UNL     1      25.982  46.744  52.875  1.00  0.00     0.029 A 
HETATM   38  C   UNL     1      26.847  46.458  53.937  1.00  0.00     0.002 A 
HETATM   39  C   UNL     1      26.952  45.159  54.427  1.00  0.00     0.000 A 
HETATM   40  C   UNL     1      26.199  44.141  53.849  1.00  0.00     0.002 A 
HETATM   41  C   UNL     1      25.342  44.426  52.781  1.00  0.00     0.029 A 
ENDBRANCH  33  36
ENDBRANCH   9  32
TORSDOF 8
ENDMDL
