MODEL 1
REMARK VINA RESULT:     -10.1      0.000      0.000
REMARK  9 active torsions:
REMARK  status: ('A' for Active; 'I' for Inactive)
REMARK    1  A    between atoms: C_7  and  C_8 
REMARK    2  A    between atoms: C_9  and  O_10 
REMARK    3  A    between atoms: C_12  and  N_13 
REMARK    4  A    between atoms: N_13  and  C_14 
REMARK    5  A    between atoms: C_14  and  N_15 
REMARK       I    between atoms: N_15  and  C_16 
REMARK    6  A    between atoms: C_16  and  C_17 
REMARK    7  A    between atoms: C_19  and  O_20 
REMARK    8  A    between atoms: O_20  and  C_21 
REMARK    9  A    between atoms: C_21  and  C_22 
ROOT
HETATM    1  N   UNL     1      27.157  43.920  50.931  1.00  0.00    -0.337 N 
HETATM    2  H   UNL     1      28.116  44.250  50.977  1.00  0.00     0.168 HD
ENDROOT
BRANCH   1   3
HETATM    3  C   UNL     1      26.231  44.897  50.512  1.00  0.00     0.036 A 
HETATM    4  C   UNL     1      26.741  46.157  50.188  1.00  0.00     0.067 A 
HETATM    5  C   UNL     1      25.888  47.201  49.823  1.00  0.00     0.082 A 
HETATM    6  C   UNL     1      24.497  47.027  49.794  1.00  0.00     0.050 A 
HETATM    7  C   UNL     1      23.996  45.758  50.137  1.00  0.00     0.021 A 
HETATM    8  C   UNL     1      24.851  44.703  50.491  1.00  0.00     0.030 A 
BRANCH   5   9
HETATM    9  O   UNL     1      26.519  48.381  49.516  1.00  0.00    -0.360 OA
HETATM   10  H   UNL     1      25.869  49.105  49.580  1.00  0.00     0.217 HD
ENDBRANCH   5   9
BRANCH   6  11
HETATM   11  C   UNL     1      23.547  48.086  49.455  1.00  0.00     0.183 A 
HETATM   12  N   UNL     1      23.699  49.398  49.522  1.00  0.00    -0.221 NA
HETATM   13  C   UNL     1      22.501  49.892  49.071  1.00  0.00     0.093 A 
HETATM   14  C   UNL     1      21.652  48.848  48.750  1.00  0.00     0.107 A 
HETATM   15  C   UNL     1      22.049  51.206  48.903  1.00  0.00     0.035 A 
HETATM   16  C   UNL     1      20.357  48.995  48.268  1.00  0.00     0.046 A 
HETATM   17  O   UNL     1      22.316  47.682  48.992  1.00  0.00    -0.289 OA
HETATM   18  C   UNL     1      19.908  50.315  48.094  1.00  0.00    -0.059 A 
HETATM   19  C   UNL     1      18.513  50.578  47.603  1.00  0.00     0.048 C 
HETATM   20  C   UNL     1      20.746  51.401  48.416  1.00  0.00     0.009 A 
ENDBRANCH   6  11
ENDBRANCH   1   3
BRANCH   1  21
HETATM   21  C   UNL     1      26.967  42.732  51.541  1.00  0.00     0.157 C 
HETATM   22  S   UNL     1      26.340  41.459  50.651  1.00  0.00    -0.047 SA
BRANCH  21  23
HETATM   23  N   UNL     1      27.171  42.527  52.869  1.00  0.00    -0.201 NA
HETATM   24  C   UNL     1      28.422  42.189  53.373  1.00  0.00     0.237 C 
HETATM   25  O   UNL     1      29.046  41.166  53.114  1.00  0.00    -0.274 OA
HETATM   26  H   UNL     1      26.742  43.308  53.343  1.00  0.00     0.139 HD
BRANCH  24  27
HETATM   27  C   UNL     1      29.028  43.156  54.336  1.00  0.00     0.029 A 
HETATM   28  C   UNL     1      28.483  44.423  54.599  1.00  0.00     0.053 A 
HETATM   29  C   UNL     1      29.156  45.303  55.451  1.00  0.00     0.069 A 
HETATM   30  C   UNL     1      30.342  44.896  56.070  1.00  0.00     0.037 A 
HETATM   31  C   UNL     1      30.869  43.628  55.838  1.00  0.00     0.004 A 
HETATM   32  C   UNL     1      30.213  42.760  54.970  1.00  0.00     0.017 A 
BRANCH  29  33
HETATM   33  O   UNL     1      28.767  46.574  55.767  1.00  0.00    -0.351 OA
BRANCH  33  34
HETATM   34  C   UNL     1      28.150  47.356  54.745  1.00  0.00     0.179 C 
BRANCH  34  35
HETATM   35  C   UNL     1      26.637  47.448  55.010  1.00  0.00     0.002 C 
HETATM   36  C   UNL     1      26.265  48.755  55.712  1.00  0.00     0.011 C 
HETATM   37  C   UNL     1      25.844  47.312  53.708  1.00  0.00     0.011 C 
ENDBRANCH  34  35
ENDBRANCH  33  34
ENDBRANCH  29  33
ENDBRANCH  24  27
ENDBRANCH  21  23
ENDBRANCH   1  21
TORSDOF 9
ENDMDL
MODEL 2
REMARK VINA RESULT:     -10.0      2.323      9.748
REMARK  9 active torsions:
REMARK  status: ('A' for Active; 'I' for Inactive)
REMARK    1  A    between atoms: C_7  and  C_8 
REMARK    2  A    between atoms: C_9  and  O_10 
REMARK    3  A    between atoms: C_12  and  N_13 
REMARK    4  A    between atoms: N_13  and  C_14 
REMARK    5  A    between atoms: C_14  and  N_15 
REMARK       I    between atoms: N_15  and  C_16 
REMARK    6  A    between atoms: C_16  and  C_17 
REMARK    7  A    between atoms: C_19  and  O_20 
REMARK    8  A    between atoms: O_20  and  C_21 
REMARK    9  A    between atoms: C_21  and  C_22 
ROOT
HETATM    1  N   UNL     1      24.168  44.155  49.005  1.00  0.00    -0.337 N 
HETATM    2  H   UNL     1      23.962  43.257  48.578  1.00  0.00     0.168 HD
ENDROOT
BRANCH   1   3
HETATM    3  C   UNL     1      25.143  44.100  50.021  1.00  0.00     0.036 A 
HETATM    4  C   UNL     1      24.683  43.953  51.333  1.00  0.00     0.067 A 
HETATM    5  C   UNL     1      25.576  43.950  52.408  1.00  0.00     0.082 A 
HETATM    6  C   UNL     1      26.954  44.121  52.208  1.00  0.00     0.050 A 
HETATM    7  C   UNL     1      27.400  44.283  50.884  1.00  0.00     0.021 A 
HETATM    8  C   UNL     1      26.507  44.272  49.802  1.00  0.00     0.030 A 
BRANCH   5   9
HETATM    9  O   UNL     1      24.996  43.784  53.640  1.00  0.00    -0.360 OA
HETATM   10  H   UNL     1      25.445  43.049  54.097  1.00  0.00     0.217 HD
ENDBRANCH   5   9
BRANCH   6  11
HETATM   11  C   UNL     1      27.937  44.164  53.289  1.00  0.00     0.183 A 
HETATM   12  N   UNL     1      28.974  43.373  53.507  1.00  0.00    -0.221 NA
HETATM   13  C   UNL     1      29.546  43.884  54.645  1.00  0.00     0.093 A 
HETATM   14  C   UNL     1      28.821  44.978  55.085  1.00  0.00     0.107 A 
HETATM   15  C   UNL     1      30.674  43.486  55.371  1.00  0.00     0.035 A 
HETATM   16  C   UNL     1      29.122  45.730  56.214  1.00  0.00     0.046 A 
HETATM   17  O   UNL     1      27.785  45.167  54.219  1.00  0.00    -0.289 OA
HETATM   18  C   UNL     1      30.259  45.332  56.937  1.00  0.00    -0.059 A 
HETATM   19  C   UNL     1      30.652  46.066  58.188  1.00  0.00     0.048 C 
HETATM   20  C   UNL     1      31.016  44.220  56.519  1.00  0.00     0.009 A 
ENDBRANCH   6  11
ENDBRANCH   1   3
BRANCH   1  21
HETATM   21  C   UNL     1      23.272  45.115  48.697  1.00  0.00     0.157 C 
HETATM   22  S   UNL     1      22.506  45.057  47.207  1.00  0.00    -0.047 SA
BRANCH  21  23
HETATM   23  N   UNL     1      23.015  46.187  49.491  1.00  0.00    -0.201 NA
HETATM   24  C   UNL     1      23.804  47.331  49.453  1.00  0.00     0.237 C 
HETATM   25  O   UNL     1      24.992  47.392  49.746  1.00  0.00    -0.274 OA
HETATM   26  H   UNL     1      22.027  46.374  49.400  1.00  0.00     0.139 HD
BRANCH  24  27
HETATM   27  C   UNL     1      23.116  48.592  49.044  1.00  0.00     0.029 A 
HETATM   28  C   UNL     1      21.719  48.725  48.994  1.00  0.00     0.053 A 
HETATM   29  C   UNL     1      21.153  49.912  48.521  1.00  0.00     0.069 A 
HETATM   30  C   UNL     1      21.982  50.973  48.145  1.00  0.00     0.037 A 
HETATM   31  C   UNL     1      23.368  50.857  48.224  1.00  0.00     0.004 A 
HETATM   32  C   UNL     1      23.934  49.668  48.671  1.00  0.00     0.017 A 
BRANCH  29  33
HETATM   33  O   UNL     1      19.818  50.168  48.381  1.00  0.00    -0.351 OA
BRANCH  33  34
HETATM   34  C   UNL     1      19.112  50.668  49.517  1.00  0.00     0.179 C 
BRANCH  34  35
HETATM   35  C   UNL     1      18.729  52.139  49.279  1.00  0.00     0.002 C 
HETATM   36  C   UNL     1      18.668  52.473  47.788  1.00  0.00     0.011 C 
HETATM   37  C   UNL     1      17.390  52.470  49.942  1.00  0.00     0.011 C 
ENDBRANCH  34  35
ENDBRANCH  33  34
ENDBRANCH  29  33
ENDBRANCH  24  27
ENDBRANCH  21  23
ENDBRANCH   1  21
TORSDOF 9
ENDMDL
MODEL 3
REMARK VINA RESULT:      -9.6      2.379      9.029
REMARK  9 active torsions:
REMARK  status: ('A' for Active; 'I' for Inactive)
REMARK    1  A    between atoms: C_7  and  C_8 
REMARK    2  A    between atoms: C_9  and  O_10 
REMARK    3  A    between atoms: C_12  and  N_13 
REMARK    4  A    between atoms: N_13  and  C_14 
REMARK    5  A    between atoms: C_14  and  N_15 
REMARK       I    between atoms: N_15  and  C_16 
REMARK    6  A    between atoms: C_16  and  C_17 
REMARK    7  A    between atoms: C_19  and  O_20 
REMARK    8  A    between atoms: O_20  and  C_21 
REMARK    9  A    between atoms: C_21  and  C_22 
ROOT
HETATM    1  N   UNL     1      23.289  43.104  49.595  1.00  0.00    -0.337 N 
HETATM    2  H   UNL     1      22.391  42.932  50.035  1.00  0.00     0.168 HD
ENDROOT
BRANCH   1   3
HETATM    3  C   UNL     1      24.311  43.473  50.494  1.00  0.00     0.036 A 
HETATM    4  C   UNL     1      25.419  42.625  50.576  1.00  0.00     0.067 A 
HETATM    5  C   UNL     1      26.449  42.880  51.485  1.00  0.00     0.082 A 
HETATM    6  C   UNL     1      26.392  43.977  52.358  1.00  0.00     0.050 A 
HETATM    7  C   UNL     1      25.264  44.813  52.275  1.00  0.00     0.021 A 
HETATM    8  C   UNL     1      24.235  44.566  51.353  1.00  0.00     0.030 A 
BRANCH   5   9
HETATM    9  O   UNL     1      27.483  41.980  51.453  1.00  0.00    -0.360 OA
HETATM   10  H   UNL     1      27.926  41.985  52.322  1.00  0.00     0.217 HD
ENDBRANCH   5   9
BRANCH   6  11
HETATM   11  C   UNL     1      27.417  44.281  53.356  1.00  0.00     0.183 A 
HETATM   12  N   UNL     1      27.650  45.415  53.996  1.00  0.00    -0.221 NA
HETATM   13  C   UNL     1      28.712  45.120  54.813  1.00  0.00     0.093 A 
HETATM   14  C   UNL     1      29.094  43.803  54.631  1.00  0.00     0.107 A 
HETATM   15  C   UNL     1      29.413  45.905  55.735  1.00  0.00     0.035 A 
HETATM   16  C   UNL     1      30.142  43.179  55.298  1.00  0.00     0.046 A 
HETATM   17  O   UNL     1      28.267  43.254  53.697  1.00  0.00    -0.289 OA
HETATM   18  C   UNL     1      30.839  43.967  56.229  1.00  0.00    -0.059 A 
HETATM   19  C   UNL     1      32.005  43.391  56.982  1.00  0.00     0.048 C 
HETATM   20  C   UNL     1      30.479  45.313  56.434  1.00  0.00     0.009 A 
ENDBRANCH   6  11
ENDBRANCH   1   3
BRANCH   1  21
HETATM   21  C   UNL     1      23.219  43.213  48.252  1.00  0.00     0.157 C 
HETATM   22  S   UNL     1      24.024  42.087  47.308  1.00  0.00    -0.047 SA
BRANCH  21  23
HETATM   23  N   UNL     1      22.602  44.241  47.612  1.00  0.00    -0.201 NA
HETATM   24  C   UNL     1      21.584  44.971  48.214  1.00  0.00     0.237 C 
HETATM   25  O   UNL     1      20.495  44.529  48.564  1.00  0.00    -0.274 OA
HETATM   26  H   UNL     1      23.338  44.814  47.227  1.00  0.00     0.139 HD
BRANCH  24  27
HETATM   27  C   UNL     1      21.848  46.427  48.416  1.00  0.00     0.029 A 
HETATM   28  C   UNL     1      23.048  46.925  48.950  1.00  0.00     0.053 A 
HETATM   29  C   UNL     1      23.185  48.295  49.185  1.00  0.00     0.069 A 
HETATM   30  C   UNL     1      22.145  49.165  48.843  1.00  0.00     0.037 A 
HETATM   31  C   UNL     1      20.966  48.679  48.282  1.00  0.00     0.004 A 
HETATM   32  C   UNL     1      20.818  47.312  48.071  1.00  0.00     0.017 A 
BRANCH  29  33
HETATM   33  O   UNL     1      24.273  48.914  49.732  1.00  0.00    -0.351 OA
BRANCH  33  34
HETATM   34  C   UNL     1      25.331  49.303  48.856  1.00  0.00     0.179 C 
BRANCH  34  35
HETATM   35  C   UNL     1      26.582  48.457  49.149  1.00  0.00     0.002 C 
HETATM   36  C   UNL     1      27.855  49.304  49.127  1.00  0.00     0.011 C 
HETATM   37  C   UNL     1      26.456  47.742  50.496  1.00  0.00     0.011 C 
ENDBRANCH  34  35
ENDBRANCH  33  34
ENDBRANCH  29  33
ENDBRANCH  24  27
ENDBRANCH  21  23
ENDBRANCH   1  21
TORSDOF 9
ENDMDL
MODEL 4
REMARK VINA RESULT:      -9.6      1.975      3.703
REMARK  9 active torsions:
REMARK  status: ('A' for Active; 'I' for Inactive)
REMARK    1  A    between atoms: C_7  and  C_8 
REMARK    2  A    between atoms: C_9  and  O_10 
REMARK    3  A    between atoms: C_12  and  N_13 
REMARK    4  A    between atoms: N_13  and  C_14 
REMARK    5  A    between atoms: C_14  and  N_15 
REMARK       I    between atoms: N_15  and  C_16 
REMARK    6  A    between atoms: C_16  and  C_17 
REMARK    7  A    between atoms: C_19  and  O_20 
REMARK    8  A    between atoms: O_20  and  C_21 
REMARK    9  A    between atoms: C_21  and  C_22 
ROOT
HETATM    1  N   UNL     1      24.606  44.353  48.625  1.00  0.00    -0.337 N 
HETATM    2  H   UNL     1      25.323  44.339  47.906  1.00  0.00     0.168 HD
ENDROOT
BRANCH   1   3
HETATM    3  C   UNL     1      23.770  45.487  48.583  1.00  0.00     0.036 A 
HETATM    4  C   UNL     1      24.141  46.578  49.374  1.00  0.00     0.067 A 
HETATM    5  C   UNL     1      23.338  47.719  49.441  1.00  0.00     0.082 A 
HETATM    6  C   UNL     1      22.126  47.796  48.740  1.00  0.00     0.050 A 
HETATM    7  C   UNL     1      21.758  46.685  47.959  1.00  0.00     0.021 A 
HETATM    8  C   UNL     1      22.569  45.543  47.879  1.00  0.00     0.030 A 
BRANCH   5   9
HETATM    9  O   UNL     1      23.825  48.721  50.242  1.00  0.00    -0.360 OA
HETATM   10  H   UNL     1      23.814  49.555  49.737  1.00  0.00     0.217 HD
ENDBRANCH   5   9
BRANCH   6  11
HETATM   11  C   UNL     1      21.223  48.945  48.793  1.00  0.00     0.183 A 
HETATM   12  N   UNL     1      21.433  50.192  48.408  1.00  0.00    -0.221 NA
HETATM   13  C   UNL     1      20.246  50.825  48.677  1.00  0.00     0.093 A 
HETATM   14  C   UNL     1      19.349  49.929  49.230  1.00  0.00     0.107 A 
HETATM   15  C   UNL     1      19.843  52.152  48.488  1.00  0.00     0.035 A 
HETATM   16  C   UNL     1      18.053  50.240  49.625  1.00  0.00     0.046 A 
HETATM   17  O   UNL     1      19.967  48.715  49.307  1.00  0.00    -0.289 OA
HETATM   18  C   UNL     1      17.650  51.571  49.427  1.00  0.00    -0.059 A 
HETATM   19  C   UNL     1      16.276  52.013  49.847  1.00  0.00     0.048 C 
HETATM   20  C   UNL     1      18.540  52.510  48.872  1.00  0.00     0.009 A 
ENDBRANCH   6  11
ENDBRANCH   1   3
BRANCH   1  21
HETATM   21  C   UNL     1      24.803  43.441  49.599  1.00  0.00     0.157 C 
HETATM   22  S   UNL     1      23.476  42.644  50.240  1.00  0.00    -0.047 SA
BRANCH  21  23
HETATM   23  N   UNL     1      26.015  43.190  50.161  1.00  0.00    -0.201 NA
HETATM   24  C   UNL     1      26.896  44.216  50.485  1.00  0.00     0.237 C 
HETATM   25  O   UNL     1      27.419  44.989  49.691  1.00  0.00    -0.274 OA
HETATM   26  H   UNL     1      25.844  42.548  50.921  1.00  0.00     0.139 HD
BRANCH  24  27
HETATM   27  C   UNL     1      27.248  44.350  51.930  1.00  0.00     0.029 A 
HETATM   28  C   UNL     1      28.199  43.538  52.570  1.00  0.00     0.053 A 
HETATM   29  C   UNL     1      28.410  43.671  53.945  1.00  0.00     0.069 A 
HETATM   30  C   UNL     1      27.706  44.642  54.663  1.00  0.00     0.037 A 
HETATM   31  C   UNL     1      26.786  45.471  54.027  1.00  0.00     0.004 A 
HETATM   32  C   UNL     1      26.556  45.324  52.663  1.00  0.00     0.017 A 
BRANCH  29  33
HETATM   33  O   UNL     1      29.270  42.928  54.703  1.00  0.00    -0.351 OA
BRANCH  33  34
HETATM   34  C   UNL     1      30.573  43.458  54.947  1.00  0.00     0.179 C 
BRANCH  34  35
HETATM   35  C   UNL     1      30.699  43.857  56.427  1.00  0.00     0.002 C 
HETATM   36  C   UNL     1      31.981  43.308  57.054  1.00  0.00     0.011 C 
HETATM   37  C   UNL     1      30.649  45.378  56.590  1.00  0.00     0.011 C 
ENDBRANCH  34  35
ENDBRANCH  33  34
ENDBRANCH  29  33
ENDBRANCH  24  27
ENDBRANCH  21  23
ENDBRANCH   1  21
TORSDOF 9
ENDMDL
MODEL 5
REMARK VINA RESULT:      -9.6      2.291      9.721
REMARK  9 active torsions:
REMARK  status: ('A' for Active; 'I' for Inactive)
REMARK    1  A    between atoms: C_7  and  C_8 
REMARK    2  A    between atoms: C_9  and  O_10 
REMARK    3  A    between atoms: C_12  and  N_13 
REMARK    4  A    between atoms: N_13  and  C_14 
REMARK    5  A    between atoms: C_14  and  N_15 
REMARK       I    between atoms: N_15  and  C_16 
REMARK    6  A    between atoms: C_16  and  C_17 
REMARK    7  A    between atoms: C_19  and  O_20 
REMARK    8  A    between atoms: O_20  and  C_21 
REMARK    9  A    between atoms: C_21  and  C_22 
ROOT
HETATM    1  N   UNL     1      23.112  44.844  49.953  1.00  0.00    -0.337 N 
HETATM    2  H   UNL     1      22.178  45.055  50.290  1.00  0.00     0.168 HD
ENDROOT
BRANCH   1   3
HETATM    3  C   UNL     1      24.105  44.869  50.953  1.00  0.00     0.036 A 
HETATM    4  C   UNL     1      24.656  46.115  51.267  1.00  0.00     0.067 A 
HETATM    5  C   UNL     1      25.688  46.225  52.203  1.00  0.00     0.082 A 
HETATM    6  C   UNL     1      26.220  45.090  52.834  1.00  0.00     0.050 A 
HETATM    7  C   UNL     1      25.665  43.842  52.497  1.00  0.00     0.021 A 
HETATM    8  C   UNL     1      24.619  43.731  51.569  1.00  0.00     0.030 A 
BRANCH   5   9
HETATM    9  O   UNL     1      26.128  47.504  52.429  1.00  0.00    -0.360 OA
HETATM   10  H   UNL     1      26.862  47.693  51.816  1.00  0.00     0.217 HD
ENDBRANCH   5   9
BRANCH   6  11
HETATM   11  C   UNL     1      27.322  45.131  53.794  1.00  0.00     0.183 A 
HETATM   12  N   UNL     1      27.657  46.089  54.642  1.00  0.00    -0.221 NA
HETATM   13  C   UNL     1      28.752  45.583  55.296  1.00  0.00     0.093 A 
HETATM   14  C   UNL     1      29.049  44.323  54.810  1.00  0.00     0.107 A 
HETATM   15  C   UNL     1      29.552  46.121  56.310  1.00  0.00     0.035 A 
HETATM   16  C   UNL     1      30.101  43.528  55.249  1.00  0.00     0.046 A 
HETATM   17  O   UNL     1      28.135  44.022  53.844  1.00  0.00    -0.289 OA
HETATM   18  C   UNL     1      30.899  44.068  56.271  1.00  0.00    -0.059 A 
HETATM   19  C   UNL     1      32.077  43.297  56.796  1.00  0.00     0.048 C 
HETATM   20  C   UNL     1      30.626  45.350  56.786  1.00  0.00     0.009 A 
ENDBRANCH   6  11
ENDBRANCH   1   3
BRANCH   1  21
HETATM   21  C   UNL     1      23.217  44.868  48.609  1.00  0.00     0.157 C 
HETATM   22  S   UNL     1      23.961  43.582  47.834  1.00  0.00    -0.047 SA
BRANCH  21  23
HETATM   23  N   UNL     1      22.833  45.923  47.842  1.00  0.00    -0.201 NA
HETATM   24  C   UNL     1      21.828  46.793  48.248  1.00  0.00     0.237 C 
HETATM   25  O   UNL     1      20.654  46.495  48.435  1.00  0.00    -0.274 OA
HETATM   26  H   UNL     1      23.683  46.389  47.560  1.00  0.00     0.139 HD
BRANCH  24  27
HETATM   27  C   UNL     1      22.229  48.219  48.438  1.00  0.00     0.029 A 
HETATM   28  C   UNL     1      21.304  49.272  48.536  1.00  0.00     0.053 A 
HETATM   29  C   UNL     1      21.762  50.589  48.630  1.00  0.00     0.069 A 
HETATM   30  C   UNL     1      23.137  50.843  48.670  1.00  0.00     0.037 A 
HETATM   31  C   UNL     1      24.057  49.799  48.607  1.00  0.00     0.004 A 
HETATM   32  C   UNL     1      23.603  48.489  48.489  1.00  0.00     0.017 A 
BRANCH  29  33
HETATM   33  O   UNL     1      20.984  51.710  48.692  1.00  0.00    -0.351 OA
BRANCH  33  34
HETATM   34  C   UNL     1      19.740  51.620  49.385  1.00  0.00     0.179 C 
BRANCH  34  35
HETATM   35  C   UNL     1      18.670  52.429  48.632  1.00  0.00     0.002 C 
HETATM   36  C   UNL     1      18.259  51.746  47.327  1.00  0.00     0.011 C 
HETATM   37  C   UNL     1      17.438  52.659  49.510  1.00  0.00     0.011 C 
ENDBRANCH  34  35
ENDBRANCH  33  34
ENDBRANCH  29  33
ENDBRANCH  24  27
ENDBRANCH  21  23
ENDBRANCH   1  21
TORSDOF 9
ENDMDL
MODEL 6
REMARK VINA RESULT:      -9.5      1.690      2.676
REMARK  9 active torsions:
REMARK  status: ('A' for Active; 'I' for Inactive)
REMARK    1  A    between atoms: C_7  and  C_8 
REMARK    2  A    between atoms: C_9  and  O_10 
REMARK    3  A    between atoms: C_12  and  N_13 
REMARK    4  A    between atoms: N_13  and  C_14 
REMARK    5  A    between atoms: C_14  and  N_15 
REMARK       I    between atoms: N_15  and  C_16 
REMARK    6  A    between atoms: C_16  and  C_17 
REMARK    7  A    between atoms: C_19  and  O_20 
REMARK    8  A    between atoms: O_20  and  C_21 
REMARK    9  A    between atoms: C_21  and  C_22 
ROOT
HETATM    1  N   UNL     1      26.854  42.413  49.647  1.00  0.00    -0.337 N 
HETATM    2  H   UNL     1      27.701  42.402  49.087  1.00  0.00     0.168 HD
ENDROOT
BRANCH   1   3
HETATM    3  C   UNL     1      26.161  43.641  49.621  1.00  0.00     0.036 A 
HETATM    4  C   UNL     1      24.823  43.605  49.220  1.00  0.00     0.067 A 
HETATM    5  C   UNL     1      24.079  44.782  49.106  1.00  0.00     0.082 A 
HETATM    6  C   UNL     1      24.656  46.034  49.364  1.00  0.00     0.050 A 
HETATM    7  C   UNL     1      26.008  46.056  49.753  1.00  0.00     0.021 A 
HETATM    8  C   UNL     1      26.753  44.875  49.881  1.00  0.00     0.030 A 
BRANCH   5   9
HETATM    9  O   UNL     1      22.775  44.605  48.717  1.00  0.00    -0.360 OA
HETATM   10  H   UNL     1      22.556  43.658  48.786  1.00  0.00     0.217 HD
ENDBRANCH   5   9
BRANCH   6  11
HETATM   11  C   UNL     1      23.945  47.305  49.230  1.00  0.00     0.183 A 
HETATM   12  N   UNL     1      24.368  48.531  49.490  1.00  0.00    -0.221 NA
HETATM   13  C   UNL     1      23.295  49.324  49.170  1.00  0.00     0.093 A 
HETATM   14  C   UNL     1      22.244  48.540  48.729  1.00  0.00     0.107 A 
HETATM   15  C   UNL     1      23.125  50.712  49.224  1.00  0.00     0.035 A 
HETATM   16  C   UNL     1      21.004  49.023  48.329  1.00  0.00     0.046 A 
HETATM   17  O   UNL     1      22.652  47.239  48.763  1.00  0.00    -0.289 OA
HETATM   18  C   UNL     1      20.839  50.417  48.378  1.00  0.00    -0.059 A 
HETATM   19  C   UNL     1      19.524  51.034  47.991  1.00  0.00     0.048 C 
HETATM   20  C   UNL     1      21.887  51.244  48.826  1.00  0.00     0.009 A 
ENDBRANCH   6  11
ENDBRANCH   1   3
BRANCH   1  21
HETATM   21  C   UNL     1      26.751  41.363  50.488  1.00  0.00     0.157 C 
HETATM   22  S   UNL     1      26.513  39.834  49.845  1.00  0.00    -0.047 SA
BRANCH  21  23
HETATM   23  N   UNL     1      26.739  41.482  51.842  1.00  0.00    -0.201 NA
HETATM   24  C   UNL     1      27.915  41.575  52.577  1.00  0.00     0.237 C 
HETATM   25  O   UNL     1      28.781  40.712  52.656  1.00  0.00    -0.274 OA
HETATM   26  H   UNL     1      26.070  42.207  52.054  1.00  0.00     0.139 HD
BRANCH  24  27
HETATM   27  C   UNL     1      28.105  42.833  53.358  1.00  0.00     0.029 A 
HETATM   28  C   UNL     1      29.263  43.110  54.103  1.00  0.00     0.053 A 
HETATM   29  C   UNL     1      29.329  44.273  54.874  1.00  0.00     0.069 A 
HETATM   30  C   UNL     1      28.260  45.174  54.863  1.00  0.00     0.037 A 
HETATM   31  C   UNL     1      27.123  44.920  54.100  1.00  0.00     0.004 A 
HETATM   32  C   UNL     1      27.045  43.750  53.351  1.00  0.00     0.017 A 
BRANCH  29  33
HETATM   33  O   UNL     1      30.370  44.651  55.674  1.00  0.00    -0.351 OA
BRANCH  33  34
HETATM   34  C   UNL     1      30.373  45.987  56.178  1.00  0.00     0.179 C 
BRANCH  34  35
HETATM   35  C   UNL     1      30.368  45.958  57.716  1.00  0.00     0.002 C 
HETATM   36  C   UNL     1      28.954  46.102  58.280  1.00  0.00     0.011 C 
HETATM   37  C   UNL     1      31.010  44.672  58.242  1.00  0.00     0.011 C 
ENDBRANCH  34  35
ENDBRANCH  33  34
ENDBRANCH  29  33
ENDBRANCH  24  27
ENDBRANCH  21  23
ENDBRANCH   1  21
TORSDOF 9
ENDMDL
MODEL 7
REMARK VINA RESULT:      -9.5      2.321      9.100
REMARK  9 active torsions:
REMARK  status: ('A' for Active; 'I' for Inactive)
REMARK    1  A    between atoms: C_7  and  C_8 
REMARK    2  A    between atoms: C_9  and  O_10 
REMARK    3  A    between atoms: C_12  and  N_13 
REMARK    4  A    between atoms: N_13  and  C_14 
REMARK    5  A    between atoms: C_14  and  N_15 
REMARK       I    between atoms: N_15  and  C_16 
REMARK    6  A    between atoms: C_16  and  C_17 
REMARK    7  A    between atoms: C_19  and  O_20 
REMARK    8  A    between atoms: O_20  and  C_21 
REMARK    9  A    between atoms: C_21  and  C_22 
ROOT
HETATM    1  N   UNL     1      25.577  42.810  48.525  1.00  0.00    -0.337 N 
HETATM    2  H   UNL     1      26.077  42.567  47.676  1.00  0.00     0.168 HD
ENDROOT
BRANCH   1   3
HETATM    3  C   UNL     1      26.407  43.006  49.647  1.00  0.00     0.036 A 
HETATM    4  C   UNL     1      26.509  41.946  50.554  1.00  0.00     0.067 A 
HETATM    5  C   UNL     1      27.260  42.076  51.724  1.00  0.00     0.082 A 
HETATM    6  C   UNL     1      27.912  43.278  52.039  1.00  0.00     0.050 A 
HETATM    7  C   UNL     1      27.789  44.340  51.125  1.00  0.00     0.021 A 
HETATM    8  C   UNL     1      27.047  44.208  49.942  1.00  0.00     0.030 A 
BRANCH   5   9
HETATM    9  O   UNL     1      27.289  40.959  52.519  1.00  0.00    -0.360 OA
HETATM   10  H   UNL     1      27.906  40.314  52.125  1.00  0.00     0.217 HD
ENDBRANCH   5   9
BRANCH   6  11
HETATM   11  C   UNL     1      28.685  43.492  53.262  1.00  0.00     0.183 A 
HETATM   12  N   UNL     1      29.626  42.735  53.799  1.00  0.00    -0.221 NA
HETATM   13  C   UNL     1      30.006  43.427  54.921  1.00  0.00     0.093 A 
HETATM   14  C   UNL     1      29.267  44.591  55.029  1.00  0.00     0.107 A 
HETATM   15  C   UNL     1      30.964  43.144  55.902  1.00  0.00     0.035 A 
HETATM   16  C   UNL     1      29.393  45.523  56.052  1.00  0.00     0.046 A 
HETATM   17  O   UNL     1      28.415  44.644  53.966  1.00  0.00    -0.289 OA
HETATM   18  C   UNL     1      30.361  45.239  57.031  1.00  0.00    -0.059 A 
HETATM   19  C   UNL     1      30.555  46.173  58.192  1.00  0.00     0.048 C 
HETATM   20  C   UNL     1      31.127  44.060  56.953  1.00  0.00     0.009 A 
ENDBRANCH   6  11
ENDBRANCH   1   3
BRANCH   1  21
HETATM   21  C   UNL     1      24.245  42.611  48.440  1.00  0.00     0.157 C 
HETATM   22  S   UNL     1      23.681  41.100  47.987  1.00  0.00    -0.047 SA
BRANCH  21  23
HETATM   23  N   UNL     1      23.325  43.596  48.615  1.00  0.00    -0.201 NA
HETATM   24  C   UNL     1      23.310  44.387  49.758  1.00  0.00     0.237 C 
HETATM   25  O   UNL     1      23.111  43.991  50.901  1.00  0.00    -0.274 OA
HETATM   26  H   UNL     1      23.314  44.126  47.756  1.00  0.00     0.139 HD
BRANCH  24  27
HETATM   27  C   UNL     1      23.527  45.850  49.550  1.00  0.00     0.029 A 
HETATM   28  C   UNL     1      22.734  46.631  48.694  1.00  0.00     0.053 A 
HETATM   29  C   UNL     1      23.054  47.976  48.489  1.00  0.00     0.069 A 
HETATM   30  C   UNL     1      24.133  48.544  49.173  1.00  0.00     0.037 A 
HETATM   31  C   UNL     1      24.902  47.781  50.048  1.00  0.00     0.004 A 
HETATM   32  C   UNL     1      24.601  46.435  50.234  1.00  0.00     0.017 A 
BRANCH  29  33
HETATM   33  O   UNL     1      22.399  48.842  47.659  1.00  0.00    -0.351 OA
BRANCH  33  34
HETATM   34  C   UNL     1      20.972  48.858  47.703  1.00  0.00     0.179 C 
BRANCH  34  35
HETATM   35  C   UNL     1      20.490  50.186  48.312  1.00  0.00     0.002 C 
HETATM   36  C   UNL     1      19.866  49.982  49.693  1.00  0.00     0.011 C 
HETATM   37  C   UNL     1      21.637  51.196  48.403  1.00  0.00     0.011 C 
ENDBRANCH  34  35
ENDBRANCH  33  34
ENDBRANCH  29  33
ENDBRANCH  24  27
ENDBRANCH  21  23
ENDBRANCH   1  21
TORSDOF 9
ENDMDL
MODEL 8
REMARK VINA RESULT:      -9.5      2.620      9.429
REMARK  9 active torsions:
REMARK  status: ('A' for Active; 'I' for Inactive)
REMARK    1  A    between atoms: C_7  and  C_8 
REMARK    2  A    between atoms: C_9  and  O_10 
REMARK    3  A    between atoms: C_12  and  N_13 
REMARK    4  A    between atoms: N_13  and  C_14 
REMARK    5  A    between atoms: C_14  and  N_15 
REMARK       I    between atoms: N_15  and  C_16 
REMARK    6  A    between atoms: C_16  and  C_17 
REMARK    7  A    between atoms: C_19  and  O_20 
REMARK    8  A    between atoms: O_20  and  C_21 
REMARK    9  A    between atoms: C_21  and  C_22 
ROOT
HETATM    1  N   UNL     1      24.803  43.237  48.284  1.00  0.00    -0.337 N 
HETATM    2  H   UNL     1      25.199  43.500  47.387  1.00  0.00     0.168 HD
ENDROOT
BRANCH   1   3
HETATM    3  C   UNL     1      25.644  43.498  49.385  1.00  0.00     0.036 A 
HETATM    4  C   UNL     1      25.880  42.440  50.268  1.00  0.00     0.067 A 
HETATM    5  C   UNL     1      26.652  42.628  51.418  1.00  0.00     0.082 A 
HETATM    6  C   UNL     1      27.190  43.884  51.735  1.00  0.00     0.050 A 
HETATM    7  C   UNL     1      26.932  44.942  50.845  1.00  0.00     0.021 A 
HETATM    8  C   UNL     1      26.170  44.754  49.682  1.00  0.00     0.030 A 
BRANCH   5   9
HETATM    9  O   UNL     1      26.817  41.506  52.190  1.00  0.00    -0.360 OA
HETATM   10  H   UNL     1      26.022  40.949  52.103  1.00  0.00     0.217 HD
ENDBRANCH   5   9
BRANCH   6  11
HETATM   11  C   UNL     1      27.975  44.156  52.938  1.00  0.00     0.183 A 
HETATM   12  N   UNL     1      27.900  45.179  53.771  1.00  0.00    -0.221 NA
HETATM   13  C   UNL     1      28.856  44.906  54.717  1.00  0.00     0.093 A 
HETATM   14  C   UNL     1      29.490  43.714  54.414  1.00  0.00     0.107 A 
HETATM   15  C   UNL     1      29.254  45.611  55.859  1.00  0.00     0.035 A 
HETATM   16  C   UNL     1      30.513  43.144  55.162  1.00  0.00     0.046 A 
HETATM   17  O   UNL     1      28.930  43.222  53.273  1.00  0.00    -0.289 OA
HETATM   18  C   UNL     1      30.905  43.851  56.312  1.00  0.00    -0.059 A 
HETATM   19  C   UNL     1      32.022  43.330  57.173  1.00  0.00     0.048 C 
HETATM   20  C   UNL     1      30.284  45.069  56.646  1.00  0.00     0.009 A 
ENDBRANCH   6  11
ENDBRANCH   1   3
BRANCH   1  21
HETATM   21  C   UNL     1      23.708  42.456  48.181  1.00  0.00     0.157 C 
HETATM   22  S   UNL     1      23.881  40.894  47.600  1.00  0.00    -0.047 SA
BRANCH  21  23
HETATM   23  N   UNL     1      22.446  42.892  48.437  1.00  0.00    -0.201 NA
HETATM   24  C   UNL     1      22.201  43.950  49.306  1.00  0.00     0.237 C 
HETATM   25  O   UNL     1      22.455  43.965  50.504  1.00  0.00    -0.274 OA
HETATM   26  H   UNL     1      21.997  42.994  47.539  1.00  0.00     0.139 HD
BRANCH  24  27
HETATM   27  C   UNL     1      21.541  45.150  48.712  1.00  0.00     0.029 A 
HETATM   28  C   UNL     1      22.251  46.275  48.261  1.00  0.00     0.053 A 
HETATM   29  C   UNL     1      21.554  47.393  47.795  1.00  0.00     0.069 A 
HETATM   30  C   UNL     1      20.157  47.364  47.739  1.00  0.00     0.037 A 
HETATM   31  C   UNL     1      19.450  46.239  48.154  1.00  0.00     0.004 A 
HETATM   32  C   UNL     1      20.141  45.134  48.642  1.00  0.00     0.017 A 
BRANCH  29  33
HETATM   33  O   UNL     1      22.107  48.565  47.363  1.00  0.00    -0.351 OA
BRANCH  33  34
HETATM   34  C   UNL     1      21.418  49.778  47.664  1.00  0.00     0.179 C 
BRANCH  34  35
HETATM   35  C   UNL     1      22.380  50.760  48.355  1.00  0.00     0.002 C 
HETATM   36  C   UNL     1      22.175  50.779  49.870  1.00  0.00     0.011 C 
HETATM   37  C   UNL     1      23.836  50.420  48.030  1.00  0.00     0.011 C 
ENDBRANCH  34  35
ENDBRANCH  33  34
ENDBRANCH  29  33
ENDBRANCH  24  27
ENDBRANCH  21  23
ENDBRANCH   1  21
TORSDOF 9
ENDMDL
MODEL 9
REMARK VINA RESULT:      -9.4      3.099     11.048
REMARK  9 active torsions:
REMARK  status: ('A' for Active; 'I' for Inactive)
REMARK    1  A    between atoms: C_7  and  C_8 
REMARK    2  A    between atoms: C_9  and  O_10 
REMARK    3  A    between atoms: C_12  and  N_13 
REMARK    4  A    between atoms: N_13  and  C_14 
REMARK    5  A    between atoms: C_14  and  N_15 
REMARK       I    between atoms: N_15  and  C_16 
REMARK    6  A    between atoms: C_16  and  C_17 
REMARK    7  A    between atoms: C_19  and  O_20 
REMARK    8  A    between atoms: O_20  and  C_21 
REMARK    9  A    between atoms: C_21  and  C_22 
ROOT
HETATM    1  N   UNL     1      22.794  46.908  49.186  1.00  0.00    -0.337 N 
HETATM    2  H   UNL     1      21.942  46.387  49.369  1.00  0.00     0.168 HD
ENDROOT
BRANCH   1   3
HETATM    3  C   UNL     1      23.929  46.409  49.857  1.00  0.00     0.036 A 
HETATM    4  C   UNL     1      24.237  45.059  49.663  1.00  0.00     0.067 A 
HETATM    5  C   UNL     1      25.308  44.466  50.336  1.00  0.00     0.082 A 
HETATM    6  C   UNL     1      26.089  45.197  51.244  1.00  0.00     0.050 A 
HETATM    7  C   UNL     1      25.759  46.550  51.440  1.00  0.00     0.021 A 
HETATM    8  C   UNL     1      24.693  47.151  50.755  1.00  0.00     0.030 A 
BRANCH   5   9
HETATM    9  O   UNL     1      25.510  43.141  50.046  1.00  0.00    -0.360 OA
HETATM   10  H   UNL     1      25.408  43.015  49.084  1.00  0.00     0.217 HD
ENDBRANCH   5   9
BRANCH   6  11
HETATM   11  C   UNL     1      27.201  44.630  52.007  1.00  0.00     0.183 A 
HETATM   12  N   UNL     1      28.069  43.698  51.652  1.00  0.00    -0.221 NA
HETATM   13  C   UNL     1      28.888  43.575  52.746  1.00  0.00     0.093 A 
HETATM   14  C   UNL     1      28.476  44.443  53.741  1.00  0.00     0.107 A 
HETATM   15  C   UNL     1      29.997  42.755  52.982  1.00  0.00     0.035 A 
HETATM   16  C   UNL     1      29.082  44.573  54.986  1.00  0.00     0.046 A 
HETATM   17  O   UNL     1      27.393  45.128  53.276  1.00  0.00    -0.289 OA
HETATM   18  C   UNL     1      30.200  43.753  55.217  1.00  0.00    -0.059 A 
HETATM   19  C   UNL     1      30.907  43.800  56.542  1.00  0.00     0.048 C 
HETATM   20  C   UNL     1      30.641  42.855  54.227  1.00  0.00     0.009 A 
ENDBRANCH   6  11
ENDBRANCH   1   3
BRANCH   1  21
HETATM   21  C   UNL     1      22.580  48.096  48.584  1.00  0.00     0.157 C 
HETATM   22  S   UNL     1      23.824  49.217  48.546  1.00  0.00    -0.047 SA
BRANCH  21  23
HETATM   23  N   UNL     1      21.378  48.477  48.078  1.00  0.00    -0.201 NA
HETATM   24  C   UNL     1      20.247  48.579  48.881  1.00  0.00     0.237 C 
HETATM   25  O   UNL     1      19.708  47.656  49.480  1.00  0.00    -0.274 OA
HETATM   26  H   UNL     1      21.556  49.301  47.523  1.00  0.00     0.139 HD
BRANCH  24  27
HETATM   27  C   UNL     1      19.633  49.937  48.983  1.00  0.00     0.029 A 
HETATM   28  C   UNL     1      18.436  50.190  49.673  1.00  0.00     0.053 A 
HETATM   29  C   UNL     1      17.883  51.473  49.652  1.00  0.00     0.069 A 
HETATM   30  C   UNL     1      18.549  52.504  48.982  1.00  0.00     0.037 A 
HETATM   31  C   UNL     1      19.754  52.265  48.325  1.00  0.00     0.004 A 
HETATM   32  C   UNL     1      20.293  50.982  48.324  1.00  0.00     0.017 A 
BRANCH  29  33
HETATM   33  O   UNL     1      16.711  51.855  50.241  1.00  0.00    -0.351 OA
BRANCH  33  34
HETATM   34  C   UNL     1      15.563  52.008  49.407  1.00  0.00     0.179 C 
BRANCH  34  35
HETATM   35  C   UNL     1      14.964  53.410  49.606  1.00  0.00     0.002 C 
HETATM   36  C   UNL     1      14.354  53.953  48.313  1.00  0.00     0.011 C 
HETATM   37  C   UNL     1      13.910  53.403  50.716  1.00  0.00     0.011 C 
ENDBRANCH  34  35
ENDBRANCH  33  34
ENDBRANCH  29  33
ENDBRANCH  24  27
ENDBRANCH  21  23
ENDBRANCH   1  21
TORSDOF 9
ENDMDL
MODEL 10
REMARK VINA RESULT:      -9.4      2.317     10.156
REMARK  9 active torsions:
REMARK  status: ('A' for Active; 'I' for Inactive)
REMARK    1  A    between atoms: C_7  and  C_8 
REMARK    2  A    between atoms: C_9  and  O_10 
REMARK    3  A    between atoms: C_12  and  N_13 
REMARK    4  A    between atoms: N_13  and  C_14 
REMARK    5  A    between atoms: C_14  and  N_15 
REMARK       I    between atoms: N_15  and  C_16 
REMARK    6  A    between atoms: C_16  and  C_17 
REMARK    7  A    between atoms: C_19  and  O_20 
REMARK    8  A    between atoms: O_20  and  C_21 
REMARK    9  A    between atoms: C_21  and  C_22 
ROOT
HETATM    1  N   UNL     1      24.343  44.486  48.810  1.00  0.00    -0.337 N 
HETATM    2  H   UNL     1      24.452  43.703  48.173  1.00  0.00     0.168 HD
ENDROOT
BRANCH   1   3
HETATM    3  C   UNL     1      25.250  44.481  49.889  1.00  0.00     0.036 A 
HETATM    4  C   UNL     1      24.735  44.161  51.148  1.00  0.00     0.067 A 
HETATM    5  C   UNL     1      25.550  44.192  52.283  1.00  0.00     0.082 A 
HETATM    6  C   UNL     1      26.898  44.571  52.199  1.00  0.00     0.050 A 
HETATM    7  C   UNL     1      27.399  44.905  50.928  1.00  0.00     0.021 A 
HETATM    8  C   UNL     1      26.587  44.860  49.784  1.00  0.00     0.030 A 
BRANCH   5   9
HETATM    9  O   UNL     1      24.924  43.842  53.453  1.00  0.00    -0.360 OA
HETATM   10  H   UNL     1      25.592  43.801  54.162  1.00  0.00     0.217 HD
ENDBRANCH   5   9
BRANCH   6  11
HETATM   11  C   UNL     1      27.795  44.658  53.350  1.00  0.00     0.183 A 
HETATM   12  N   UNL     1      27.874  45.596  54.279  1.00  0.00    -0.221 NA
HETATM   13  C   UNL     1      28.874  45.156  55.109  1.00  0.00     0.093 A 
HETATM   14  C   UNL     1      29.376  43.954  54.644  1.00  0.00     0.107 A 
HETATM   15  C   UNL     1      29.419  45.709  56.274  1.00  0.00     0.035 A 
HETATM   16  C   UNL     1      30.402  43.233  55.245  1.00  0.00     0.046 A 
HETATM   17  O   UNL     1      28.689  43.624  53.513  1.00  0.00    -0.289 OA
HETATM   18  C   UNL     1      30.942  43.788  56.417  1.00  0.00    -0.059 A 
HETATM   19  C   UNL     1      32.072  43.097  57.127  1.00  0.00     0.048 C 
HETATM   20  C   UNL     1      30.456  45.012  56.916  1.00  0.00     0.009 A 
ENDBRANCH   6  11
ENDBRANCH   1   3
BRANCH   1  21
HETATM   21  C   UNL     1      23.196  45.171  48.628  1.00  0.00     0.157 C 
HETATM   22  S   UNL     1      22.223  44.784  47.320  1.00  0.00    -0.047 SA
BRANCH  21  23
HETATM   23  N   UNL     1      22.821  46.228  49.397  1.00  0.00    -0.201 NA
HETATM   24  C   UNL     1      23.395  47.485  49.242  1.00  0.00     0.237 C 
HETATM   25  O   UNL     1      24.575  47.761  49.428  1.00  0.00    -0.274 OA
HETATM   26  H   UNL     1      21.812  46.239  49.384  1.00  0.00     0.139 HD
BRANCH  24  27
HETATM   27  C   UNL     1      22.470  48.586  48.843  1.00  0.00     0.029 A 
HETATM   28  C   UNL     1      21.125  48.375  48.499  1.00  0.00     0.053 A 
HETATM   29  C   UNL     1      20.347  49.448  48.056  1.00  0.00     0.069 A 
HETATM   30  C   UNL     1      20.901  50.731  48.002  1.00  0.00     0.037 A 
HETATM   31  C   UNL     1      22.225  50.950  48.374  1.00  0.00     0.004 A 
HETATM   32  C   UNL     1      23.009  49.879  48.792  1.00  0.00     0.017 A 
BRANCH  29  33
HETATM   33  O   UNL     1      19.043  49.385  47.653  1.00  0.00    -0.351 OA
BRANCH  33  34
HETATM   34  C   UNL     1      18.041  49.845  48.561  1.00  0.00     0.179 C 
BRANCH  34  35
HETATM   35  C   UNL     1      16.656  49.727  47.903  1.00  0.00     0.002 C 
HETATM   36  C   UNL     1      16.015  48.365  48.175  1.00  0.00     0.011 C 
HETATM   37  C   UNL     1      15.726  50.844  48.380  1.00  0.00     0.011 C 
ENDBRANCH  34  35
ENDBRANCH  33  34
ENDBRANCH  29  33
ENDBRANCH  24  27
ENDBRANCH  21  23
ENDBRANCH   1  21
TORSDOF 9
ENDMDL
