MODEL 1
REMARK VINA RESULT:      -8.5      0.000      0.000
REMARK  4 active torsions:
REMARK  status: ('A' for Active; 'I' for Inactive)
REMARK    1  A    between atoms: C_5  and  C_6 
REMARK    2  A    between atoms: N_7  and  N_8 
REMARK       I    between atoms: N_8  and  C_9 
REMARK    3  A    between atoms: C_9  and  C_10 
REMARK    4  A    between atoms: C_21  and  O_22 
ROOT
HETATM    1  N   UNL     1      26.387  47.026  53.100  1.00  0.00    -0.242 N 
HETATM    2  C   UNL     1      26.290  46.038  54.068  1.00  0.00     0.292 C 
HETATM    3  O   UNL     1      25.304  45.329  54.254  1.00  0.00    -0.264 OA
HETATM    4  H   UNL     1      27.264  47.539  53.055  1.00  0.00     0.192 HD
ENDROOT
BRANCH   1   5
HETATM    5  N   UNL     1      25.356  47.274  52.249  1.00  0.00    -0.183 NA
HETATM    6  C   UNL     1      25.517  46.851  51.037  1.00  0.00     0.153 C 
BRANCH   6   7
HETATM    7  C   UNL     1      24.461  47.058  50.025  1.00  0.00     0.017 A 
HETATM    8  C   UNL     1      24.264  48.353  49.534  1.00  0.00     0.034 A 
HETATM    9  C   UNL     1      23.275  48.578  48.574  1.00  0.00     0.012 A 
HETATM   10  C   UNL     1      22.485  47.529  48.102  1.00  0.00     0.022 A 
HETATM   11 BR   UNL     1      23.003  50.326  47.907  1.00  0.00    -0.051 Br
HETATM   12  C   UNL     1      22.684  46.239  48.594  1.00  0.00     0.039 A 
HETATM   13  C   UNL     1      23.668  46.004  49.551  1.00  0.00     0.077 A 
BRANCH  13  14
HETATM   14  O   UNL     1      23.797  44.711  49.979  1.00  0.00    -0.360 OA
HETATM   15  H   UNL     1      24.041  44.720  50.934  1.00  0.00     0.217 HD
ENDBRANCH  13  14
ENDBRANCH   6   7
ENDBRANCH   1   5
BRANCH   2  16
HETATM   16  C   UNL     1      27.523  45.922  54.866  1.00  0.00     0.154 A 
HETATM   17  N   UNL     1      27.841  46.829  55.822  1.00  0.00    -0.169 NA
HETATM   18  N   UNL     1      29.010  46.387  56.327  1.00  0.00    -0.281 N 
HETATM   19  H   UNL     1      29.451  46.920  57.071  1.00  0.00     0.189 HD
HETATM   20  C   UNL     1      29.448  45.244  55.738  1.00  0.00     0.036 A 
HETATM   21  C   UNL     1      28.517  44.914  54.782  1.00  0.00     0.002 A 
HETATM   22  C   UNL     1      30.700  44.510  56.043  1.00  0.00     0.059 C 
HETATM   23  C   UNL     1      28.634  43.706  53.920  1.00  0.00     0.043 C 
HETATM   24  C   UNL     1      30.065  43.131  53.978  1.00  0.00     0.005 C 
HETATM   25  C   UNL     1      30.635  43.105  55.411  1.00  0.00     0.006 C 
ENDBRANCH   2  16
TORSDOF 4
ENDMDL
MODEL 2
REMARK VINA RESULT:      -8.5      2.203      2.783
REMARK  4 active torsions:
REMARK  status: ('A' for Active; 'I' for Inactive)
REMARK    1  A    between atoms: C_5  and  C_6 
REMARK    2  A    between atoms: N_7  and  N_8 
REMARK       I    between atoms: N_8  and  C_9 
REMARK    3  A    between atoms: C_9  and  C_10 
REMARK    4  A    between atoms: C_21  and  O_22 
ROOT
HETATM    1  N   UNL     1      26.518  45.633  51.827  1.00  0.00    -0.242 N 
HETATM    2  C   UNL     1      26.533  45.529  53.209  1.00  0.00     0.292 C 
HETATM    3  O   UNL     1      25.841  46.197  53.973  1.00  0.00    -0.264 OA
HETATM    4  H   UNL     1      27.144  45.017  51.313  1.00  0.00     0.192 HD
ENDROOT
BRANCH   1   5
HETATM    5  N   UNL     1      25.689  46.511  51.202  1.00  0.00    -0.183 NA
HETATM    6  C   UNL     1      26.222  47.199  50.243  1.00  0.00     0.153 C 
BRANCH   6   7
HETATM    7  C   UNL     1      25.416  48.180  49.488  1.00  0.00     0.017 A 
HETATM    8  C   UNL     1      24.023  48.097  49.578  1.00  0.00     0.034 A 
HETATM    9  C   UNL     1      23.235  49.012  48.877  1.00  0.00     0.012 A 
HETATM   10  C   UNL     1      23.822  50.005  48.091  1.00  0.00     0.022 A 
HETATM   11 BR   UNL     1      21.352  48.905  48.994  1.00  0.00    -0.051 Br
HETATM   12  C   UNL     1      25.211  50.085  48.003  1.00  0.00     0.039 A 
HETATM   13  C   UNL     1      26.006  49.176  48.698  1.00  0.00     0.077 A 
BRANCH  13  14
HETATM   14  O   UNL     1      27.359  49.325  48.558  1.00  0.00    -0.360 OA
HETATM   15  H   UNL     1      27.803  48.540  48.955  1.00  0.00     0.217 HD
ENDBRANCH  13  14
ENDBRANCH   6   7
ENDBRANCH   1   5
BRANCH   2  16
HETATM   16  C   UNL     1      27.485  44.506  53.676  1.00  0.00     0.154 A 
HETATM   17  N   UNL     1      27.409  43.218  53.261  1.00  0.00    -0.169 NA
HETATM   18  N   UNL     1      28.434  42.604  53.885  1.00  0.00    -0.281 N 
HETATM   19  H   UNL     1      28.576  41.611  53.725  1.00  0.00     0.189 HD
HETATM   20  C   UNL     1      29.156  43.440  54.676  1.00  0.00     0.036 A 
HETATM   21  C   UNL     1      28.570  44.680  54.574  1.00  0.00     0.002 A 
HETATM   22  C   UNL     1      30.329  43.083  55.510  1.00  0.00     0.059 C 
HETATM   23  C   UNL     1      29.083  45.880  55.290  1.00  0.00     0.043 C 
HETATM   24  C   UNL     1      30.065  45.470  56.407  1.00  0.00     0.005 C 
HETATM   25  C   UNL     1      31.050  44.371  55.956  1.00  0.00     0.006 C 
ENDBRANCH   2  16
TORSDOF 4
ENDMDL
MODEL 3
REMARK VINA RESULT:      -8.4      3.686      9.211
REMARK  4 active torsions:
REMARK  status: ('A' for Active; 'I' for Inactive)
REMARK    1  A    between atoms: C_5  and  C_6 
REMARK    2  A    between atoms: N_7  and  N_8 
REMARK       I    between atoms: N_8  and  C_9 
REMARK    3  A    between atoms: C_9  and  C_10 
REMARK    4  A    between atoms: C_21  and  O_22 
ROOT
HETATM    1  N   UNL     1      24.029  47.614  50.475  1.00  0.00    -0.242 N 
HETATM    2  C   UNL     1      24.050  48.525  49.430  1.00  0.00     0.292 C 
HETATM    3  O   UNL     1      24.966  49.309  49.199  1.00  0.00    -0.264 OA
HETATM    4  H   UNL     1      23.205  47.022  50.550  1.00  0.00     0.192 HD
ENDROOT
BRANCH   1   5
HETATM    5  N   UNL     1      25.073  47.518  51.339  1.00  0.00    -0.183 NA
HETATM    6  C   UNL     1      25.024  46.526  52.169  1.00  0.00     0.153 C 
BRANCH   6   7
HETATM    7  C   UNL     1      26.107  46.316  53.151  1.00  0.00     0.017 A 
HETATM    8  C   UNL     1      26.920  45.187  53.006  1.00  0.00     0.034 A 
HETATM    9  C   UNL     1      27.953  44.964  53.917  1.00  0.00     0.012 A 
HETATM   10  C   UNL     1      28.183  45.853  54.968  1.00  0.00     0.022 A 
HETATM   11 BR   UNL     1      29.054  43.439  53.726  1.00  0.00    -0.051 Br
HETATM   12  C   UNL     1      27.371  46.978  55.111  1.00  0.00     0.039 A 
HETATM   13  C   UNL     1      26.337  47.209  54.206  1.00  0.00     0.077 A 
BRANCH  13  14
HETATM   14  O   UNL     1      25.590  48.335  54.418  1.00  0.00    -0.360 OA
HETATM   15  H   UNL     1      24.849  48.109  55.028  1.00  0.00     0.217 HD
ENDBRANCH  13  14
ENDBRANCH   6   7
ENDBRANCH   1   5
BRANCH   2  16
HETATM   16  C   UNL     1      22.832  48.449  48.604  1.00  0.00     0.154 A 
HETATM   17  N   UNL     1      22.575  47.381  47.811  1.00  0.00    -0.169 NA
HETATM   18  N   UNL     1      21.390  47.670  47.235  1.00  0.00    -0.281 N 
HETATM   19  H   UNL     1      20.990  47.001  46.584  1.00  0.00     0.189 HD
HETATM   20  C   UNL     1      20.885  48.869  47.625  1.00  0.00     0.036 A 
HETATM   21  C   UNL     1      21.792  49.409  48.506  1.00  0.00     0.002 A 
HETATM   22  C   UNL     1      19.619  49.491  47.168  1.00  0.00     0.059 C 
HETATM   23  C   UNL     1      21.591  50.725  49.171  1.00  0.00     0.043 C 
HETATM   24  C   UNL     1      20.479  51.529  48.465  1.00  0.00     0.005 C 
HETATM   25  C   UNL     1      19.256  50.659  48.108  1.00  0.00     0.006 C 
ENDBRANCH   2  16
TORSDOF 4
ENDMDL
MODEL 4
REMARK VINA RESULT:      -8.4      3.588      8.385
REMARK  4 active torsions:
REMARK  status: ('A' for Active; 'I' for Inactive)
REMARK    1  A    between atoms: C_5  and  C_6 
REMARK    2  A    between atoms: N_7  and  N_8 
REMARK       I    between atoms: N_8  and  C_9 
REMARK    3  A    between atoms: C_9  and  C_10 
REMARK    4  A    between atoms: C_21  and  O_22 
ROOT
HETATM    1  N   UNL     1      26.281  45.323  51.985  1.00  0.00    -0.242 N 
HETATM    2  C   UNL     1      26.395  45.520  50.618  1.00  0.00     0.292 C 
HETATM    3  O   UNL     1      27.350  45.162  49.933  1.00  0.00    -0.264 OA
HETATM    4  H   UNL     1      25.434  45.671  52.430  1.00  0.00     0.192 HD
ENDROOT
BRANCH   1   5
HETATM    5  N   UNL     1      27.255  44.681  52.683  1.00  0.00    -0.183 NA
HETATM    6  C   UNL     1      27.802  45.362  53.638  1.00  0.00     0.153 C 
BRANCH   6   7
HETATM    7  C   UNL     1      28.868  44.765  54.468  1.00  0.00     0.017 A 
HETATM    8  C   UNL     1      29.159  45.365  55.698  1.00  0.00     0.034 A 
HETATM    9  C   UNL     1      30.159  44.822  56.506  1.00  0.00     0.012 A 
HETATM   10  C   UNL     1      30.869  43.690  56.101  1.00  0.00     0.022 A 
HETATM   11 BR   UNL     1      30.558  45.629  58.168  1.00  0.00    -0.051 Br
HETATM   12  C   UNL     1      30.576  43.094  54.874  1.00  0.00     0.039 A 
HETATM   13  C   UNL     1      29.580  43.629  54.061  1.00  0.00     0.077 A 
BRANCH  13  14
HETATM   14  O   UNL     1      29.356  42.983  52.876  1.00  0.00    -0.360 OA
HETATM   15  H   UNL     1      29.000  43.635  52.227  1.00  0.00     0.217 HD
ENDBRANCH  13  14
ENDBRANCH   6   7
ENDBRANCH   1   5
BRANCH   2  16
HETATM   16  C   UNL     1      25.223  46.217  50.059  1.00  0.00     0.154 A 
HETATM   17  N   UNL     1      24.003  45.627  50.004  1.00  0.00    -0.169 NA
HETATM   18  N   UNL     1      23.205  46.562  49.450  1.00  0.00    -0.281 N 
HETATM   19  H   UNL     1      22.225  46.340  49.304  1.00  0.00     0.189 HD
HETATM   20  C   UNL     1      23.860  47.714  49.151  1.00  0.00     0.036 A 
HETATM   21  C   UNL     1      25.170  47.529  49.523  1.00  0.00     0.002 A 
HETATM   22  C   UNL     1      23.284  48.926  48.519  1.00  0.00     0.059 C 
HETATM   23  C   UNL     1      26.213  48.579  49.367  1.00  0.00     0.043 C 
HETATM   24  C   UNL     1      25.727  49.694  48.417  1.00  0.00     0.005 C 
HETATM   25  C   UNL     1      24.265  50.104  48.685  1.00  0.00     0.006 C 
ENDBRANCH   2  16
TORSDOF 4
ENDMDL
MODEL 5
REMARK VINA RESULT:      -8.2      6.809      9.253
REMARK  4 active torsions:
REMARK  status: ('A' for Active; 'I' for Inactive)
REMARK    1  A    between atoms: C_5  and  C_6 
REMARK    2  A    between atoms: N_7  and  N_8 
REMARK       I    between atoms: N_8  and  C_9 
REMARK    3  A    between atoms: C_9  and  C_10 
REMARK    4  A    between atoms: C_21  and  O_22 
ROOT
HETATM    1  N   UNL     1      28.856  40.386  51.758  1.00  0.00    -0.242 N 
HETATM    2  C   UNL     1      28.016  40.350  50.655  1.00  0.00     0.292 C 
HETATM    3  O   UNL     1      27.078  41.119  50.461  1.00  0.00    -0.264 OA
HETATM    4  H   UNL     1      29.596  39.688  51.794  1.00  0.00     0.192 HD
ENDROOT
BRANCH   1   5
HETATM    5  N   UNL     1      28.695  41.323  52.729  1.00  0.00    -0.183 NA
HETATM    6  C   UNL     1      29.696  42.125  52.905  1.00  0.00     0.153 C 
BRANCH   6   7
HETATM    7  C   UNL     1      29.634  43.188  53.928  1.00  0.00     0.017 A 
HETATM    8  C   UNL     1      30.525  43.119  55.005  1.00  0.00     0.034 A 
HETATM    9  C   UNL     1      30.491  44.112  55.986  1.00  0.00     0.012 A 
HETATM   10  C   UNL     1      29.583  45.168  55.903  1.00  0.00     0.022 A 
HETATM   11 BR   UNL     1      31.691  44.024  57.444  1.00  0.00    -0.051 Br
HETATM   12  C   UNL     1      28.696  45.233  54.829  1.00  0.00     0.039 A 
HETATM   13  C   UNL     1      28.721  44.248  53.845  1.00  0.00     0.077 A 
BRANCH  13  14
HETATM   14  O   UNL     1      27.819  44.388  52.826  1.00  0.00    -0.360 OA
HETATM   15  H   UNL     1      26.964  44.697  53.206  1.00  0.00     0.217 HD
ENDBRANCH  13  14
ENDBRANCH   6   7
ENDBRANCH   1   5
BRANCH   2  16
HETATM   16  C   UNL     1      28.378  39.272  49.719  1.00  0.00     0.154 A 
HETATM   17  N   UNL     1      28.953  38.121  50.145  1.00  0.00    -0.169 NA
HETATM   18  N   UNL     1      29.120  37.395  49.021  1.00  0.00    -0.281 N 
HETATM   19  H   UNL     1      29.545  36.476  49.096  1.00  0.00     0.189 HD
HETATM   20  C   UNL     1      28.678  38.029  47.904  1.00  0.00     0.036 A 
HETATM   21  C   UNL     1      28.197  39.251  48.312  1.00  0.00     0.002 A 
HETATM   22  C   UNL     1      28.732  37.520  46.513  1.00  0.00     0.059 C 
HETATM   23  C   UNL     1      27.608  40.244  47.373  1.00  0.00     0.043 C 
HETATM   24  C   UNL     1      27.962  39.891  45.913  1.00  0.00     0.005 C 
HETATM   25  C   UNL     1      27.819  38.383  45.618  1.00  0.00     0.006 C 
ENDBRANCH   2  16
TORSDOF 4
ENDMDL
MODEL 6
REMARK VINA RESULT:      -8.2      5.068      5.960
REMARK  4 active torsions:
REMARK  status: ('A' for Active; 'I' for Inactive)
REMARK    1  A    between atoms: C_5  and  C_6 
REMARK    2  A    between atoms: N_7  and  N_8 
REMARK       I    between atoms: N_8  and  C_9 
REMARK    3  A    between atoms: C_9  and  C_10 
REMARK    4  A    between atoms: C_21  and  O_22 
ROOT
HETATM    1  N   UNL     1      28.061  42.468  53.551  1.00  0.00    -0.242 N 
HETATM    2  C   UNL     1      29.307  43.072  53.623  1.00  0.00     0.292 C 
HETATM    3  O   UNL     1      30.280  42.759  52.942  1.00  0.00    -0.264 OA
HETATM    4  H   UNL     1      27.341  42.827  54.174  1.00  0.00     0.192 HD
ENDROOT
BRANCH   1   5
HETATM    5  N   UNL     1      27.824  41.457  52.674  1.00  0.00    -0.183 NA
HETATM    6  C   UNL     1      27.503  41.821  51.474  1.00  0.00     0.153 C 
BRANCH   6   7
HETATM    7  C   UNL     1      27.228  40.810  50.432  1.00  0.00     0.017 A 
HETATM    8  C   UNL     1      26.161  41.039  49.557  1.00  0.00     0.034 A 
HETATM    9  C   UNL     1      25.879  40.102  48.561  1.00  0.00     0.012 A 
HETATM   10  C   UNL     1      26.649  38.945  48.429  1.00  0.00     0.022 A 
HETATM   11 BR   UNL     1      24.438  40.405  47.375  1.00  0.00    -0.051 Br
HETATM   12  C   UNL     1      27.711  38.720  49.304  1.00  0.00     0.039 A 
HETATM   13  C   UNL     1      28.000  39.648  50.302  1.00  0.00     0.077 A 
BRANCH  13  14
HETATM   14  O   UNL     1      29.059  39.351  51.115  1.00  0.00    -0.360 OA
HETATM   15  H   UNL     1      28.712  38.961  51.951  1.00  0.00     0.217 HD
ENDBRANCH  13  14
ENDBRANCH   6   7
ENDBRANCH   1   5
BRANCH   2  16
HETATM   16  C   UNL     1      29.341  44.154  54.622  1.00  0.00     0.154 A 
HETATM   17  N   UNL     1      28.564  45.258  54.502  1.00  0.00    -0.169 NA
HETATM   18  N   UNL     1      28.863  45.997  55.591  1.00  0.00    -0.281 N 
HETATM   19  H   UNL     1      28.395  46.889  55.716  1.00  0.00     0.189 HD
HETATM   20  C   UNL     1      29.791  45.414  56.393  1.00  0.00     0.036 A 
HETATM   21  C   UNL     1      30.132  44.222  55.797  1.00  0.00     0.002 A 
HETATM   22  C   UNL     1      30.352  45.965  57.650  1.00  0.00     0.059 C 
HETATM   23  C   UNL     1      31.121  43.277  56.384  1.00  0.00     0.043 C 
HETATM   24  C   UNL     1      31.953  43.970  57.482  1.00  0.00     0.005 C 
HETATM   25  C   UNL     1      31.091  44.848  58.413  1.00  0.00     0.006 C 
ENDBRANCH   2  16
TORSDOF 4
ENDMDL
MODEL 7
REMARK VINA RESULT:      -8.0      1.852      2.212
REMARK  4 active torsions:
REMARK  status: ('A' for Active; 'I' for Inactive)
REMARK    1  A    between atoms: C_5  and  C_6 
REMARK    2  A    between atoms: N_7  and  N_8 
REMARK       I    between atoms: N_8  and  C_9 
REMARK    3  A    between atoms: C_9  and  C_10 
REMARK    4  A    between atoms: C_21  and  O_22 
ROOT
HETATM    1  N   UNL     1      26.177  44.585  51.846  1.00  0.00    -0.242 N 
HETATM    2  C   UNL     1      26.056  44.139  53.153  1.00  0.00     0.292 C 
HETATM    3  O   UNL     1      25.021  44.168  53.813  1.00  0.00    -0.264 OA
HETATM    4  H   UNL     1      27.096  44.502  51.416  1.00  0.00     0.192 HD
ENDROOT
BRANCH   1   5
HETATM    5  N   UNL     1      25.106  45.092  51.179  1.00  0.00    -0.183 NA
HETATM    6  C   UNL     1      25.341  46.140  50.456  1.00  0.00     0.153 C 
BRANCH   6   7
HETATM    7  C   UNL     1      24.255  46.774  49.681  1.00  0.00     0.017 A 
HETATM    8  C   UNL     1      24.245  48.169  49.583  1.00  0.00     0.034 A 
HETATM    9  C   UNL     1      23.232  48.797  48.854  1.00  0.00     0.012 A 
HETATM   10  C   UNL     1      22.236  48.049  48.225  1.00  0.00     0.022 A 
HETATM   11 BR   UNL     1      23.212  50.682  48.719  1.00  0.00    -0.051 Br
HETATM   12  C   UNL     1      22.250  46.658  48.325  1.00  0.00     0.039 A 
HETATM   13  C   UNL     1      23.255  46.022  49.050  1.00  0.00     0.077 A 
BRANCH  13  14
HETATM   14  O   UNL     1      23.195  44.656  49.097  1.00  0.00    -0.360 OA
HETATM   15  H   UNL     1      23.132  44.314  48.174  1.00  0.00     0.217 HD
ENDBRANCH  13  14
ENDBRANCH   6   7
ENDBRANCH   1   5
BRANCH   2  16
HETATM   16  C   UNL     1      27.328  43.612  53.678  1.00  0.00     0.154 A 
HETATM   17  N   UNL     1      27.772  42.372  53.357  1.00  0.00    -0.169 NA
HETATM   18  N   UNL     1      28.947  42.259  54.008  1.00  0.00    -0.281 N 
HETATM   19  H   UNL     1      29.472  41.394  53.918  1.00  0.00     0.189 HD
HETATM   20  C   UNL     1      29.270  43.367  54.725  1.00  0.00     0.036 A 
HETATM   21  C   UNL     1      28.243  44.264  54.543  1.00  0.00     0.002 A 
HETATM   22  C   UNL     1      30.476  43.563  55.564  1.00  0.00     0.059 C 
HETATM   23  C   UNL     1      28.231  45.617  55.162  1.00  0.00     0.043 C 
HETATM   24  C   UNL     1      29.280  45.711  56.291  1.00  0.00     0.005 C 
HETATM   25  C   UNL     1      30.624  45.060  55.905  1.00  0.00     0.006 C 
ENDBRANCH   2  16
TORSDOF 4
ENDMDL
MODEL 8
REMARK VINA RESULT:      -7.6      3.427      8.472
REMARK  4 active torsions:
REMARK  status: ('A' for Active; 'I' for Inactive)
REMARK    1  A    between atoms: C_5  and  C_6 
REMARK    2  A    between atoms: N_7  and  N_8 
REMARK       I    between atoms: N_8  and  C_9 
REMARK    3  A    between atoms: C_9  and  C_10 
REMARK    4  A    between atoms: C_21  and  O_22 
ROOT
HETATM    1  N   UNL     1      24.248  45.972  50.669  1.00  0.00    -0.242 N 
HETATM    2  C   UNL     1      23.918  45.765  49.338  1.00  0.00     0.292 C 
HETATM    3  O   UNL     1      24.371  44.867  48.633  1.00  0.00    -0.264 OA
HETATM    4  H   UNL     1      23.797  46.755  51.136  1.00  0.00     0.192 HD
ENDROOT
BRANCH   1   5
HETATM    5  N   UNL     1      25.122  45.150  51.308  1.00  0.00    -0.183 NA
HETATM    6  C   UNL     1      25.741  45.668  52.319  1.00  0.00     0.153 C 
BRANCH   6   7
HETATM    7  C   UNL     1      26.711  44.868  53.095  1.00  0.00     0.017 A 
HETATM    8  C   UNL     1      27.537  45.536  54.005  1.00  0.00     0.034 A 
HETATM    9  C   UNL     1      28.461  44.806  54.754  1.00  0.00     0.012 A 
HETATM   10  C   UNL     1      28.568  43.422  54.607  1.00  0.00     0.022 A 
HETATM   11 BR   UNL     1      29.582  45.702  55.985  1.00  0.00    -0.051 Br
HETATM   12  C   UNL     1      27.742  42.759  53.698  1.00  0.00     0.039 A 
HETATM   13  C   UNL     1      26.817  43.479  52.946  1.00  0.00     0.077 A 
BRANCH  13  14
HETATM   14  O   UNL     1      26.046  42.752  52.080  1.00  0.00    -0.360 OA
HETATM   15  H   UNL     1      25.269  43.299  51.819  1.00  0.00     0.217 HD
ENDBRANCH  13  14
ENDBRANCH   6   7
ENDBRANCH   1   5
BRANCH   2  16
HETATM   16  C   UNL     1      22.942  46.754  48.849  1.00  0.00     0.154 A 
HETATM   17  N   UNL     1      21.669  46.406  48.539  1.00  0.00    -0.169 NA
HETATM   18  N   UNL     1      21.092  47.560  48.148  1.00  0.00    -0.281 N 
HETATM   19  H   UNL     1      20.119  47.544  47.859  1.00  0.00     0.189 HD
HETATM   20  C   UNL     1      21.938  48.622  48.194  1.00  0.00     0.036 A 
HETATM   21  C   UNL     1      23.148  48.141  48.637  1.00  0.00     0.002 A 
HETATM   22  C   UNL     1      21.630  50.022  47.814  1.00  0.00     0.059 C 
HETATM   23  C   UNL     1      24.341  49.008  48.835  1.00  0.00     0.043 C 
HETATM   24  C   UNL     1      24.150  50.369  48.133  1.00  0.00     0.005 C 
HETATM   25  C   UNL     1      22.738  50.952  48.348  1.00  0.00     0.006 C 
ENDBRANCH   2  16
TORSDOF 4
ENDMDL
MODEL 9
REMARK VINA RESULT:      -7.6      6.077     11.099
REMARK  4 active torsions:
REMARK  status: ('A' for Active; 'I' for Inactive)
REMARK    1  A    between atoms: C_5  and  C_6 
REMARK    2  A    between atoms: N_7  and  N_8 
REMARK       I    between atoms: N_8  and  C_9 
REMARK    3  A    between atoms: C_9  and  C_10 
REMARK    4  A    between atoms: C_21  and  O_22 
ROOT
HETATM    1  N   UNL     1      21.462  50.734  47.980  1.00  0.00    -0.242 N 
HETATM    2  C   UNL     1      20.400  50.962  48.842  1.00  0.00     0.292 C 
HETATM    3  O   UNL     1      20.476  50.960  50.068  1.00  0.00    -0.264 OA
HETATM    4  H   UNL     1      21.259  50.765  46.984  1.00  0.00     0.192 HD
ENDROOT
BRANCH   1   5
HETATM    5  N   UNL     1      22.712  50.496  48.459  1.00  0.00    -0.183 NA
HETATM    6  C   UNL     1      23.103  49.263  48.415  1.00  0.00     0.153 C 
BRANCH   6   7
HETATM    7  C   UNL     1      24.445  48.885  48.902  1.00  0.00     0.017 A 
HETATM    8  C   UNL     1      24.532  47.926  49.917  1.00  0.00     0.034 A 
HETATM    9  C   UNL     1      25.787  47.546  50.395  1.00  0.00     0.012 A 
HETATM   10  C   UNL     1      26.952  48.111  49.873  1.00  0.00     0.022 A 
HETATM   11 BR   UNL     1      25.911  46.252  51.767  1.00  0.00    -0.051 Br
HETATM   12  C   UNL     1      26.862  49.067  48.862  1.00  0.00     0.039 A 
HETATM   13  C   UNL     1      25.614  49.453  48.378  1.00  0.00     0.077 A 
BRANCH  13  14
HETATM   14  O   UNL     1      25.615  50.394  47.385  1.00  0.00    -0.360 OA
HETATM   15  H   UNL     1      24.779  50.912  47.444  1.00  0.00     0.217 HD
ENDBRANCH  13  14
ENDBRANCH   6   7
ENDBRANCH   1   5
BRANCH   2  16
HETATM   16  C   UNL     1      19.143  51.218  48.116  1.00  0.00     0.154 A 
HETATM   17  N   UNL     1      18.986  50.861  46.818  1.00  0.00    -0.169 NA
HETATM   18  N   UNL     1      17.728  51.243  46.517  1.00  0.00    -0.281 N 
HETATM   19  H   UNL     1      17.381  51.077  45.577  1.00  0.00     0.189 HD
HETATM   20  C   UNL     1      17.082  51.824  47.562  1.00  0.00     0.036 A 
HETATM   21  C   UNL     1      17.967  51.833  48.614  1.00  0.00     0.002 A 
HETATM   22  C   UNL     1      15.703  52.369  47.562  1.00  0.00     0.059 C 
HETATM   23  C   UNL     1      17.625  52.381  49.955  1.00  0.00     0.043 C 
HETATM   24  C   UNL     1      16.350  53.247  49.882  1.00  0.00     0.005 C 
HETATM   25  C   UNL     1      15.247  52.604  49.016  1.00  0.00     0.006 C 
ENDBRANCH   2  16
TORSDOF 4
ENDMDL
MODEL 10
REMARK VINA RESULT:      -7.4     13.306     15.586
REMARK  4 active torsions:
REMARK  status: ('A' for Active; 'I' for Inactive)
REMARK    1  A    between atoms: C_5  and  C_6 
REMARK    2  A    between atoms: N_7  and  N_8 
REMARK       I    between atoms: N_8  and  C_9 
REMARK    3  A    between atoms: C_9  and  C_10 
REMARK    4  A    between atoms: C_21  and  O_22 
ROOT
HETATM    1  N   UNL     1      33.790  51.749  43.204  1.00  0.00    -0.242 N 
HETATM    2  C   UNL     1      32.572  51.500  43.819  1.00  0.00     0.292 C 
HETATM    3  O   UNL     1      32.332  51.697  45.007  1.00  0.00    -0.264 OA
HETATM    4  H   UNL     1      33.853  51.540  42.210  1.00  0.00     0.192 HD
ENDROOT
BRANCH   1   5
HETATM    5  N   UNL     1      34.835  52.261  43.905  1.00  0.00    -0.183 NA
HETATM    6  C   UNL     1      35.997  52.140  43.348  1.00  0.00     0.153 C 
BRANCH   6   7
HETATM    7  C   UNL     1      37.207  52.665  44.014  1.00  0.00     0.017 A 
HETATM    8  C   UNL     1      37.339  54.051  44.142  1.00  0.00     0.034 A 
HETATM    9  C   UNL     1      38.469  54.577  44.771  1.00  0.00     0.012 A 
HETATM   10  C   UNL     1      39.465  53.736  45.270  1.00  0.00     0.022 A 
HETATM   11 BR   UNL     1      38.654  56.450  44.946  1.00  0.00    -0.051 Br
HETATM   12  C   UNL     1      39.331  52.354  45.140  1.00  0.00     0.039 A 
HETATM   13  C   UNL     1      38.206  51.820  44.515  1.00  0.00     0.077 A 
BRANCH  13  14
HETATM   14  O   UNL     1      38.152  50.455  44.431  1.00  0.00    -0.360 OA
HETATM   15  H   UNL     1      37.352  50.143  44.914  1.00  0.00     0.217 HD
ENDBRANCH  13  14
ENDBRANCH   6   7
ENDBRANCH   1   5
BRANCH   2  16
HETATM   16  C   UNL     1      31.574  50.967  42.875  1.00  0.00     0.154 A 
HETATM   17  N   UNL     1      31.315  49.639  42.788  1.00  0.00    -0.169 NA
HETATM   18  N   UNL     1      30.358  49.547  41.842  1.00  0.00    -0.281 N 
HETATM   19  H   UNL     1      30.002  48.628  41.599  1.00  0.00     0.189 HD
HETATM   20  C   UNL     1      29.999  50.752  41.326  1.00  0.00     0.036 A 
HETATM   21  C   UNL     1      30.769  51.696  41.964  1.00  0.00     0.002 A 
HETATM   22  C   UNL     1      28.997  51.000  40.263  1.00  0.00     0.059 C 
HETATM   23  C   UNL     1      30.661  53.153  41.682  1.00  0.00     0.043 C 
HETATM   24  C   UNL     1      29.893  53.400  40.366  1.00  0.00     0.005 C 
HETATM   25  C   UNL     1      28.646  52.502  40.232  1.00  0.00     0.006 C 
ENDBRANCH   2  16
TORSDOF 4
ENDMDL
