MODEL 1
REMARK VINA RESULT:     -10.0      0.000      0.000
REMARK  2 active torsions:
REMARK  status: ('A' for Active; 'I' for Inactive)
REMARK    1  A    between atoms: C_4  and  N_5 
REMARK       I    between atoms: N_5  and  C_6 
REMARK    2  A    between atoms: C_6  and  C_7 
ROOT
HETATM    1  N   UNL     1      26.396  45.076  51.830  1.00  0.00    -0.319 N 
HETATM    2  C   UNL     1      26.481  45.461  50.512  1.00  0.00     0.280 C 
HETATM    3  O   UNL     1      27.300  45.115  49.674  1.00  0.00    -0.265 OA
HETATM    4  H   UNL     1      25.540  45.309  52.335  1.00  0.00     0.169 HD
ENDROOT
BRANCH   2   5
HETATM    5  C   UNL     1      25.363  46.392  50.089  1.00  0.00     0.195 C 
HETATM    6  N   UNL     1      24.177  45.864  49.920  1.00  0.00    -0.165 NA
HETATM    7  N   UNL     1      23.143  46.663  49.523  1.00  0.00    -0.277 N 
HETATM    8  C   UNL     1      23.369  47.919  48.932  1.00  0.00     0.064 A 
HETATM    9  H   UNL     1      22.309  46.177  49.189  1.00  0.00     0.189 HD
HETATM   10  C   UNL     1      24.589  48.573  49.093  1.00  0.00     0.045 A 
HETATM   11  C   UNL     1      22.339  48.600  48.274  1.00  0.00     0.032 A 
HETATM   12  C   UNL     1      25.610  47.859  49.857  1.00  0.00     0.220 C 
HETATM   13  C   UNL     1      24.819  49.855  48.583  1.00  0.00     0.018 A 
HETATM   14  O   UNL     1      26.598  48.416  50.308  1.00  0.00    -0.285 OA
HETATM   15  C   UNL     1      23.796  50.504  47.898  1.00  0.00     0.001 A 
HETATM   16  C   UNL     1      22.556  49.880  47.748  1.00  0.00     0.002 A 
ENDBRANCH   2   5
BRANCH   1  17
HETATM   17  C   UNL     1      27.312  44.291  52.569  1.00  0.00     0.065 A 
HETATM   18  C   UNL     1      27.637  42.975  52.217  1.00  0.00     0.038 A 
HETATM   19  C   UNL     1      28.576  42.250  52.957  1.00  0.00    -0.059 A 
HETATM   20  C   UNL     1      28.904  40.835  52.581  1.00  0.00     0.048 C 
HETATM   21  C   UNL     1      29.162  42.845  54.076  1.00  0.00     0.020 A 
HETATM   22  C   UNL     1      28.842  44.165  54.435  1.00  0.00    -0.005 A 
HETATM   23  C   UNL     1      27.915  44.911  53.676  1.00  0.00     0.093 A 
HETATM   24  C   UNL     1      29.430  44.775  55.552  1.00  0.00     0.015 A 
HETATM   25  N   UNL     1      27.595  46.188  54.000  1.00  0.00    -0.258 NA
HETATM   26  C   UNL     1      28.182  46.740  55.084  1.00  0.00     0.117 A 
HETATM   27  C   UNL     1      29.095  46.082  55.884  1.00  0.00     0.020 A 
ENDBRANCH   1  17
TORSDOF 2
ENDMDL
MODEL 2
REMARK VINA RESULT:      -9.7      2.210      7.973
REMARK  2 active torsions:
REMARK  status: ('A' for Active; 'I' for Inactive)
REMARK    1  A    between atoms: C_4  and  N_5 
REMARK       I    between atoms: N_5  and  C_6 
REMARK    2  A    between atoms: C_6  and  C_7 
ROOT
HETATM    1  N   UNL     1      25.857  46.087  52.210  1.00  0.00    -0.319 N 
HETATM    2  C   UNL     1      26.018  46.854  53.342  1.00  0.00     0.280 C 
HETATM    3  O   UNL     1      25.393  47.848  53.677  1.00  0.00    -0.265 OA
HETATM    4  H   UNL     1      26.332  45.184  52.181  1.00  0.00     0.169 HD
ENDROOT
BRANCH   2   5
HETATM    5  C   UNL     1      27.086  46.321  54.275  1.00  0.00     0.195 C 
HETATM    6  N   UNL     1      27.617  47.166  55.122  1.00  0.00    -0.165 NA
HETATM    7  N   UNL     1      28.596  46.733  55.970  1.00  0.00    -0.277 N 
HETATM    8  C   UNL     1      29.312  45.548  55.723  1.00  0.00     0.064 A 
HETATM    9  H   UNL     1      29.129  47.464  56.444  1.00  0.00     0.189 HD
HETATM   10  C   UNL     1      28.804  44.573  54.865  1.00  0.00     0.045 A 
HETATM   11  C   UNL     1      30.488  45.259  56.423  1.00  0.00     0.032 A 
HETATM   12  C   UNL     1      27.531  44.883  54.217  1.00  0.00     0.220 C 
HETATM   13  C   UNL     1      29.453  43.353  54.658  1.00  0.00     0.018 A 
HETATM   14  O   UNL     1      26.846  44.028  53.679  1.00  0.00    -0.285 OA
HETATM   15  C   UNL     1      30.643  43.096  55.334  1.00  0.00     0.001 A 
HETATM   16  C   UNL     1      31.157  44.045  56.219  1.00  0.00     0.002 A 
ENDBRANCH   2   5
BRANCH   1  17
HETATM   17  C   UNL     1      25.018  46.340  51.099  1.00  0.00     0.065 A 
HETATM   18  C   UNL     1      24.924  47.600  50.494  1.00  0.00     0.038 A 
HETATM   19  C   UNL     1      24.108  47.795  49.376  1.00  0.00    -0.059 A 
HETATM   20  C   UNL     1      24.002  49.153  48.746  1.00  0.00     0.048 C 
HETATM   21  C   UNL     1      23.359  46.722  48.888  1.00  0.00     0.020 A 
HETATM   22  C   UNL     1      23.449  45.455  49.490  1.00  0.00    -0.005 A 
HETATM   23  C   UNL     1      24.291  45.246  50.603  1.00  0.00     0.093 A 
HETATM   24  C   UNL     1      22.708  44.368  49.005  1.00  0.00     0.015 A 
HETATM   25  N   UNL     1      24.399  44.031  51.195  1.00  0.00    -0.258 NA
HETATM   26  C   UNL     1      23.667  43.010  50.698  1.00  0.00     0.117 A 
HETATM   27  C   UNL     1      22.815  43.127  49.618  1.00  0.00     0.020 A 
ENDBRANCH   1  17
TORSDOF 2
ENDMDL
MODEL 3
REMARK VINA RESULT:      -9.6      4.383      6.588
REMARK  2 active torsions:
REMARK  status: ('A' for Active; 'I' for Inactive)
REMARK    1  A    between atoms: C_4  and  N_5 
REMARK       I    between atoms: N_5  and  C_6 
REMARK    2  A    between atoms: C_6  and  C_7 
ROOT
HETATM    1  N   UNL     1      29.035  42.574  53.015  1.00  0.00    -0.319 N 
HETATM    2  C   UNL     1      28.582  41.275  53.058  1.00  0.00     0.280 C 
HETATM    3  O   UNL     1      28.273  40.614  54.038  1.00  0.00    -0.265 OA
HETATM    4  H   UNL     1      29.062  43.033  52.104  1.00  0.00     0.169 HD
ENDROOT
BRANCH   2   5
HETATM    5  C   UNL     1      28.418  40.656  51.685  1.00  0.00     0.195 C 
HETATM    6  N   UNL     1      29.154  39.609  51.409  1.00  0.00    -0.165 NA
HETATM    7  N   UNL     1      29.051  39.030  50.176  1.00  0.00    -0.277 N 
HETATM    8  C   UNL     1      28.488  39.715  49.086  1.00  0.00     0.064 A 
HETATM    9  H   UNL     1      29.794  38.373  49.932  1.00  0.00     0.189 HD
HETATM   10  C   UNL     1      27.659  40.818  49.288  1.00  0.00     0.045 A 
HETATM   11  C   UNL     1      28.641  39.239  47.780  1.00  0.00     0.032 A 
HETATM   12  C   UNL     1      27.461  41.232  50.675  1.00  0.00     0.220 C 
HETATM   13  C   UNL     1      27.023  41.473  48.230  1.00  0.00     0.018 A 
HETATM   14  O   UNL     1      26.558  41.981  51.011  1.00  0.00    -0.285 OA
HETATM   15  C   UNL     1      27.216  41.010  46.932  1.00  0.00     0.001 A 
HETATM   16  C   UNL     1      28.019  39.891  46.707  1.00  0.00     0.002 A 
ENDBRANCH   2   5
BRANCH   1  17
HETATM   17  C   UNL     1      29.379  43.413  54.102  1.00  0.00     0.065 A 
HETATM   18  C   UNL     1      30.434  43.123  54.977  1.00  0.00     0.038 A 
HETATM   19  C   UNL     1      30.760  44.000  56.016  1.00  0.00    -0.059 A 
HETATM   20  C   UNL     1      31.881  43.671  56.958  1.00  0.00     0.048 C 
HETATM   21  C   UNL     1      29.995  45.155  56.192  1.00  0.00     0.020 A 
HETATM   22  C   UNL     1      28.936  45.453  55.318  1.00  0.00    -0.005 A 
HETATM   23  C   UNL     1      28.620  44.585  54.251  1.00  0.00     0.093 A 
HETATM   24  C   UNL     1      28.167  46.613  55.480  1.00  0.00     0.015 A 
HETATM   25  N   UNL     1      27.607  44.854  53.391  1.00  0.00    -0.258 NA
HETATM   26  C   UNL     1      26.888  45.983  53.582  1.00  0.00     0.117 A 
HETATM   27  C   UNL     1      27.125  46.884  54.601  1.00  0.00     0.020 A 
ENDBRANCH   1  17
TORSDOF 2
ENDMDL
MODEL 4
REMARK VINA RESULT:      -9.4      4.547      6.875
REMARK  2 active torsions:
REMARK  status: ('A' for Active; 'I' for Inactive)
REMARK    1  A    between atoms: C_4  and  N_5 
REMARK       I    between atoms: N_5  and  C_6 
REMARK    2  A    between atoms: C_6  and  C_7 
ROOT
HETATM    1  N   UNL     1      28.245  43.996  52.839  1.00  0.00    -0.319 N 
HETATM    2  C   UNL     1      27.159  43.321  52.329  1.00  0.00     0.280 C 
HETATM    3  O   UNL     1      25.984  43.435  52.640  1.00  0.00    -0.265 OA
HETATM    4  H   UNL     1      29.128  43.919  52.333  1.00  0.00     0.169 HD
ENDROOT
BRANCH   2   5
HETATM    5  C   UNL     1      27.523  42.369  51.208  1.00  0.00     0.195 C 
HETATM    6  N   UNL     1      27.017  42.614  50.026  1.00  0.00    -0.165 NA
HETATM    7  N   UNL     1      27.305  41.771  48.991  1.00  0.00    -0.277 N 
HETATM    8  C   UNL     1      27.795  40.472  49.214  1.00  0.00     0.064 A 
HETATM    9  H   UNL     1      26.717  41.870  48.162  1.00  0.00     0.189 HD
HETATM   10  C   UNL     1      28.386  40.133  50.430  1.00  0.00     0.045 A 
HETATM   11  C   UNL     1      27.817  39.525  48.185  1.00  0.00     0.032 A 
HETATM   12  C   UNL     1      28.415  41.179  51.449  1.00  0.00     0.220 C 
HETATM   13  C   UNL     1      28.952  38.875  50.656  1.00  0.00     0.018 A 
HETATM   14  O   UNL     1      29.137  41.116  52.431  1.00  0.00    -0.285 OA
HETATM   15  C   UNL     1      28.931  37.929  49.634  1.00  0.00     0.001 A 
HETATM   16  C   UNL     1      28.370  38.256  48.398  1.00  0.00     0.002 A 
ENDBRANCH   2   5
BRANCH   1  17
HETATM   17  C   UNL     1      28.278  44.886  53.939  1.00  0.00     0.065 A 
HETATM   18  C   UNL     1      27.407  45.977  54.056  1.00  0.00     0.038 A 
HETATM   19  C   UNL     1      27.453  46.809  55.178  1.00  0.00    -0.059 A 
HETATM   20  C   UNL     1      26.526  47.984  55.286  1.00  0.00     0.048 C 
HETATM   21  C   UNL     1      28.406  46.559  56.168  1.00  0.00     0.020 A 
HETATM   22  C   UNL     1      29.284  45.467  56.058  1.00  0.00    -0.005 A 
HETATM   23  C   UNL     1      29.223  44.608  54.939  1.00  0.00     0.093 A 
HETATM   24  C   UNL     1      30.239  45.202  57.048  1.00  0.00     0.015 A 
HETATM   25  N   UNL     1      30.055  43.544  54.815  1.00  0.00    -0.258 NA
HETATM   26  C   UNL     1      30.963  43.323  55.790  1.00  0.00     0.117 A 
HETATM   27  C   UNL     1      31.094  44.115  56.914  1.00  0.00     0.020 A 
ENDBRANCH   1  17
TORSDOF 2
ENDMDL
MODEL 5
REMARK VINA RESULT:      -9.4      2.509      8.135
REMARK  2 active torsions:
REMARK  status: ('A' for Active; 'I' for Inactive)
REMARK    1  A    between atoms: C_4  and  N_5 
REMARK       I    between atoms: N_5  and  C_6 
REMARK    2  A    between atoms: C_6  and  C_7 
ROOT
HETATM    1  N   UNL     1      26.593  45.441  52.017  1.00  0.00    -0.319 N 
HETATM    2  C   UNL     1      26.643  45.686  53.370  1.00  0.00     0.280 C 
HETATM    3  O   UNL     1      25.787  46.192  54.080  1.00  0.00    -0.265 OA
HETATM    4  H   UNL     1      27.314  44.839  51.620  1.00  0.00     0.169 HD
ENDROOT
BRANCH   2   5
HETATM    5  C   UNL     1      27.924  45.198  54.017  1.00  0.00     0.195 C 
HETATM    6  N   UNL     1      28.448  44.095  53.547  1.00  0.00    -0.165 NA
HETATM    7  N   UNL     1      29.594  43.609  54.111  1.00  0.00    -0.277 N 
HETATM    8  C   UNL     1      30.015  44.019  55.389  1.00  0.00     0.064 A 
HETATM    9  H   UNL     1      29.834  42.647  53.870  1.00  0.00     0.189 HD
HETATM   10  C   UNL     1      29.538  45.202  55.952  1.00  0.00     0.045 A 
HETATM   11  C   UNL     1      31.014  43.320  56.075  1.00  0.00     0.032 A 
HETATM   12  C   UNL     1      28.556  45.943  55.163  1.00  0.00     0.220 C 
HETATM   13  C   UNL     1      29.995  45.675  57.185  1.00  0.00     0.018 A 
HETATM   14  O   UNL     1      28.276  47.108  55.396  1.00  0.00    -0.285 OA
HETATM   15  C   UNL     1      30.962  44.948  57.873  1.00  0.00     0.001 A 
HETATM   16  C   UNL     1      31.475  43.775  57.317  1.00  0.00     0.002 A 
ENDBRANCH   2   5
BRANCH   1  17
HETATM   17  C   UNL     1      25.593  45.838  51.097  1.00  0.00     0.065 A 
HETATM   18  C   UNL     1      25.473  47.154  50.631  1.00  0.00     0.038 A 
HETATM   19  C   UNL     1      24.492  47.492  49.694  1.00  0.00    -0.059 A 
HETATM   20  C   UNL     1      24.362  48.908  49.214  1.00  0.00     0.048 C 
HETATM   21  C   UNL     1      23.607  46.505  49.254  1.00  0.00     0.020 A 
HETATM   22  C   UNL     1      23.721  45.183  49.717  1.00  0.00    -0.005 A 
HETATM   23  C   UNL     1      24.728  44.831  50.642  1.00  0.00     0.093 A 
HETATM   24  C   UNL     1      22.844  44.183  49.277  1.00  0.00     0.015 A 
HETATM   25  N   UNL     1      24.861  43.561  51.097  1.00  0.00    -0.258 NA
HETATM   26  C   UNL     1      23.994  42.625  50.650  1.00  0.00     0.117 A 
HETATM   27  C   UNL     1      22.979  42.884  49.750  1.00  0.00     0.020 A 
ENDBRANCH   1  17
TORSDOF 2
ENDMDL
MODEL 6
REMARK VINA RESULT:      -9.2      4.251      7.907
REMARK  2 active torsions:
REMARK  status: ('A' for Active; 'I' for Inactive)
REMARK    1  A    between atoms: C_4  and  N_5 
REMARK       I    between atoms: N_5  and  C_6 
REMARK    2  A    between atoms: C_6  and  C_7 
ROOT
HETATM    1  N   UNL     1      26.600  42.488  51.718  1.00  0.00    -0.319 N 
HETATM    2  C   UNL     1      27.316  43.663  51.719  1.00  0.00     0.280 C 
HETATM    3  O   UNL     1      27.527  44.421  50.785  1.00  0.00    -0.265 OA
HETATM    4  H   UNL     1      26.361  42.080  52.623  1.00  0.00     0.169 HD
ENDROOT
BRANCH   2   5
HETATM    5  C   UNL     1      27.843  44.038  53.090  1.00  0.00     0.195 C 
HETATM    6  N   UNL     1      27.414  45.160  53.609  1.00  0.00    -0.165 NA
HETATM    7  N   UNL     1      27.875  45.546  54.836  1.00  0.00    -0.277 N 
HETATM    8  C   UNL     1      29.050  45.001  55.384  1.00  0.00     0.064 A 
HETATM    9  H   UNL     1      27.693  46.517  55.093  1.00  0.00     0.189 HD
HETATM   10  C   UNL     1      29.558  43.789  54.919  1.00  0.00     0.045 A 
HETATM   11  C   UNL     1      29.669  45.592  56.490  1.00  0.00     0.032 A 
HETATM   12  C   UNL     1      28.833  43.164  53.816  1.00  0.00     0.220 C 
HETATM   13  C   UNL     1      30.679  43.183  55.494  1.00  0.00     0.018 A 
HETATM   14  O   UNL     1      28.992  41.994  53.507  1.00  0.00    -0.285 OA
HETATM   15  C   UNL     1      31.307  43.804  56.570  1.00  0.00     0.001 A 
HETATM   16  C   UNL     1      30.799  45.004  57.071  1.00  0.00     0.002 A 
ENDBRANCH   2   5
BRANCH   1  17
HETATM   17  C   UNL     1      26.047  41.806  50.608  1.00  0.00     0.065 A 
HETATM   18  C   UNL     1      24.836  42.185  50.013  1.00  0.00     0.038 A 
HETATM   19  C   UNL     1      24.347  41.504  48.895  1.00  0.00    -0.059 A 
HETATM   20  C   UNL     1      23.041  41.907  48.277  1.00  0.00     0.048 C 
HETATM   21  C   UNL     1      25.066  40.414  48.398  1.00  0.00     0.020 A 
HETATM   22  C   UNL     1      26.281  40.028  48.988  1.00  0.00    -0.005 A 
HETATM   23  C   UNL     1      26.793  40.730  50.101  1.00  0.00     0.093 A 
HETATM   24  C   UNL     1      27.015  38.942  48.493  1.00  0.00     0.015 A 
HETATM   25  N   UNL     1      27.967  40.380  50.683  1.00  0.00    -0.258 NA
HETATM   26  C   UNL     1      28.643  39.326  50.177  1.00  0.00     0.117 A 
HETATM   27  C   UNL     1      28.214  38.582  49.096  1.00  0.00     0.020 A 
ENDBRANCH   1  17
TORSDOF 2
ENDMDL
MODEL 7
REMARK VINA RESULT:      -9.2      2.444      3.806
REMARK  2 active torsions:
REMARK  status: ('A' for Active; 'I' for Inactive)
REMARK    1  A    between atoms: C_4  and  N_5 
REMARK       I    between atoms: N_5  and  C_6 
REMARK    2  A    between atoms: C_6  and  C_7 
ROOT
HETATM    1  N   UNL     1      24.464  47.104  49.831  1.00  0.00    -0.319 N 
HETATM    2  C   UNL     1      24.879  48.300  49.291  1.00  0.00     0.280 C 
HETATM    3  O   UNL     1      26.020  48.670  49.061  1.00  0.00    -0.265 OA
HETATM    4  H   UNL     1      23.469  46.883  49.776  1.00  0.00     0.169 HD
ENDROOT
BRANCH   2   5
HETATM    5  C   UNL     1      23.731  49.210  48.905  1.00  0.00     0.195 C 
HETATM    6  N   UNL     1      23.811  50.464  49.274  1.00  0.00    -0.165 NA
HETATM    7  N   UNL     1      22.789  51.316  48.963  1.00  0.00    -0.277 N 
HETATM    8  C   UNL     1      21.515  50.838  48.610  1.00  0.00     0.064 A 
HETATM    9  H   UNL     1      22.790  52.208  49.458  1.00  0.00     0.189 HD
HETATM   10  C   UNL     1      21.342  49.527  48.168  1.00  0.00     0.045 A 
HETATM   11  C   UNL     1      20.411  51.696  48.572  1.00  0.00     0.032 A 
HETATM   12  C   UNL     1      22.538  48.689  48.146  1.00  0.00     0.220 C 
HETATM   13  C   UNL     1      20.102  49.045  47.737  1.00  0.00     0.018 A 
HETATM   14  O   UNL     1      22.589  47.637  47.529  1.00  0.00    -0.285 OA
HETATM   15  C   UNL     1      19.004  49.901  47.742  1.00  0.00     0.001 A 
HETATM   16  C   UNL     1      19.159  51.226  48.153  1.00  0.00     0.002 A 
ENDBRANCH   2   5
BRANCH   1  17
HETATM   17  C   UNL     1      25.262  46.070  50.374  1.00  0.00     0.065 A 
HETATM   18  C   UNL     1      25.638  44.939  49.638  1.00  0.00     0.038 A 
HETATM   19  C   UNL     1      26.459  43.959  50.205  1.00  0.00    -0.059 A 
HETATM   20  C   UNL     1      26.841  42.743  49.414  1.00  0.00     0.048 C 
HETATM   21  C   UNL     1      26.872  44.107  51.531  1.00  0.00     0.020 A 
HETATM   22  C   UNL     1      26.499  45.238  52.276  1.00  0.00    -0.005 A 
HETATM   23  C   UNL     1      25.693  46.244  51.699  1.00  0.00     0.093 A 
HETATM   24  C   UNL     1      26.914  45.401  53.604  1.00  0.00     0.015 A 
HETATM   25  N   UNL     1      25.327  47.348  52.396  1.00  0.00    -0.258 NA
HETATM   26  C   UNL     1      25.747  47.466  53.675  1.00  0.00     0.117 A 
HETATM   27  C   UNL     1      26.532  46.530  54.318  1.00  0.00     0.020 A 
ENDBRANCH   1  17
TORSDOF 2
ENDMDL
MODEL 8
REMARK VINA RESULT:      -9.2      3.717      5.716
REMARK  2 active torsions:
REMARK  status: ('A' for Active; 'I' for Inactive)
REMARK    1  A    between atoms: C_4  and  N_5 
REMARK       I    between atoms: N_5  and  C_6 
REMARK    2  A    between atoms: C_6  and  C_7 
ROOT
HETATM    1  N   UNL     1      22.924  47.679  49.636  1.00  0.00    -0.319 N 
HETATM    2  C   UNL     1      22.141  47.633  48.505  1.00  0.00     0.280 C 
HETATM    3  O   UNL     1      22.348  47.024  47.466  1.00  0.00    -0.265 OA
HETATM    4  H   UNL     1      22.510  48.079  50.479  1.00  0.00     0.169 HD
ENDROOT
BRANCH   2   5
HETATM    5  C   UNL     1      20.850  48.414  48.642  1.00  0.00     0.195 C 
HETATM    6  N   UNL     1      19.736  47.778  48.382  1.00  0.00    -0.165 NA
HETATM    7  N   UNL     1      18.549  48.447  48.476  1.00  0.00    -0.277 N 
HETATM    8  C   UNL     1      18.494  49.852  48.466  1.00  0.00     0.064 A 
HETATM    9  H   UNL     1      17.744  47.985  48.051  1.00  0.00     0.189 HD
HETATM   10  C   UNL     1      19.624  50.612  48.770  1.00  0.00     0.045 A 
HETATM   11  C   UNL     1      17.282  50.524  48.276  1.00  0.00     0.032 A 
HETATM   12  C   UNL     1      20.850  49.866  49.043  1.00  0.00     0.220 C 
HETATM   13  C   UNL     1      19.583  52.007  48.844  1.00  0.00     0.018 A 
HETATM   14  O   UNL     1      21.817  50.373  49.588  1.00  0.00    -0.285 OA
HETATM   15  C   UNL     1      18.377  52.663  48.615  1.00  0.00     0.001 A 
HETATM   16  C   UNL     1      17.227  51.922  48.336  1.00  0.00     0.002 A 
ENDBRANCH   2   5
BRANCH   1  17
HETATM   17  C   UNL     1      24.219  47.141  49.821  1.00  0.00     0.065 A 
HETATM   18  C   UNL     1      24.438  45.849  50.315  1.00  0.00     0.038 A 
HETATM   19  C   UNL     1      25.736  45.346  50.447  1.00  0.00    -0.059 A 
HETATM   20  C   UNL     1      25.960  43.967  50.993  1.00  0.00     0.048 C 
HETATM   21  C   UNL     1      26.817  46.165  50.112  1.00  0.00     0.020 A 
HETATM   22  C   UNL     1      26.605  47.462  49.616  1.00  0.00    -0.005 A 
HETATM   23  C   UNL     1      25.296  47.965  49.454  1.00  0.00     0.093 A 
HETATM   24  C   UNL     1      27.681  48.290  49.268  1.00  0.00     0.015 A 
HETATM   25  N   UNL     1      25.067  49.211  48.971  1.00  0.00    -0.258 NA
HETATM   26  C   UNL     1      26.132  49.979  48.649  1.00  0.00     0.117 A 
HETATM   27  C   UNL     1      27.444  49.569  48.779  1.00  0.00     0.020 A 
ENDBRANCH   1  17
TORSDOF 2
ENDMDL
MODEL 9
REMARK VINA RESULT:      -8.9      3.968      5.385
REMARK  2 active torsions:
REMARK  status: ('A' for Active; 'I' for Inactive)
REMARK    1  A    between atoms: C_4  and  N_5 
REMARK       I    between atoms: N_5  and  C_6 
REMARK    2  A    between atoms: C_6  and  C_7 
ROOT
HETATM    1  N   UNL     1      26.640  44.786  52.573  1.00  0.00    -0.319 N 
HETATM    2  C   UNL     1      25.462  44.075  52.555  1.00  0.00     0.280 C 
HETATM    3  O   UNL     1      24.624  43.977  53.439  1.00  0.00    -0.265 OA
HETATM    4  H   UNL     1      27.126  44.915  51.685  1.00  0.00     0.169 HD
ENDROOT
BRANCH   2   5
HETATM    5  C   UNL     1      25.200  43.388  51.230  1.00  0.00     0.195 C 
HETATM    6  N   UNL     1      23.963  43.056  50.962  1.00  0.00    -0.165 NA
HETATM    7  N   UNL     1      23.684  42.419  49.786  1.00  0.00    -0.277 N 
HETATM    8  C   UNL     1      24.689  41.778  49.041  1.00  0.00     0.064 A 
HETATM    9  H   UNL     1      22.762  41.984  49.725  1.00  0.00     0.189 HD
HETATM   10  C   UNL     1      26.033  42.099  49.231  1.00  0.00     0.045 A 
HETATM   11  C   UNL     1      24.364  40.897  48.004  1.00  0.00     0.032 A 
HETATM   12  C   UNL     1      26.321  43.085  50.269  1.00  0.00     0.220 C 
HETATM   13  C   UNL     1      27.049  41.536  48.454  1.00  0.00     0.018 A 
HETATM   14  O   UNL     1      27.396  43.658  50.348  1.00  0.00    -0.285 OA
HETATM   15  C   UNL     1      26.712  40.631  47.451  1.00  0.00     0.001 A 
HETATM   16  C   UNL     1      25.371  40.316  47.222  1.00  0.00     0.002 A 
ENDBRANCH   2   5
BRANCH   1  17
HETATM   17  C   UNL     1      27.230  45.467  53.664  1.00  0.00     0.065 A 
HETATM   18  C   UNL     1      26.717  46.667  54.174  1.00  0.00     0.038 A 
HETATM   19  C   UNL     1      27.312  47.286  55.277  1.00  0.00    -0.059 A 
HETATM   20  C   UNL     1      26.764  48.580  55.803  1.00  0.00     0.048 C 
HETATM   21  C   UNL     1      28.450  46.708  55.844  1.00  0.00     0.020 A 
HETATM   22  C   UNL     1      28.970  45.505  55.339  1.00  0.00    -0.005 A 
HETATM   23  C   UNL     1      28.357  44.862  54.243  1.00  0.00     0.093 A 
HETATM   24  C   UNL     1      30.107  44.912  55.906  1.00  0.00     0.015 A 
HETATM   25  N   UNL     1      28.837  43.697  53.743  1.00  0.00    -0.258 NA
HETATM   26  C   UNL     1      29.936  43.158  54.316  1.00  0.00     0.117 A 
HETATM   27  C   UNL     1      30.600  43.722  55.387  1.00  0.00     0.020 A 
ENDBRANCH   1  17
TORSDOF 2
ENDMDL
MODEL 10
REMARK VINA RESULT:      -8.9      1.754      7.972
REMARK  2 active torsions:
REMARK  status: ('A' for Active; 'I' for Inactive)
REMARK    1  A    between atoms: C_4  and  N_5 
REMARK       I    between atoms: N_5  and  C_6 
REMARK    2  A    between atoms: C_6  and  C_7 
ROOT
HETATM    1  N   UNL     1      23.924  47.065  50.371  1.00  0.00    -0.319 N 
HETATM    2  C   UNL     1      25.265  46.753  50.369  1.00  0.00     0.280 C 
HETATM    3  O   UNL     1      26.022  46.677  49.414  1.00  0.00    -0.265 OA
HETATM    4  H   UNL     1      23.490  47.273  51.270  1.00  0.00     0.169 HD
ENDROOT
BRANCH   2   5
HETATM    5  C   UNL     1      25.828  46.540  51.759  1.00  0.00     0.195 C 
HETATM    6  N   UNL     1      25.705  47.524  52.613  1.00  0.00    -0.165 NA
HETATM    7  N   UNL     1      26.214  47.382  53.872  1.00  0.00    -0.277 N 
HETATM    8  C   UNL     1      27.177  46.401  54.170  1.00  0.00     0.064 A 
HETATM    9  H   UNL     1      26.296  48.241  54.418  1.00  0.00     0.189 HD
HETATM   10  C   UNL     1      27.350  45.296  53.337  1.00  0.00     0.045 A 
HETATM   11  C   UNL     1      27.897  46.440  55.368  1.00  0.00     0.032 A 
HETATM   12  C   UNL     1      26.518  45.254  52.137  1.00  0.00     0.220 C 
HETATM   13  C   UNL     1      28.243  44.266  53.645  1.00  0.00     0.018 A 
HETATM   14  O   UNL     1      26.361  44.235  51.484  1.00  0.00    -0.285 OA
HETATM   15  C   UNL     1      28.981  44.338  54.823  1.00  0.00     0.001 A 
HETATM   16  C   UNL     1      28.804  45.421  55.686  1.00  0.00     0.002 A 
ENDBRANCH   2   5
BRANCH   1  17
HETATM   17  C   UNL     1      23.070  47.239  49.257  1.00  0.00     0.065 A 
HETATM   18  C   UNL     1      22.656  46.175  48.446  1.00  0.00     0.038 A 
HETATM   19  C   UNL     1      21.782  46.390  47.376  1.00  0.00    -0.059 A 
HETATM   20  C   UNL     1      21.359  45.245  46.504  1.00  0.00     0.048 C 
HETATM   21  C   UNL     1      21.353  47.691  47.104  1.00  0.00     0.020 A 
HETATM   22  C   UNL     1      21.763  48.764  47.913  1.00  0.00    -0.005 A 
HETATM   23  C   UNL     1      22.624  48.548  49.011  1.00  0.00     0.093 A 
HETATM   24  C   UNL     1      21.332  50.072  47.655  1.00  0.00     0.015 A 
HETATM   25  N   UNL     1      23.027  49.567  49.809  1.00  0.00    -0.258 NA
HETATM   26  C   UNL     1      22.591  50.814  49.526  1.00  0.00     0.117 A 
HETATM   27  C   UNL     1      21.752  51.115  48.471  1.00  0.00     0.020 A 
ENDBRANCH   1  17
TORSDOF 2
ENDMDL
