MODEL 1
REMARK VINA RESULT:      -9.4      0.000      0.000
REMARK  5 active torsions:
REMARK  status: ('A' for Active; 'I' for Inactive)
REMARK    1  A    between atoms: C_4  and  C_5 
REMARK    2  A    between atoms: C_5  and  N_6 
REMARK    3  A    between atoms: C_9  and  N_10 
REMARK       I    between atoms: N_10  and  C_11 
REMARK       I    between atoms: C_11  and  N_12 
REMARK    4  A    between atoms: N_12  and  N_13 
REMARK       I    between atoms: N_13  and  C_14 
REMARK    5  A    between atoms: C_14  and  C_15 
ROOT
HETATM    1  N   UNL     1      24.841  46.380  50.134  1.00  0.00    -0.336 N 
HETATM    2  C   UNL     1      24.248  47.590  49.905  1.00  0.00     0.335 C 
HETATM    3  N   UNL     1      22.893  47.492  49.715  1.00  0.00    -0.249 N 
HETATM    4  O   UNL     1      24.885  48.638  49.814  1.00  0.00    -0.246 OA
HETATM    5  H   UNL     1      24.214  45.586  50.205  1.00  0.00     0.164 HD
HETATM    6  H   UNL     1      22.380  46.760  50.208  1.00  0.00     0.192 HD
ENDROOT
BRANCH   1   7
HETATM    7  C   UNL     1      26.257  46.125  50.436  1.00  0.00     0.112 C 
HETATM    8  C   UNL     1      26.578  45.830  51.922  1.00  0.00     0.260 C 
HETATM    9  N   UNL     1      26.215  44.412  52.287  1.00  0.00    -0.065 N 
HETATM   10  H   UNL     1      25.200  44.340  52.059  1.00  0.00     0.280 HD
HETATM   11  C   UNL     1      26.901  43.392  51.431  1.00  0.00     0.235 C 
HETATM   12  C   UNL     1      26.531  43.624  49.971  1.00  0.00     0.030 C 
HETATM   13  C   UNL     1      26.845  45.046  49.516  1.00  0.00     0.028 C 
BRANCH   9  14
HETATM   14  C   UNL     1      26.259  44.122  53.765  1.00  0.00     0.273 C 
BRANCH  14  15
HETATM   15  C   UNL     1      27.628  44.159  54.390  1.00  0.00    -0.033 A 
HETATM   16  C   UNL     1      28.048  45.283  55.119  1.00  0.00     0.009 A 
HETATM   17  C   UNL     1      29.325  45.328  55.682  1.00  0.00     0.001 A 
HETATM   18  C   UNL     1      30.193  44.250  55.527  1.00  0.00     0.000 A 
HETATM   19  C   UNL     1      29.785  43.125  54.815  1.00  0.00     0.001 A 
HETATM   20  C   UNL     1      28.509  43.076  54.251  1.00  0.00     0.009 A 
ENDBRANCH  14  15
ENDBRANCH   9  14
ENDBRANCH   1   7
BRANCH   3  21
HETATM   21  N   UNL     1      22.163  48.689  49.609  1.00  0.00    -0.261 N 
HETATM   22  C   UNL     1      20.851  48.626  49.166  1.00  0.00     0.277 C 
HETATM   23  O   UNL     1      20.363  47.539  48.848  1.00  0.00    -0.265 OA
HETATM   24  H   UNL     1      22.576  49.549  49.957  1.00  0.00     0.190 HD
BRANCH  22  25
HETATM   25  C   UNL     1      20.125  49.884  49.108  1.00  0.00     0.075 A 
HETATM   26  S   UNL     1      18.592  50.093  49.851  1.00  0.00    -0.077 SA
HETATM   27  C   UNL     1      18.500  51.707  49.348  1.00  0.00     0.052 A 
HETATM   28 BR   UNL     1      17.048  52.821  49.747  1.00  0.00    -0.043 Br
HETATM   29  C   UNL     1      19.590  52.111  48.623  1.00  0.00     0.028 A 
HETATM   30  C   UNL     1      20.534  51.050  48.481  1.00  0.00     0.026 A 
ENDBRANCH  22  25
ENDBRANCH   3  21
TORSDOF 5
ENDMDL
MODEL 2
REMARK VINA RESULT:      -8.9      4.786     10.609
REMARK  5 active torsions:
REMARK  status: ('A' for Active; 'I' for Inactive)
REMARK    1  A    between atoms: C_4  and  C_5 
REMARK    2  A    between atoms: C_5  and  N_6 
REMARK    3  A    between atoms: C_9  and  N_10 
REMARK       I    between atoms: N_10  and  C_11 
REMARK       I    between atoms: C_11  and  N_12 
REMARK    4  A    between atoms: N_12  and  N_13 
REMARK       I    between atoms: N_13  and  C_14 
REMARK    5  A    between atoms: C_14  and  C_15 
ROOT
HETATM    1  N   UNL     1      24.116  47.569  50.446  1.00  0.00    -0.336 N 
HETATM    2  C   UNL     1      25.268  46.922  50.795  1.00  0.00     0.335 C 
HETATM    3  N   UNL     1      25.369  46.707  52.147  1.00  0.00    -0.249 N 
HETATM    4  O   UNL     1      26.143  46.633  49.982  1.00  0.00    -0.246 OA
HETATM    5  H   UNL     1      23.459  47.741  51.200  1.00  0.00     0.164 HD
HETATM    6  H   UNL     1      24.515  46.549  52.684  1.00  0.00     0.192 HD
ENDROOT
BRANCH   1   7
HETATM    7  C   UNL     1      23.659  47.903  49.090  1.00  0.00     0.112 C 
HETATM    8  C   UNL     1      22.125  47.866  48.876  1.00  0.00     0.260 C 
HETATM    9  N   UNL     1      21.466  49.102  49.434  1.00  0.00    -0.065 N 
HETATM   10  H   UNL     1      21.745  49.111  50.439  1.00  0.00     0.280 HD
HETATM   11  C   UNL     1      22.007  50.370  48.848  1.00  0.00     0.235 C 
HETATM   12  C   UNL     1      23.503  50.457  49.120  1.00  0.00     0.030 C 
HETATM   13  C   UNL     1      24.254  49.232  48.605  1.00  0.00     0.028 C 
BRANCH   9  14
HETATM   14  C   UNL     1      19.962  49.030  49.494  1.00  0.00     0.273 C 
BRANCH  14  15
HETATM   15  C   UNL     1      19.238  50.275  49.057  1.00  0.00    -0.033 A 
HETATM   16  C   UNL     1      18.851  51.242  49.999  1.00  0.00     0.009 A 
HETATM   17  C   UNL     1      18.162  52.387  49.598  1.00  0.00     0.001 A 
HETATM   18  C   UNL     1      17.854  52.582  48.254  1.00  0.00     0.000 A 
HETATM   19  C   UNL     1      18.240  51.636  47.308  1.00  0.00     0.001 A 
HETATM   20  C   UNL     1      18.931  50.489  47.705  1.00  0.00     0.009 A 
ENDBRANCH  14  15
ENDBRANCH   9  14
ENDBRANCH   1   7
BRANCH   3  21
HETATM   21  N   UNL     1      26.448  45.928  52.602  1.00  0.00    -0.261 N 
HETATM   22  C   UNL     1      26.882  46.098  53.908  1.00  0.00     0.277 C 
HETATM   23  O   UNL     1      26.340  46.940  54.628  1.00  0.00    -0.265 OA
HETATM   24  H   UNL     1      26.810  45.192  52.003  1.00  0.00     0.190 HD
BRANCH  22  25
HETATM   25  C   UNL     1      27.975  45.245  54.344  1.00  0.00     0.075 A 
HETATM   26  S   UNL     1      28.985  45.655  55.671  1.00  0.00    -0.077 SA
HETATM   27  C   UNL     1      29.887  44.233  55.501  1.00  0.00     0.052 A 
HETATM   28 BR   UNL     1      31.320  43.792  56.624  1.00  0.00    -0.043 Br
HETATM   29  C   UNL     1      29.463  43.442  54.466  1.00  0.00     0.028 A 
HETATM   30  C   UNL     1      28.353  44.032  53.791  1.00  0.00     0.026 A 
ENDBRANCH  22  25
ENDBRANCH   3  21
TORSDOF 5
ENDMDL
MODEL 3
REMARK VINA RESULT:      -8.5      2.211      3.408
REMARK  5 active torsions:
REMARK  status: ('A' for Active; 'I' for Inactive)
REMARK    1  A    between atoms: C_4  and  C_5 
REMARK    2  A    between atoms: C_5  and  N_6 
REMARK    3  A    between atoms: C_9  and  N_10 
REMARK       I    between atoms: N_10  and  C_11 
REMARK       I    between atoms: C_11  and  N_12 
REMARK    4  A    between atoms: N_12  and  N_13 
REMARK       I    between atoms: N_13  and  C_14 
REMARK    5  A    between atoms: C_14  and  C_15 
ROOT
HETATM    1  N   UNL     1      26.478  45.276  51.525  1.00  0.00    -0.336 N 
HETATM    2  C   UNL     1      25.301  45.852  51.135  1.00  0.00     0.335 C 
HETATM    3  N   UNL     1      25.427  47.193  50.869  1.00  0.00    -0.249 N 
HETATM    4  O   UNL     1      24.237  45.237  51.099  1.00  0.00    -0.246 OA
HETATM    5  H   UNL     1      27.294  45.877  51.501  1.00  0.00     0.164 HD
HETATM    6  H   UNL     1      26.311  47.537  50.491  1.00  0.00     0.192 HD
ENDROOT
BRANCH   1   7
HETATM    7  C   UNL     1      26.717  43.858  51.827  1.00  0.00     0.112 C 
HETATM    8  C   UNL     1      28.178  43.492  52.190  1.00  0.00     0.260 C 
HETATM    9  N   UNL     1      28.500  43.879  53.612  1.00  0.00    -0.065 N 
HETATM   10  H   UNL     1      28.306  44.903  53.650  1.00  0.00     0.280 HD
HETATM   11  C   UNL     1      27.579  43.251  54.613  1.00  0.00     0.235 C 
HETATM   12  C   UNL     1      26.144  43.667  54.313  1.00  0.00     0.030 C 
HETATM   13  C   UNL     1      25.734  43.331  52.882  1.00  0.00     0.028 C 
BRANCH   9  14
HETATM   14  C   UNL     1      29.962  43.790  53.963  1.00  0.00     0.273 C 
BRANCH  14  15
HETATM   15  C   UNL     1      30.312  44.174  55.375  1.00  0.00    -0.033 A 
HETATM   16  C   UNL     1      31.102  43.327  56.170  1.00  0.00     0.009 A 
HETATM   17  C   UNL     1      31.410  43.673  57.486  1.00  0.00     0.001 A 
HETATM   18  C   UNL     1      30.939  44.869  58.022  1.00  0.00     0.000 A 
HETATM   19  C   UNL     1      30.164  45.723  57.242  1.00  0.00     0.001 A 
HETATM   20  C   UNL     1      29.854  45.381  55.924  1.00  0.00     0.009 A 
ENDBRANCH  14  15
ENDBRANCH   9  14
ENDBRANCH   1   7
BRANCH   3  21
HETATM   21  N   UNL     1      24.311  47.856  50.328  1.00  0.00    -0.261 N 
HETATM   22  C   UNL     1      24.523  48.829  49.364  1.00  0.00     0.277 C 
HETATM   23  O   UNL     1      25.674  49.113  49.024  1.00  0.00    -0.265 OA
HETATM   24  H   UNL     1      23.380  47.534  50.577  1.00  0.00     0.190 HD
BRANCH  22  25
HETATM   25  C   UNL     1      23.338  49.459  48.808  1.00  0.00     0.075 A 
HETATM   26  S   UNL     1      22.024  48.550  48.180  1.00  0.00    -0.077 SA
HETATM   27  C   UNL     1      21.157  49.953  47.796  1.00  0.00     0.052 A 
HETATM   28 BR   UNL     1      19.458  49.921  47.009  1.00  0.00    -0.043 Br
HETATM   29  C   UNL     1      21.823  51.106  48.118  1.00  0.00     0.028 A 
HETATM   30  C   UNL     1      23.092  50.819  48.704  1.00  0.00     0.026 A 
ENDBRANCH  22  25
ENDBRANCH   3  21
TORSDOF 5
ENDMDL
MODEL 4
REMARK VINA RESULT:      -8.5      1.750      2.273
REMARK  5 active torsions:
REMARK  status: ('A' for Active; 'I' for Inactive)
REMARK    1  A    between atoms: C_4  and  C_5 
REMARK    2  A    between atoms: C_5  and  N_6 
REMARK    3  A    between atoms: C_9  and  N_10 
REMARK       I    between atoms: N_10  and  C_11 
REMARK       I    between atoms: C_11  and  N_12 
REMARK    4  A    between atoms: N_12  and  N_13 
REMARK       I    between atoms: N_13  and  C_14 
REMARK    5  A    between atoms: C_14  and  C_15 
ROOT
HETATM    1  N   UNL     1      25.463  45.881  50.127  1.00  0.00    -0.336 N 
HETATM    2  C   UNL     1      24.277  46.371  49.655  1.00  0.00     0.335 C 
HETATM    3  N   UNL     1      23.874  47.509  50.308  1.00  0.00    -0.249 N 
HETATM    4  O   UNL     1      23.620  45.804  48.785  1.00  0.00    -0.246 OA
HETATM    5  H   UNL     1      25.924  46.443  50.834  1.00  0.00     0.164 HD
HETATM    6  H   UNL     1      24.585  48.151  50.660  1.00  0.00     0.192 HD
ENDROOT
BRANCH   1   7
HETATM    7  C   UNL     1      26.210  44.722  49.621  1.00  0.00     0.112 C 
HETATM    8  C   UNL     1      27.494  44.362  50.410  1.00  0.00     0.260 C 
HETATM    9  N   UNL     1      27.164  43.629  51.686  1.00  0.00    -0.065 N 
HETATM   10  H   UNL     1      26.529  44.279  52.198  1.00  0.00     0.280 HD
HETATM   11  C   UNL     1      26.370  42.380  51.455  1.00  0.00     0.235 C 
HETATM   12  C   UNL     1      25.066  42.729  50.749  1.00  0.00     0.030 C 
HETATM   13  C   UNL     1      25.303  43.495  49.450  1.00  0.00     0.028 C 
BRANCH   9  14
HETATM   14  C   UNL     1      28.329  43.467  52.628  1.00  0.00     0.273 C 
BRANCH  14  15
HETATM   15  C   UNL     1      28.373  44.442  53.773  1.00  0.00    -0.033 A 
HETATM   16  C   UNL     1      29.396  44.369  54.733  1.00  0.00     0.009 A 
HETATM   17  C   UNL     1      29.427  45.259  55.807  1.00  0.00     0.001 A 
HETATM   18  C   UNL     1      28.442  46.235  55.933  1.00  0.00     0.000 A 
HETATM   19  C   UNL     1      27.427  46.326  54.983  1.00  0.00     0.001 A 
HETATM   20  C   UNL     1      27.393  45.437  53.907  1.00  0.00     0.009 A 
ENDBRANCH  14  15
ENDBRANCH   9  14
ENDBRANCH   1   7
BRANCH   3  21
HETATM   21  N   UNL     1      22.738  48.175  49.813  1.00  0.00    -0.261 N 
HETATM   22  C   UNL     1      22.905  49.421  49.229  1.00  0.00     0.277 C 
HETATM   23  O   UNL     1      24.027  49.930  49.183  1.00  0.00    -0.265 OA
HETATM   24  H   UNL     1      21.849  47.685  49.799  1.00  0.00     0.190 HD
BRANCH  22  25
HETATM   25  C   UNL     1      21.709  50.053  48.698  1.00  0.00     0.075 A 
HETATM   26  S   UNL     1      20.643  49.244  47.622  1.00  0.00    -0.077 SA
HETATM   27  C   UNL     1      19.615  50.586  47.535  1.00  0.00     0.052 A 
HETATM   28 BR   UNL     1      18.050  50.607  46.506  1.00  0.00    -0.043 Br
HETATM   29  C   UNL     1      20.043  51.647  48.288  1.00  0.00     0.028 A 
HETATM   30  C   UNL     1      21.262  51.338  48.963  1.00  0.00     0.026 A 
ENDBRANCH  22  25
ENDBRANCH   3  21
TORSDOF 5
ENDMDL
MODEL 5
REMARK VINA RESULT:      -8.3      1.957      2.550
REMARK  5 active torsions:
REMARK  status: ('A' for Active; 'I' for Inactive)
REMARK    1  A    between atoms: C_4  and  C_5 
REMARK    2  A    between atoms: C_5  and  N_6 
REMARK    3  A    between atoms: C_9  and  N_10 
REMARK       I    between atoms: N_10  and  C_11 
REMARK       I    between atoms: C_11  and  N_12 
REMARK    4  A    between atoms: N_12  and  N_13 
REMARK       I    between atoms: N_13  and  C_14 
REMARK    5  A    between atoms: C_14  and  C_15 
ROOT
HETATM    1  N   UNL     1      23.655  46.479  49.574  1.00  0.00    -0.336 N 
HETATM    2  C   UNL     1      22.850  47.317  48.855  1.00  0.00     0.335 C 
HETATM    3  N   UNL     1      22.327  48.334  49.615  1.00  0.00    -0.249 N 
HETATM    4  O   UNL     1      22.577  47.128  47.672  1.00  0.00    -0.246 OA
HETATM    5  H   UNL     1      23.822  46.744  50.538  1.00  0.00     0.164 HD
HETATM    6  H   UNL     1      22.880  48.701  50.390  1.00  0.00     0.192 HD
ENDROOT
BRANCH   1   7
HETATM    7  C   UNL     1      24.420  45.330  49.069  1.00  0.00     0.112 C 
HETATM    8  C   UNL     1      25.773  45.068  49.777  1.00  0.00     0.260 C 
HETATM    9  N   UNL     1      25.569  44.385  51.106  1.00  0.00    -0.065 N 
HETATM   10  H   UNL     1      24.943  45.030  51.633  1.00  0.00     0.280 HD
HETATM   11  C   UNL     1      24.823  43.091  50.992  1.00  0.00     0.235 C 
HETATM   12  C   UNL     1      23.457  43.347  50.367  1.00  0.00     0.030 C 
HETATM   13  C   UNL     1      23.563  44.058  49.021  1.00  0.00     0.028 C 
BRANCH   9  14
HETATM   14  C   UNL     1      26.805  44.322  51.966  1.00  0.00     0.273 C 
BRANCH  14  15
HETATM   15  C   UNL     1      26.877  45.344  53.068  1.00  0.00    -0.033 A 
HETATM   16  C   UNL     1      26.021  46.458  53.065  1.00  0.00     0.009 A 
HETATM   17  C   UNL     1      26.102  47.418  54.075  1.00  0.00     0.001 A 
HETATM   18  C   UNL     1      27.032  47.274  55.101  1.00  0.00     0.000 A 
HETATM   19  C   UNL     1      27.880  46.170  55.122  1.00  0.00     0.001 A 
HETATM   20  C   UNL     1      27.802  45.207  54.114  1.00  0.00     0.009 A 
ENDBRANCH  14  15
ENDBRANCH   9  14
ENDBRANCH   1   7
BRANCH   3  21
HETATM   21  N   UNL     1      21.595  49.333  48.948  1.00  0.00    -0.261 N 
HETATM   22  C   UNL     1      20.220  49.369  49.116  1.00  0.00     0.277 C 
HETATM   23  O   UNL     1      19.666  48.516  49.814  1.00  0.00    -0.265 OA
HETATM   24  H   UNL     1      22.099  50.062  48.451  1.00  0.00     0.190 HD
BRANCH  22  25
HETATM   25  C   UNL     1      19.512  50.442  48.438  1.00  0.00     0.075 A 
HETATM   26  S   UNL     1      18.507  50.160  47.075  1.00  0.00    -0.077 SA
HETATM   27  C   UNL     1      18.111  51.801  46.952  1.00  0.00     0.052 A 
HETATM   28 BR   UNL     1      16.959  52.478  45.638  1.00  0.00    -0.043 Br
HETATM   29  C   UNL     1      18.715  52.578  47.905  1.00  0.00     0.028 A 
HETATM   30  C   UNL     1      19.532  51.787  48.768  1.00  0.00     0.026 A 
ENDBRANCH  22  25
ENDBRANCH   3  21
TORSDOF 5
ENDMDL
MODEL 6
REMARK VINA RESULT:      -8.0      6.214      8.894
REMARK  5 active torsions:
REMARK  status: ('A' for Active; 'I' for Inactive)
REMARK    1  A    between atoms: C_4  and  C_5 
REMARK    2  A    between atoms: C_5  and  N_6 
REMARK    3  A    between atoms: C_9  and  N_10 
REMARK       I    between atoms: N_10  and  C_11 
REMARK       I    between atoms: C_11  and  N_12 
REMARK    4  A    between atoms: N_12  and  N_13 
REMARK       I    between atoms: N_13  and  C_14 
REMARK    5  A    between atoms: C_14  and  C_15 
ROOT
HETATM    1  N   UNL     1      25.584  44.294  49.838  1.00  0.00    -0.336 N 
HETATM    2  C   UNL     1      25.401  43.007  49.415  1.00  0.00     0.335 C 
HETATM    3  N   UNL     1      26.391  42.579  48.567  1.00  0.00    -0.249 N 
HETATM    4  O   UNL     1      24.414  42.340  49.718  1.00  0.00    -0.246 OA
HETATM    5  H   UNL     1      26.444  44.740  49.538  1.00  0.00     0.164 HD
HETATM    6  H   UNL     1      27.336  42.943  48.693  1.00  0.00     0.192 HD
ENDROOT
BRANCH   1   7
HETATM    7  C   UNL     1      24.755  45.044  50.791  1.00  0.00     0.112 C 
HETATM    8  C   UNL     1      25.108  44.839  52.285  1.00  0.00     0.260 C 
HETATM    9  N   UNL     1      26.328  45.639  52.672  1.00  0.00    -0.065 N 
HETATM   10  H   UNL     1      27.070  45.306  52.020  1.00  0.00     0.280 HD
HETATM   11  C   UNL     1      26.176  47.105  52.407  1.00  0.00     0.235 C 
HETATM   12  C   UNL     1      25.905  47.327  50.924  1.00  0.00     0.030 C 
HETATM   13  C   UNL     1      24.694  46.536  50.435  1.00  0.00     0.028 C 
BRANCH   9  14
HETATM   14  C   UNL     1      26.884  45.302  54.031  1.00  0.00     0.273 C 
BRANCH  14  15
HETATM   15  C   UNL     1      28.161  44.505  54.027  1.00  0.00    -0.033 A 
HETATM   16  C   UNL     1      28.524  43.745  52.904  1.00  0.00     0.009 A 
HETATM   17  C   UNL     1      29.697  42.990  52.907  1.00  0.00     0.001 A 
HETATM   18  C   UNL     1      30.523  42.989  54.028  1.00  0.00     0.000 A 
HETATM   19  C   UNL     1      30.181  43.746  55.145  1.00  0.00     0.001 A 
HETATM   20  C   UNL     1      29.009  44.503  55.146  1.00  0.00     0.009 A 
ENDBRANCH  14  15
ENDBRANCH   9  14
ENDBRANCH   1   7
BRANCH   3  21
HETATM   21  N   UNL     1      26.377  41.227  48.180  1.00  0.00    -0.261 N 
HETATM   22  C   UNL     1      27.440  40.741  47.436  1.00  0.00     0.277 C 
HETATM   23  O   UNL     1      28.353  41.501  47.105  1.00  0.00    -0.265 OA
HETATM   24  H   UNL     1      25.647  40.620  48.543  1.00  0.00     0.190 HD
BRANCH  22  25
HETATM   25  C   UNL     1      27.399  39.329  47.093  1.00  0.00     0.075 A 
HETATM   26  S   UNL     1      26.546  38.179  48.040  1.00  0.00    -0.077 SA
HETATM   27  C   UNL     1      26.980  36.913  47.003  1.00  0.00     0.052 A 
HETATM   28 BR   UNL     1      26.440  35.140  47.273  1.00  0.00    -0.043 Br
HETATM   29  C   UNL     1      27.761  37.317  45.952  1.00  0.00     0.028 A 
HETATM   30  C   UNL     1      28.008  38.721  46.006  1.00  0.00     0.026 A 
ENDBRANCH  22  25
ENDBRANCH   3  21
TORSDOF 5
ENDMDL
MODEL 7
REMARK VINA RESULT:      -8.0      4.744     10.649
REMARK  5 active torsions:
REMARK  status: ('A' for Active; 'I' for Inactive)
REMARK    1  A    between atoms: C_4  and  C_5 
REMARK    2  A    between atoms: C_5  and  N_6 
REMARK    3  A    between atoms: C_9  and  N_10 
REMARK       I    between atoms: N_10  and  C_11 
REMARK       I    between atoms: C_11  and  N_12 
REMARK    4  A    between atoms: N_12  and  N_13 
REMARK       I    between atoms: N_13  and  C_14 
REMARK    5  A    between atoms: C_14  and  C_15 
ROOT
HETATM    1  N   UNL     1      23.676  47.904  49.862  1.00  0.00    -0.336 N 
HETATM    2  C   UNL     1      24.911  47.487  50.272  1.00  0.00     0.335 C 
HETATM    3  N   UNL     1      24.892  46.908  51.517  1.00  0.00    -0.249 N 
HETATM    4  O   UNL     1      25.932  47.679  49.615  1.00  0.00    -0.246 OA
HETATM    5  H   UNL     1      22.904  47.676  50.480  1.00  0.00     0.164 HD
HETATM    6  H   UNL     1      24.060  46.391  51.805  1.00  0.00     0.192 HD
ENDROOT
BRANCH   1   7
HETATM    7  C   UNL     1      23.324  48.506  48.569  1.00  0.00     0.112 C 
HETATM    8  C   UNL     1      21.819  48.469  48.205  1.00  0.00     0.260 C 
HETATM    9  N   UNL     1      21.051  49.537  48.944  1.00  0.00    -0.065 N 
HETATM   10  H   UNL     1      21.241  49.339  49.950  1.00  0.00     0.280 HD
HETATM   11  C   UNL     1      21.578  50.916  48.691  1.00  0.00     0.235 C 
HETATM   12  C   UNL     1      23.038  50.989  49.119  1.00  0.00     0.030 C 
HETATM   13  C   UNL     1      23.892  49.925  48.433  1.00  0.00     0.028 C 
BRANCH   9  14
HETATM   14  C   UNL     1      19.554  49.408  48.841  1.00  0.00     0.273 C 
BRANCH  14  15
HETATM   15  C   UNL     1      18.991  49.507  47.449  1.00  0.00    -0.033 A 
HETATM   16  C   UNL     1      18.625  48.349  46.743  1.00  0.00     0.009 A 
HETATM   17  C   UNL     1      18.122  48.439  45.444  1.00  0.00     0.001 A 
HETATM   18  C   UNL     1      17.975  49.684  44.838  1.00  0.00     0.000 A 
HETATM   19  C   UNL     1      18.324  50.841  45.529  1.00  0.00     0.001 A 
HETATM   20  C   UNL     1      18.827  50.755  46.829  1.00  0.00     0.009 A 
ENDBRANCH  14  15
ENDBRANCH   9  14
ENDBRANCH   1   7
BRANCH   3  21
HETATM   21  N   UNL     1      26.083  46.319  51.978  1.00  0.00    -0.261 N 
HETATM   22  C   UNL     1      26.019  45.058  52.549  1.00  0.00     0.277 C 
HETATM   23  O   UNL     1      24.928  44.494  52.668  1.00  0.00    -0.265 OA
HETATM   24  H   UNL     1      26.966  46.783  51.787  1.00  0.00     0.190 HD
BRANCH  22  25
HETATM   25  C   UNL     1      27.280  44.475  52.977  1.00  0.00     0.075 A 
HETATM   26  S   UNL     1      27.879  44.656  54.575  1.00  0.00    -0.077 SA
HETATM   27  C   UNL     1      29.256  43.735  54.229  1.00  0.00     0.052 A 
HETATM   28 BR   UNL     1      30.586  43.369  55.496  1.00  0.00    -0.043 Br
HETATM   29  C   UNL     1      29.298  43.288  52.934  1.00  0.00     0.028 A 
HETATM   30  C   UNL     1      28.149  43.721  52.205  1.00  0.00     0.026 A 
ENDBRANCH  22  25
ENDBRANCH   3  21
TORSDOF 5
ENDMDL
MODEL 8
REMARK VINA RESULT:      -7.9      5.211      9.661
REMARK  5 active torsions:
REMARK  status: ('A' for Active; 'I' for Inactive)
REMARK    1  A    between atoms: C_4  and  C_5 
REMARK    2  A    between atoms: C_5  and  N_6 
REMARK    3  A    between atoms: C_9  and  N_10 
REMARK       I    between atoms: N_10  and  C_11 
REMARK       I    between atoms: C_11  and  N_12 
REMARK    4  A    between atoms: N_12  and  N_13 
REMARK       I    between atoms: N_13  and  C_14 
REMARK    5  A    between atoms: C_14  and  C_15 
ROOT
HETATM    1  N   UNL     1      23.501  44.479  48.704  1.00  0.00    -0.336 N 
HETATM    2  C   UNL     1      24.105  44.357  49.924  1.00  0.00     0.335 C 
HETATM    3  N   UNL     1      25.414  44.768  49.913  1.00  0.00    -0.249 N 
HETATM    4  O   UNL     1      23.542  43.867  50.900  1.00  0.00    -0.246 OA
HETATM    5  H   UNL     1      24.057  44.914  47.976  1.00  0.00     0.164 HD
HETATM    6  H   UNL     1      25.686  45.525  49.285  1.00  0.00     0.192 HD
ENDROOT
BRANCH   1   7
HETATM    7  C   UNL     1      22.098  44.192  48.372  1.00  0.00     0.112 C 
HETATM    8  C   UNL     1      21.098  45.340  48.657  1.00  0.00     0.260 C 
HETATM    9  N   UNL     1      21.164  46.399  47.585  1.00  0.00    -0.065 N 
HETATM   10  H   UNL     1      22.161  46.706  47.588  1.00  0.00     0.280 HD
HETATM   11  C   UNL     1      20.906  45.860  46.212  1.00  0.00     0.235 C 
HETATM   12  C   UNL     1      21.933  44.783  45.888  1.00  0.00     0.030 C 
HETATM   13  C   UNL     1      21.953  43.672  46.935  1.00  0.00     0.028 C 
BRANCH   9  14
HETATM   14  C   UNL     1      20.412  47.662  47.915  1.00  0.00     0.273 C 
BRANCH  14  15
HETATM   15  C   UNL     1      21.262  48.890  48.102  1.00  0.00    -0.033 A 
HETATM   16  C   UNL     1      22.660  48.815  47.985  1.00  0.00     0.009 A 
HETATM   17  C   UNL     1      23.450  49.948  48.179  1.00  0.00     0.001 A 
HETATM   18  C   UNL     1      22.855  51.169  48.486  1.00  0.00     0.000 A 
HETATM   19  C   UNL     1      21.470  51.261  48.595  1.00  0.00     0.001 A 
HETATM   20  C   UNL     1      20.676  50.129  48.402  1.00  0.00     0.009 A 
ENDBRANCH  14  15
ENDBRANCH   9  14
ENDBRANCH   1   7
BRANCH   3  21
HETATM   21  N   UNL     1      26.091  44.816  51.145  1.00  0.00    -0.261 N 
HETATM   22  C   UNL     1      27.124  43.919  51.367  1.00  0.00     0.277 C 
HETATM   23  O   UNL     1      27.409  43.087  50.503  1.00  0.00    -0.265 OA
HETATM   24  H   UNL     1      25.878  45.568  51.794  1.00  0.00     0.190 HD
BRANCH  22  25
HETATM   25  C   UNL     1      27.818  44.032  52.639  1.00  0.00     0.075 A 
HETATM   26  S   UNL     1      29.287  43.203  52.960  1.00  0.00    -0.077 SA
HETATM   27  C   UNL     1      29.386  43.856  54.518  1.00  0.00     0.052 A 
HETATM   28 BR   UNL     1      30.791  43.476  55.697  1.00  0.00    -0.043 Br
HETATM   29  C   UNL     1      28.340  44.685  54.826  1.00  0.00     0.028 A 
HETATM   30  C   UNL     1      27.427  44.785  53.734  1.00  0.00     0.026 A 
ENDBRANCH  22  25
ENDBRANCH   3  21
TORSDOF 5
ENDMDL
MODEL 9
REMARK VINA RESULT:      -7.8      4.523     10.684
REMARK  5 active torsions:
REMARK  status: ('A' for Active; 'I' for Inactive)
REMARK    1  A    between atoms: C_4  and  C_5 
REMARK    2  A    between atoms: C_5  and  N_6 
REMARK    3  A    between atoms: C_9  and  N_10 
REMARK       I    between atoms: N_10  and  C_11 
REMARK       I    between atoms: C_11  and  N_12 
REMARK    4  A    between atoms: N_12  and  N_13 
REMARK       I    between atoms: N_13  and  C_14 
REMARK    5  A    between atoms: C_14  and  C_15 
ROOT
HETATM    1  N   UNL     1      22.874  48.490  49.177  1.00  0.00    -0.336 N 
HETATM    2  C   UNL     1      23.983  47.863  49.673  1.00  0.00     0.335 C 
HETATM    3  N   UNL     1      23.751  46.550  50.000  1.00  0.00    -0.249 N 
HETATM    4  O   UNL     1      25.049  48.445  49.864  1.00  0.00    -0.246 OA
HETATM    5  H   UNL     1      22.056  47.905  49.046  1.00  0.00     0.164 HD
HETATM    6  H   UNL     1      23.070  46.022  49.453  1.00  0.00     0.192 HD
ENDROOT
BRANCH   1   7
HETATM    7  C   UNL     1      22.781  49.868  48.675  1.00  0.00     0.112 C 
HETATM    8  C   UNL     1      21.812  50.079  47.485  1.00  0.00     0.260 C 
HETATM    9  N   UNL     1      20.377  50.120  47.951  1.00  0.00    -0.065 N 
HETATM   10  H   UNL     1      20.241  49.211  48.442  1.00  0.00     0.280 HD
HETATM   11  C   UNL     1      20.125  51.182  48.976  1.00  0.00     0.235 C 
HETATM   12  C   UNL     1      21.017  50.941  50.187  1.00  0.00     0.030 C 
HETATM   13  C   UNL     1      22.494  50.863  49.808  1.00  0.00     0.028 C 
BRANCH   9  14
HETATM   14  C   UNL     1      19.363  50.069  46.838  1.00  0.00     0.273 C 
BRANCH  14  15
HETATM   15  C   UNL     1      17.983  49.627  47.242  1.00  0.00    -0.033 A 
HETATM   16  C   UNL     1      17.781  48.368  47.831  1.00  0.00     0.009 A 
HETATM   17  C   UNL     1      16.498  47.949  48.187  1.00  0.00     0.001 A 
HETATM   18  C   UNL     1      15.405  48.782  47.965  1.00  0.00     0.000 A 
HETATM   19  C   UNL     1      15.592  50.037  47.391  1.00  0.00     0.001 A 
HETATM   20  C   UNL     1      16.873  50.460  47.034  1.00  0.00     0.009 A 
ENDBRANCH  14  15
ENDBRANCH   9  14
ENDBRANCH   1   7
BRANCH   3  21
HETATM   21  N   UNL     1      24.856  45.773  50.389  1.00  0.00    -0.261 N 
HETATM   22  C   UNL     1      24.624  44.518  50.931  1.00  0.00     0.277 C 
HETATM   23  O   UNL     1      23.466  44.125  51.088  1.00  0.00    -0.265 OA
HETATM   24  H   UNL     1      25.792  46.102  50.168  1.00  0.00     0.190 HD
BRANCH  22  25
HETATM   25  C   UNL     1      25.797  43.737  51.284  1.00  0.00     0.075 A 
HETATM   26  S   UNL     1      27.092  44.389  52.203  1.00  0.00    -0.077 SA
HETATM   27  C   UNL     1      27.940  42.925  52.161  1.00  0.00     0.052 A 
HETATM   28 BR   UNL     1      29.605  42.684  52.985  1.00  0.00    -0.043 Br
HETATM   29  C   UNL     1      27.288  41.940  51.467  1.00  0.00     0.028 A 
HETATM   30  C   UNL     1      26.042  42.413  50.954  1.00  0.00     0.026 A 
ENDBRANCH  22  25
ENDBRANCH   3  21
TORSDOF 5
ENDMDL
MODEL 10
REMARK VINA RESULT:      -7.6     14.959     17.656
REMARK  5 active torsions:
REMARK  status: ('A' for Active; 'I' for Inactive)
REMARK    1  A    between atoms: C_4  and  C_5 
REMARK    2  A    between atoms: C_5  and  N_6 
REMARK    3  A    between atoms: C_9  and  N_10 
REMARK       I    between atoms: N_10  and  C_11 
REMARK       I    between atoms: C_11  and  N_12 
REMARK    4  A    between atoms: N_12  and  N_13 
REMARK       I    between atoms: N_13  and  C_14 
REMARK    5  A    between atoms: C_14  and  C_15 
ROOT
HETATM    1  N   UNL     1      35.416  52.387  43.202  1.00  0.00    -0.336 N 
HETATM    2  C   UNL     1      36.665  52.390  43.757  1.00  0.00     0.335 C 
HETATM    3  N   UNL     1      37.032  53.623  44.234  1.00  0.00    -0.249 N 
HETATM    4  O   UNL     1      37.396  51.402  43.759  1.00  0.00    -0.246 OA
HETATM    5  H   UNL     1      34.897  53.256  43.273  1.00  0.00     0.164 HD
HETATM    6  H   UNL     1      36.309  54.241  44.606  1.00  0.00     0.192 HD
ENDROOT
BRANCH   1   7
HETATM    7  C   UNL     1      34.689  51.234  42.653  1.00  0.00     0.112 C 
HETATM    8  C   UNL     1      33.156  51.245  42.877  1.00  0.00     0.260 C 
HETATM    9  N   UNL     1      32.470  52.176  41.908  1.00  0.00    -0.065 N 
HETATM   10  H   UNL     1      32.921  53.100  42.077  1.00  0.00     0.280 HD
HETATM   11  C   UNL     1      32.748  51.839  40.476  1.00  0.00     0.235 C 
HETATM   12  C   UNL     1      34.249  51.900  40.222  1.00  0.00     0.030 C 
HETATM   13  C   UNL     1      35.032  51.001  41.175  1.00  0.00     0.028 C 
BRANCH   9  14
HETATM   14  C   UNL     1      31.019  52.436  42.221  1.00  0.00     0.273 C 
BRANCH  14  15
HETATM   15  C   UNL     1      30.070  52.276  41.064  1.00  0.00    -0.033 A 
HETATM   16  C   UNL     1      29.436  51.045  40.827  1.00  0.00     0.009 A 
HETATM   17  C   UNL     1      28.572  50.889  39.743  1.00  0.00     0.001 A 
HETATM   18  C   UNL     1      28.326  51.960  38.887  1.00  0.00     0.000 A 
HETATM   19  C   UNL     1      28.940  53.188  39.116  1.00  0.00     0.001 A 
HETATM   20  C   UNL     1      29.805  53.349  40.200  1.00  0.00     0.009 A 
ENDBRANCH  14  15
ENDBRANCH   9  14
ENDBRANCH   1   7
BRANCH   3  21
HETATM   21  N   UNL     1      38.240  53.710  44.949  1.00  0.00    -0.261 N 
HETATM   22  C   UNL     1      38.325  54.613  45.997  1.00  0.00     0.277 C 
HETATM   23  O   UNL     1      37.362  55.336  46.261  1.00  0.00    -0.265 OA
HETATM   24  H   UNL     1      38.978  53.040  44.750  1.00  0.00     0.190 HD
BRANCH  22  25
HETATM   25  C   UNL     1      39.580  54.640  46.729  1.00  0.00     0.075 A 
HETATM   26  S   UNL     1      40.919  55.588  46.222  1.00  0.00    -0.077 SA
HETATM   27  C   UNL     1      41.855  55.079  47.537  1.00  0.00     0.052 A 
HETATM   28 BR   UNL     1      43.612  55.663  47.826  1.00  0.00    -0.043 Br
HETATM   29  C   UNL     1      41.201  54.203  48.362  1.00  0.00     0.028 A 
HETATM   30  C   UNL     1      39.879  53.945  47.891  1.00  0.00     0.026 A 
ENDBRANCH  22  25
ENDBRANCH   3  21
TORSDOF 5
ENDMDL
