MODEL 1
REMARK VINA RESULT:      -9.6      0.000      0.000
REMARK  5 active torsions:
REMARK  status: ('A' for Active; 'I' for Inactive)
REMARK    1  A    between atoms: O_2  and  C_3 
REMARK    2  A    between atoms: C_4  and  C_5 
REMARK    3  A    between atoms: C_9  and  N_10 
REMARK       I    between atoms: N_10  and  C_11 
REMARK    4  A    between atoms: C_11  and  C_12 
REMARK    5  A    between atoms: C_12  and  C_13 
ROOT
HETATM    1  C   UNL     1      25.122  46.739  49.986  1.00  0.00     0.093 A 
HETATM    2  N   UNL     1      24.277  45.720  50.206  1.00  0.00    -0.172 NA
HETATM    3  N   UNL     1      25.043  44.766  50.763  1.00  0.00    -0.262 N 
HETATM    4  H   UNL     1      24.627  43.877  51.030  1.00  0.00     0.191 HD
HETATM    5  C   UNL     1      26.343  45.151  50.959  1.00  0.00     0.126 A 
HETATM    6  C   UNL     1      26.435  46.415  50.433  1.00  0.00     0.084 A 
ENDROOT
BRANCH   5   7
HETATM    7  N   UNL     1      27.299  44.389  51.595  1.00  0.00    -0.311 N 
HETATM    8  C   UNL     1      27.096  43.872  52.859  1.00  0.00     0.236 C 
HETATM    9  O   UNL     1      26.046  43.916  53.492  1.00  0.00    -0.272 OA
HETATM   10  H   UNL     1      28.210  44.299  51.164  1.00  0.00     0.170 HD
BRANCH   8  11
HETATM   11  C   UNL     1      28.336  43.265  53.466  1.00  0.00     0.068 A 
HETATM   12  C   UNL     1      28.398  41.743  53.564  1.00  0.00     0.026 A 
HETATM   13  C   UNL     1      29.255  42.448  52.561  1.00  0.00     0.026 A 
BRANCH  11  14
HETATM   14  C   UNL     1      28.947  44.065  54.615  1.00  0.00    -0.040 A 
HETATM   15  C   UNL     1      30.182  43.687  55.174  1.00  0.00     0.010 A 
HETATM   16  C   UNL     1      30.733  44.375  56.260  1.00  0.00     0.024 A 
HETATM   17  C   UNL     1      30.052  45.457  56.808  1.00  0.00     0.034 A 
HETATM   18 CL   UNL     1      30.719  46.299  58.151  1.00  0.00    -0.084 Cl
HETATM   19  C   UNL     1      28.829  45.856  56.277  1.00  0.00     0.024 A 
HETATM   20  C   UNL     1      28.285  45.165  55.191  1.00  0.00     0.010 A 
ENDBRANCH  11  14
ENDBRANCH   8  11
ENDBRANCH   5   7
BRANCH   1  21
HETATM   21  C   UNL     1      24.678  48.020  49.440  1.00  0.00     0.029 A 
HETATM   22  C   UNL     1      25.518  48.859  48.691  1.00  0.00     0.081 A 
HETATM   23  C   UNL     1      25.053  50.089  48.208  1.00  0.00     0.039 A 
HETATM   24  C   UNL     1      23.733  50.477  48.443  1.00  0.00     0.026 A 
HETATM   25  C   UNL     1      22.890  49.641  49.170  1.00  0.00     0.035 A 
HETATM   26  C   UNL     1      23.352  48.424  49.670  1.00  0.00     0.040 A 
HETATM   27 CL   UNL     1      21.264  50.121  49.467  1.00  0.00    -0.084 Cl
BRANCH  22  28
HETATM   28  O   UNL     1      26.839  48.549  48.497  1.00  0.00    -0.355 OA
HETATM   29  C   UNL     1      27.673  49.579  49.031  1.00  0.00     0.210 C 
ENDBRANCH  22  28
ENDBRANCH   1  21
TORSDOF 5
ENDMDL
MODEL 2
REMARK VINA RESULT:      -9.6      5.377      9.036
REMARK  5 active torsions:
REMARK  status: ('A' for Active; 'I' for Inactive)
REMARK    1  A    between atoms: O_2  and  C_3 
REMARK    2  A    between atoms: C_4  and  C_5 
REMARK    3  A    between atoms: C_9  and  N_10 
REMARK       I    between atoms: N_10  and  C_11 
REMARK    4  A    between atoms: C_11  and  C_12 
REMARK    5  A    between atoms: C_12  and  C_13 
ROOT
HETATM    1  C   UNL     1      28.664  42.780  53.851  1.00  0.00     0.093 A 
HETATM    2  N   UNL     1      27.505  42.127  54.026  1.00  0.00    -0.172 NA
HETATM    3  N   UNL     1      27.608  41.047  53.232  1.00  0.00    -0.262 N 
HETATM    4  H   UNL     1      26.842  40.379  53.188  1.00  0.00     0.191 HD
HETATM    5  C   UNL     1      28.814  40.951  52.590  1.00  0.00     0.126 A 
HETATM    6  C   UNL     1      29.509  42.079  52.944  1.00  0.00     0.084 A 
ENDROOT
BRANCH   5   7
HETATM    7  N   UNL     1      29.197  39.892  51.796  1.00  0.00    -0.311 N 
HETATM    8  C   UNL     1      28.642  39.678  50.550  1.00  0.00     0.236 C 
HETATM    9  O   UNL     1      27.870  40.433  49.968  1.00  0.00    -0.272 OA
HETATM   10  H   UNL     1      29.822  39.199  52.184  1.00  0.00     0.170 HD
BRANCH   8  11
HETATM   11  C   UNL     1      29.026  38.352  49.941  1.00  0.00     0.068 A 
HETATM   12  C   UNL     1      30.511  38.093  49.700  1.00  0.00     0.026 A 
HETATM   13  C   UNL     1      29.810  37.365  50.802  1.00  0.00     0.026 A 
BRANCH  11  14
HETATM   14  C   UNL     1      28.044  37.813  48.903  1.00  0.00    -0.040 A 
HETATM   15  C   UNL     1      26.964  36.999  49.293  1.00  0.00     0.010 A 
HETATM   16  C   UNL     1      26.084  36.452  48.353  1.00  0.00     0.024 A 
HETATM   17  C   UNL     1      26.274  36.712  47.000  1.00  0.00     0.034 A 
HETATM   18 CL   UNL     1      25.203  36.033  45.838  1.00  0.00    -0.084 Cl
HETATM   19  C   UNL     1      27.332  37.513  46.582  1.00  0.00     0.024 A 
HETATM   20  C   UNL     1      28.207  38.057  47.527  1.00  0.00     0.010 A 
ENDBRANCH  11  14
ENDBRANCH   8  11
ENDBRANCH   5   7
BRANCH   1  21
HETATM   21  C   UNL     1      28.996  43.997  54.591  1.00  0.00     0.029 A 
HETATM   22  C   UNL     1      30.069  44.069  55.493  1.00  0.00     0.081 A 
HETATM   23  C   UNL     1      30.333  45.250  56.196  1.00  0.00     0.039 A 
HETATM   24  C   UNL     1      29.547  46.382  55.980  1.00  0.00     0.026 A 
HETATM   25  C   UNL     1      28.491  46.323  55.073  1.00  0.00     0.035 A 
HETATM   26  C   UNL     1      28.211  45.144  54.384  1.00  0.00     0.040 A 
HETATM   27 CL   UNL     1      27.515  47.716  54.809  1.00  0.00    -0.084 Cl
BRANCH  22  28
HETATM   28  O   UNL     1      30.823  42.961  55.788  1.00  0.00    -0.355 OA
HETATM   29  C   UNL     1      31.478  43.129  57.046  1.00  0.00     0.210 C 
ENDBRANCH  22  28
ENDBRANCH   1  21
TORSDOF 5
ENDMDL
MODEL 3
REMARK VINA RESULT:      -9.4      5.066      9.075
REMARK  5 active torsions:
REMARK  status: ('A' for Active; 'I' for Inactive)
REMARK    1  A    between atoms: O_2  and  C_3 
REMARK    2  A    between atoms: C_4  and  C_5 
REMARK    3  A    between atoms: C_9  and  N_10 
REMARK       I    between atoms: N_10  and  C_11 
REMARK    4  A    between atoms: C_11  and  C_12 
REMARK    5  A    between atoms: C_12  and  C_13 
ROOT
HETATM    1  C   UNL     1      28.733  42.610  53.680  1.00  0.00     0.093 A 
HETATM    2  N   UNL     1      27.609  41.919  53.929  1.00  0.00    -0.172 NA
HETATM    3  N   UNL     1      27.489  41.089  52.878  1.00  0.00    -0.262 N 
HETATM    4  H   UNL     1      26.701  40.447  52.831  1.00  0.00     0.191 HD
HETATM    5  C   UNL     1      28.523  41.181  51.985  1.00  0.00     0.126 A 
HETATM    6  C   UNL     1      29.330  42.183  52.460  1.00  0.00     0.084 A 
ENDROOT
BRANCH   5   7
HETATM    7  N   UNL     1      28.678  40.374  50.879  1.00  0.00    -0.311 N 
HETATM    8  C   UNL     1      27.595  39.839  50.211  1.00  0.00     0.236 C 
HETATM    9  O   UNL     1      26.416  40.101  50.428  1.00  0.00    -0.272 OA
HETATM   10  H   UNL     1      29.612  40.083  50.620  1.00  0.00     0.170 HD
BRANCH   8  11
HETATM   11  C   UNL     1      27.976  38.810  49.176  1.00  0.00     0.068 A 
HETATM   12  C   UNL     1      29.084  37.824  49.540  1.00  0.00     0.026 A 
HETATM   13  C   UNL     1      27.670  37.343  49.471  1.00  0.00     0.026 A 
BRANCH  11  14
HETATM   14  C   UNL     1      27.925  39.302  47.731  1.00  0.00    -0.040 A 
HETATM   15  C   UNL     1      27.592  38.420  46.685  1.00  0.00     0.010 A 
HETATM   16  C   UNL     1      27.590  38.837  45.350  1.00  0.00     0.024 A 
HETATM   17  C   UNL     1      27.925  40.151  45.039  1.00  0.00     0.034 A 
HETATM   18 CL   UNL     1      27.936  40.668  43.399  1.00  0.00    -0.084 Cl
HETATM   19  C   UNL     1      28.258  41.047  46.050  1.00  0.00     0.024 A 
HETATM   20  C   UNL     1      28.257  40.623  47.382  1.00  0.00     0.010 A 
ENDBRANCH  11  14
ENDBRANCH   8  11
ENDBRANCH   5   7
BRANCH   1  21
HETATM   21  C   UNL     1      29.271  43.592  54.620  1.00  0.00     0.029 A 
HETATM   22  C   UNL     1      28.733  44.880  54.764  1.00  0.00     0.081 A 
HETATM   23  C   UNL     1      29.298  45.794  55.661  1.00  0.00     0.039 A 
HETATM   24  C   UNL     1      30.388  45.418  56.447  1.00  0.00     0.026 A 
HETATM   25  C   UNL     1      30.916  44.136  56.321  1.00  0.00     0.035 A 
HETATM   26  C   UNL     1      30.370  43.227  55.416  1.00  0.00     0.040 A 
HETATM   27 CL   UNL     1      32.265  43.672  57.285  1.00  0.00    -0.084 Cl
BRANCH  22  28
HETATM   28  O   UNL     1      27.707  45.313  53.962  1.00  0.00    -0.355 OA
HETATM   29  C   UNL     1      27.227  46.580  54.416  1.00  0.00     0.210 C 
ENDBRANCH  22  28
ENDBRANCH   1  21
TORSDOF 5
ENDMDL
MODEL 4
REMARK VINA RESULT:      -9.3      5.225      9.257
REMARK  5 active torsions:
REMARK  status: ('A' for Active; 'I' for Inactive)
REMARK    1  A    between atoms: O_2  and  C_3 
REMARK    2  A    between atoms: C_4  and  C_5 
REMARK    3  A    between atoms: C_9  and  N_10 
REMARK       I    between atoms: N_10  and  C_11 
REMARK    4  A    between atoms: C_11  and  C_12 
REMARK    5  A    between atoms: C_12  and  C_13 
ROOT
HETATM    1  C   UNL     1      28.816  42.601  53.862  1.00  0.00     0.093 A 
HETATM    2  N   UNL     1      27.561  42.125  53.878  1.00  0.00    -0.172 NA
HETATM    3  N   UNL     1      27.573  41.124  52.980  1.00  0.00    -0.262 N 
HETATM    4  H   UNL     1      26.724  40.592  52.807  1.00  0.00     0.191 HD
HETATM    5  C   UNL     1      28.805  40.901  52.424  1.00  0.00     0.126 A 
HETATM    6  C   UNL     1      29.626  41.865  52.951  1.00  0.00     0.084 A 
ENDROOT
BRANCH   5   7
HETATM    7  N   UNL     1      29.097  39.875  51.551  1.00  0.00    -0.311 N 
HETATM    8  C   UNL     1      28.452  39.748  50.336  1.00  0.00     0.236 C 
HETATM    9  O   UNL     1      27.670  40.559  49.850  1.00  0.00    -0.272 OA
HETATM   10  H   UNL     1      29.722  39.142  51.858  1.00  0.00     0.170 HD
BRANCH   8  11
HETATM   11  C   UNL     1      28.747  38.446  49.634  1.00  0.00     0.068 A 
HETATM   12  C   UNL     1      30.193  38.185  49.215  1.00  0.00     0.026 A 
HETATM   13  C   UNL     1      29.610  37.416  50.358  1.00  0.00     0.026 A 
BRANCH  11  14
HETATM   14  C   UNL     1      27.648  37.961  48.691  1.00  0.00    -0.040 A 
HETATM   15  C   UNL     1      26.804  36.898  49.062  1.00  0.00     0.010 A 
HETATM   16  C   UNL     1      25.825  36.404  48.193  1.00  0.00     0.024 A 
HETATM   17  C   UNL     1      25.677  36.969  46.930  1.00  0.00     0.034 A 
HETATM   18 CL   UNL     1      24.484  36.359  45.852  1.00  0.00    -0.084 Cl
HETATM   19  C   UNL     1      26.496  38.022  46.534  1.00  0.00     0.024 A 
HETATM   20  C   UNL     1      27.471  38.511  47.408  1.00  0.00     0.010 A 
ENDBRANCH  11  14
ENDBRANCH   8  11
ENDBRANCH   5   7
BRANCH   1  21
HETATM   21  C   UNL     1      29.257  43.673  54.753  1.00  0.00     0.029 A 
HETATM   22  C   UNL     1      28.650  44.939  54.776  1.00  0.00     0.081 A 
HETATM   23  C   UNL     1      29.123  45.942  55.631  1.00  0.00     0.039 A 
HETATM   24  C   UNL     1      30.187  45.679  56.494  1.00  0.00     0.026 A 
HETATM   25  C   UNL     1      30.783  44.420  56.488  1.00  0.00     0.035 A 
HETATM   26  C   UNL     1      30.329  43.423  55.626  1.00  0.00     0.040 A 
HETATM   27 CL   UNL     1      32.100  44.096  57.547  1.00  0.00    -0.084 Cl
BRANCH  22  28
HETATM   28  O   UNL     1      27.648  45.261  53.897  1.00  0.00    -0.355 OA
HETATM   29  C   UNL     1      27.117  46.551  54.203  1.00  0.00     0.210 C 
ENDBRANCH  22  28
ENDBRANCH   1  21
TORSDOF 5
ENDMDL
MODEL 5
REMARK VINA RESULT:      -9.2      2.997      9.469
REMARK  5 active torsions:
REMARK  status: ('A' for Active; 'I' for Inactive)
REMARK    1  A    between atoms: O_2  and  C_3 
REMARK    2  A    between atoms: C_4  and  C_5 
REMARK    3  A    between atoms: C_9  and  N_10 
REMARK       I    between atoms: N_10  and  C_11 
REMARK    4  A    between atoms: C_11  and  C_12 
REMARK    5  A    between atoms: C_12  and  C_13 
ROOT
HETATM    1  C   UNL     1      25.996  46.210  51.642  1.00  0.00     0.093 A 
HETATM    2  N   UNL     1      26.382  47.422  51.211  1.00  0.00    -0.172 NA
HETATM    3  N   UNL     1      25.426  47.784  50.337  1.00  0.00    -0.262 N 
HETATM    4  H   UNL     1      25.489  48.683  49.866  1.00  0.00     0.191 HD
HETATM    5  C   UNL     1      24.409  46.874  50.227  1.00  0.00     0.126 A 
HETATM    6  C   UNL     1      24.766  45.825  51.036  1.00  0.00     0.084 A 
ENDROOT
BRANCH   5   7
HETATM    7  N   UNL     1      23.272  47.056  49.470  1.00  0.00    -0.311 N 
HETATM    8  C   UNL     1      22.710  48.304  49.290  1.00  0.00     0.236 C 
HETATM    9  O   UNL     1      23.195  49.369  49.656  1.00  0.00    -0.272 OA
HETATM   10  H   UNL     1      22.782  46.239  49.130  1.00  0.00     0.170 HD
BRANCH   8  11
HETATM   11  C   UNL     1      21.356  48.262  48.626  1.00  0.00     0.068 A 
HETATM   12  C   UNL     1      21.289  47.724  47.198  1.00  0.00     0.026 A 
HETATM   13  C   UNL     1      20.746  46.896  48.319  1.00  0.00     0.026 A 
BRANCH  11  14
HETATM   14  C   UNL     1      20.430  49.425  48.980  1.00  0.00    -0.040 A 
HETATM   15  C   UNL     1      19.363  49.243  49.879  1.00  0.00     0.010 A 
HETATM   16  C   UNL     1      18.473  50.280  50.175  1.00  0.00     0.024 A 
HETATM   17  C   UNL     1      18.637  51.522  49.571  1.00  0.00     0.034 A 
HETATM   18 CL   UNL     1      17.539  52.799  49.923  1.00  0.00    -0.084 Cl
HETATM   19  C   UNL     1      19.683  51.734  48.678  1.00  0.00     0.024 A 
HETATM   20  C   UNL     1      20.569  50.693  48.387  1.00  0.00     0.010 A 
ENDBRANCH  11  14
ENDBRANCH   8  11
ENDBRANCH   5   7
BRANCH   1  21
HETATM   21  C   UNL     1      26.733  45.474  52.667  1.00  0.00     0.029 A 
HETATM   22  C   UNL     1      26.548  45.692  54.041  1.00  0.00     0.081 A 
HETATM   23  C   UNL     1      27.295  44.977  54.985  1.00  0.00     0.039 A 
HETATM   24  C   UNL     1      28.213  44.014  54.565  1.00  0.00     0.026 A 
HETATM   25  C   UNL     1      28.389  43.780  53.203  1.00  0.00     0.035 A 
HETATM   26  C   UNL     1      27.662  44.502  52.257  1.00  0.00     0.040 A 
HETATM   27 CL   UNL     1      29.525  42.597  52.682  1.00  0.00    -0.084 Cl
BRANCH  22  28
HETATM   28  O   UNL     1      25.708  46.677  54.496  1.00  0.00    -0.355 OA
HETATM   29  C   UNL     1      26.464  47.748  55.064  1.00  0.00     0.210 C 
ENDBRANCH  22  28
ENDBRANCH   1  21
TORSDOF 5
ENDMDL
MODEL 6
REMARK VINA RESULT:      -9.2      5.288      8.703
REMARK  5 active torsions:
REMARK  status: ('A' for Active; 'I' for Inactive)
REMARK    1  A    between atoms: O_2  and  C_3 
REMARK    2  A    between atoms: C_4  and  C_5 
REMARK    3  A    between atoms: C_9  and  N_10 
REMARK       I    between atoms: N_10  and  C_11 
REMARK    4  A    between atoms: C_11  and  C_12 
REMARK    5  A    between atoms: C_12  and  C_13 
ROOT
HETATM    1  C   UNL     1      28.433  42.875  53.616  1.00  0.00     0.093 A 
HETATM    2  N   UNL     1      27.655  41.880  54.069  1.00  0.00    -0.172 NA
HETATM    3  N   UNL     1      27.693  40.956  53.092  1.00  0.00    -0.262 N 
HETATM    4  H   UNL     1      27.174  40.088  53.199  1.00  0.00     0.191 HD
HETATM    5  C   UNL     1      28.510  41.296  52.047  1.00  0.00     0.126 A 
HETATM    6  C   UNL     1      28.979  42.551  52.340  1.00  0.00     0.084 A 
ENDROOT
BRANCH   5   7
HETATM    7  N   UNL     1      28.788  40.480  50.972  1.00  0.00    -0.311 N 
HETATM    8  C   UNL     1      27.790  39.832  50.272  1.00  0.00     0.236 C 
HETATM    9  O   UNL     1      26.584  39.991  50.429  1.00  0.00    -0.272 OA
HETATM   10  H   UNL     1      29.756  40.270  50.763  1.00  0.00     0.170 HD
BRANCH   8  11
HETATM   11  C   UNL     1      28.311  38.818  49.285  1.00  0.00     0.068 A 
HETATM   12  C   UNL     1      29.504  37.967  49.714  1.00  0.00     0.026 A 
HETATM   13  C   UNL     1      28.151  37.337  49.621  1.00  0.00     0.026 A 
BRANCH  11  14
HETATM   14  C   UNL     1      28.254  39.256  47.823  1.00  0.00    -0.040 A 
HETATM   15  C   UNL     1      28.328  40.619  47.480  1.00  0.00     0.010 A 
HETATM   16  C   UNL     1      28.225  41.045  46.151  1.00  0.00     0.024 A 
HETATM   17  C   UNL     1      28.044  40.108  45.140  1.00  0.00     0.034 A 
HETATM   18 CL   UNL     1      27.905  40.626  43.506  1.00  0.00    -0.084 Cl
HETATM   19  C   UNL     1      27.968  38.752  45.446  1.00  0.00     0.024 A 
HETATM   20  C   UNL     1      28.072  38.334  46.776  1.00  0.00     0.010 A 
ENDBRANCH  11  14
ENDBRANCH   8  11
ENDBRANCH   5   7
BRANCH   1  21
HETATM   21  C   UNL     1      28.719  44.068  54.410  1.00  0.00     0.029 A 
HETATM   22  C   UNL     1      29.804  44.149  55.297  1.00  0.00     0.081 A 
HETATM   23  C   UNL     1      30.023  45.305  56.055  1.00  0.00     0.039 A 
HETATM   24  C   UNL     1      29.178  46.406  55.909  1.00  0.00     0.026 A 
HETATM   25  C   UNL     1      28.110  46.339  55.018  1.00  0.00     0.035 A 
HETATM   26  C   UNL     1      27.874  45.183  54.275  1.00  0.00     0.040 A 
HETATM   27 CL   UNL     1      27.061  47.693  54.842  1.00  0.00    -0.084 Cl
BRANCH  22  28
HETATM   28  O   UNL     1      30.617  43.067  55.522  1.00  0.00    -0.355 OA
HETATM   29  C   UNL     1      31.383  43.263  56.712  1.00  0.00     0.210 C 
ENDBRANCH  22  28
ENDBRANCH   1  21
TORSDOF 5
ENDMDL
MODEL 7
REMARK VINA RESULT:      -8.6      2.328      8.374
REMARK  5 active torsions:
REMARK  status: ('A' for Active; 'I' for Inactive)
REMARK    1  A    between atoms: O_2  and  C_3 
REMARK    2  A    between atoms: C_4  and  C_5 
REMARK    3  A    between atoms: C_9  and  N_10 
REMARK       I    between atoms: N_10  and  C_11 
REMARK    4  A    between atoms: C_11  and  C_12 
REMARK    5  A    between atoms: C_12  and  C_13 
ROOT
HETATM    1  C   UNL     1      26.623  44.521  53.332  1.00  0.00     0.093 A 
HETATM    2  N   UNL     1      26.492  43.249  52.923  1.00  0.00    -0.172 NA
HETATM    3  N   UNL     1      25.445  43.278  52.078  1.00  0.00    -0.262 N 
HETATM    4  H   UNL     1      25.141  42.420  51.623  1.00  0.00     0.191 HD
HETATM    5  C   UNL     1      24.930  44.532  51.886  1.00  0.00     0.126 A 
HETATM    6  C   UNL     1      25.650  45.356  52.713  1.00  0.00     0.084 A 
ENDROOT
BRANCH   5   7
HETATM    7  N   UNL     1      23.919  44.837  51.000  1.00  0.00    -0.311 N 
HETATM    8  C   UNL     1      24.112  44.798  49.634  1.00  0.00     0.236 C 
HETATM    9  O   UNL     1      25.117  44.386  49.062  1.00  0.00    -0.272 OA
HETATM   10  H   UNL     1      23.049  45.201  51.367  1.00  0.00     0.170 HD
BRANCH   8  11
HETATM   11  C   UNL     1      22.964  45.380  48.848  1.00  0.00     0.068 A 
HETATM   12  C   UNL     1      22.524  44.635  47.589  1.00  0.00     0.026 A 
HETATM   13  C   UNL     1      21.653  44.599  48.803  1.00  0.00     0.026 A 
BRANCH  11  14
HETATM   14  C   UNL     1      22.919  46.906  48.809  1.00  0.00    -0.040 A 
HETATM   15  C   UNL     1      21.740  47.579  48.442  1.00  0.00     0.010 A 
HETATM   16  C   UNL     1      21.692  48.974  48.349  1.00  0.00     0.024 A 
HETATM   17  C   UNL     1      22.833  49.721  48.623  1.00  0.00     0.034 A 
HETATM   18 CL   UNL     1      22.786  51.436  48.500  1.00  0.00    -0.084 Cl
HETATM   19  C   UNL     1      24.015  49.085  48.990  1.00  0.00     0.024 A 
HETATM   20  C   UNL     1      24.055  47.691  49.081  1.00  0.00     0.010 A 
ENDBRANCH  11  14
ENDBRANCH   8  11
ENDBRANCH   5   7
BRANCH   1  21
HETATM   21  C   UNL     1      27.699  44.947  54.225  1.00  0.00     0.029 A 
HETATM   22  C   UNL     1      27.774  46.243  54.759  1.00  0.00     0.081 A 
HETATM   23  C   UNL     1      28.837  46.612  55.592  1.00  0.00     0.039 A 
HETATM   24  C   UNL     1      29.819  45.678  55.926  1.00  0.00     0.026 A 
HETATM   25  C   UNL     1      29.741  44.385  55.414  1.00  0.00     0.035 A 
HETATM   26  C   UNL     1      28.695  44.017  54.568  1.00  0.00     0.040 A 
HETATM   27 CL   UNL     1      30.955  43.233  55.818  1.00  0.00    -0.084 Cl
BRANCH  22  28
HETATM   28  O   UNL     1      26.870  47.210  54.402  1.00  0.00    -0.355 OA
HETATM   29  C   UNL     1      26.624  48.088  55.503  1.00  0.00     0.210 C 
ENDBRANCH  22  28
ENDBRANCH   1  21
TORSDOF 5
ENDMDL
MODEL 8
REMARK VINA RESULT:      -8.5      5.677      9.333
REMARK  5 active torsions:
REMARK  status: ('A' for Active; 'I' for Inactive)
REMARK    1  A    between atoms: O_2  and  C_3 
REMARK    2  A    between atoms: C_4  and  C_5 
REMARK    3  A    between atoms: C_9  and  N_10 
REMARK       I    between atoms: N_10  and  C_11 
REMARK    4  A    between atoms: C_11  and  C_12 
REMARK    5  A    between atoms: C_12  and  C_13 
ROOT
HETATM    1  C   UNL     1      28.439  42.574  53.457  1.00  0.00     0.093 A 
HETATM    2  N   UNL     1      27.976  41.375  53.844  1.00  0.00    -0.172 NA
HETATM    3  N   UNL     1      27.550  40.799  52.705  1.00  0.00    -0.262 N 
HETATM    4  H   UNL     1      27.150  39.865  52.733  1.00  0.00     0.191 HD
HETATM    5  C   UNL     1      27.770  41.562  51.589  1.00  0.00     0.126 A 
HETATM    6  C   UNL     1      28.314  42.735  52.047  1.00  0.00     0.084 A 
ENDROOT
BRANCH   5   7
HETATM    7  N   UNL     1      27.508  41.156  50.298  1.00  0.00    -0.311 N 
HETATM    8  C   UNL     1      28.077  40.017  49.764  1.00  0.00     0.236 C 
HETATM    9  O   UNL     1      28.752  39.196  50.377  1.00  0.00    -0.272 OA
HETATM   10  H   UNL     1      26.971  41.769  49.699  1.00  0.00     0.170 HD
BRANCH   8  11
HETATM   11  C   UNL     1      27.848  39.871  48.280  1.00  0.00     0.068 A 
HETATM   12  C   UNL     1      27.068  40.979  47.577  1.00  0.00     0.026 A 
HETATM   13  C   UNL     1      28.540  40.859  47.344  1.00  0.00     0.026 A 
BRANCH  11  14
HETATM   14  C   UNL     1      27.613  38.439  47.804  1.00  0.00    -0.040 A 
HETATM   15  C   UNL     1      28.455  37.857  46.839  1.00  0.00     0.010 A 
HETATM   16  C   UNL     1      28.226  36.567  46.351  1.00  0.00     0.024 A 
HETATM   17  C   UNL     1      27.141  35.835  46.823  1.00  0.00     0.034 A 
HETATM   18 CL   UNL     1      26.846  34.252  46.219  1.00  0.00    -0.084 Cl
HETATM   19  C   UNL     1      26.290  36.382  47.779  1.00  0.00     0.024 A 
HETATM   20  C   UNL     1      26.526  37.672  48.262  1.00  0.00     0.010 A 
ENDBRANCH  11  14
ENDBRANCH   8  11
ENDBRANCH   5   7
BRANCH   1  21
HETATM   21  C   UNL     1      29.060  43.511  54.391  1.00  0.00     0.029 A 
HETATM   22  C   UNL     1      28.587  44.818  54.584  1.00  0.00     0.081 A 
HETATM   23  C   UNL     1      29.231  45.687  55.473  1.00  0.00     0.039 A 
HETATM   24  C   UNL     1      30.335  45.246  56.203  1.00  0.00     0.026 A 
HETATM   25  C   UNL     1      30.799  43.945  56.029  1.00  0.00     0.035 A 
HETATM   26  C   UNL     1      30.175  43.081  55.131  1.00  0.00     0.040 A 
HETATM   27 CL   UNL     1      32.166  43.401  56.924  1.00  0.00    -0.084 Cl
BRANCH  22  28
HETATM   28  O   UNL     1      27.549  45.314  53.837  1.00  0.00    -0.355 OA
HETATM   29  C   UNL     1      27.039  46.509  54.430  1.00  0.00     0.210 C 
ENDBRANCH  22  28
ENDBRANCH   1  21
TORSDOF 5
ENDMDL
MODEL 9
REMARK VINA RESULT:      -8.5      2.927      9.716
REMARK  5 active torsions:
REMARK  status: ('A' for Active; 'I' for Inactive)
REMARK    1  A    between atoms: O_2  and  C_3 
REMARK    2  A    between atoms: C_4  and  C_5 
REMARK    3  A    between atoms: C_9  and  N_10 
REMARK       I    between atoms: N_10  and  C_11 
REMARK    4  A    between atoms: C_11  and  C_12 
REMARK    5  A    between atoms: C_12  and  C_13 
ROOT
HETATM    1  C   UNL     1      25.376  45.862  50.954  1.00  0.00     0.093 A 
HETATM    2  N   UNL     1      24.340  45.294  50.316  1.00  0.00    -0.172 NA
HETATM    3  N   UNL     1      23.619  46.334  49.860  1.00  0.00    -0.262 N 
HETATM    4  H   UNL     1      22.768  46.164  49.330  1.00  0.00     0.191 HD
HETATM    5  C   UNL     1      24.180  47.553  50.136  1.00  0.00     0.126 A 
HETATM    6  C   UNL     1      25.303  47.282  50.875  1.00  0.00     0.084 A 
ENDROOT
BRANCH   5   7
HETATM    7  N   UNL     1      23.684  48.762  49.696  1.00  0.00    -0.311 N 
HETATM    8  C   UNL     1      22.418  48.876  49.158  1.00  0.00     0.236 C 
HETATM    9  O   UNL     1      21.571  47.990  49.120  1.00  0.00    -0.272 OA
HETATM   10  H   UNL     1      24.306  49.559  49.672  1.00  0.00     0.170 HD
BRANCH   8  11
HETATM   11  C   UNL     1      22.151  50.223  48.534  1.00  0.00     0.068 A 
HETATM   12  C   UNL     1      23.232  51.292  48.679  1.00  0.00     0.026 A 
HETATM   13  C   UNL     1      23.011  50.650  47.347  1.00  0.00     0.026 A 
BRANCH  11  14
HETATM   14  C   UNL     1      20.697  50.686  48.600  1.00  0.00    -0.040 A 
HETATM   15  C   UNL     1      20.155  51.176  49.803  1.00  0.00     0.010 A 
HETATM   16  C   UNL     1      18.812  51.555  49.900  1.00  0.00     0.024 A 
HETATM   17  C   UNL     1      17.985  51.446  48.786  1.00  0.00     0.034 A 
HETATM   18 CL   UNL     1      16.330  51.900  48.901  1.00  0.00    -0.084 Cl
HETATM   19  C   UNL     1      18.490  50.966  47.582  1.00  0.00     0.024 A 
HETATM   20  C   UNL     1      19.834  50.590  47.494  1.00  0.00     0.010 A 
ENDBRANCH  11  14
ENDBRANCH   8  11
ENDBRANCH   5   7
BRANCH   1  21
HETATM   21  C   UNL     1      26.452  45.074  51.553  1.00  0.00     0.029 A 
HETATM   22  C   UNL     1      27.213  44.148  50.822  1.00  0.00     0.081 A 
HETATM   23  C   UNL     1      28.218  43.400  51.446  1.00  0.00     0.039 A 
HETATM   24  C   UNL     1      28.494  43.593  52.800  1.00  0.00     0.026 A 
HETATM   25  C   UNL     1      27.754  44.522  53.527  1.00  0.00     0.035 A 
HETATM   26  C   UNL     1      26.739  45.258  52.916  1.00  0.00     0.040 A 
HETATM   27 CL   UNL     1      28.088  44.758  55.199  1.00  0.00    -0.084 Cl
BRANCH  22  28
HETATM   28  O   UNL     1      26.929  43.877  49.508  1.00  0.00    -0.355 OA
HETATM   29  C   UNL     1      26.882  42.466  49.293  1.00  0.00     0.210 C 
ENDBRANCH  22  28
ENDBRANCH   1  21
TORSDOF 5
ENDMDL
MODEL 10
REMARK VINA RESULT:      -8.5      2.853      9.295
REMARK  5 active torsions:
REMARK  status: ('A' for Active; 'I' for Inactive)
REMARK    1  A    between atoms: O_2  and  C_3 
REMARK    2  A    between atoms: C_4  and  C_5 
REMARK    3  A    between atoms: C_9  and  N_10 
REMARK       I    between atoms: N_10  and  C_11 
REMARK    4  A    between atoms: C_11  and  C_12 
REMARK    5  A    between atoms: C_12  and  C_13 
ROOT
HETATM    1  C   UNL     1      26.113  45.668  51.476  1.00  0.00     0.093 A 
HETATM    2  N   UNL     1      26.687  45.955  50.297  1.00  0.00    -0.172 NA
HETATM    3  N   UNL     1      25.741  46.634  49.623  1.00  0.00    -0.262 N 
HETATM    4  H   UNL     1      25.937  46.971  48.683  1.00  0.00     0.191 HD
HETATM    5  C   UNL     1      24.596  46.841  50.344  1.00  0.00     0.126 A 
HETATM    6  C   UNL     1      24.792  46.196  51.539  1.00  0.00     0.084 A 
ENDROOT
BRANCH   5   7
HETATM    7  N   UNL     1      23.520  47.586  49.910  1.00  0.00    -0.311 N 
HETATM    8  C   UNL     1      23.683  48.715  49.133  1.00  0.00     0.236 C 
HETATM    9  O   UNL     1      24.740  49.108  48.650  1.00  0.00    -0.272 OA
HETATM   10  H   UNL     1      22.600  47.356  50.262  1.00  0.00     0.170 HD
BRANCH   8  11
HETATM   11  C   UNL     1      22.413  49.510  48.956  1.00  0.00     0.068 A 
HETATM   12  C   UNL     1      22.243  50.764  49.810  1.00  0.00     0.026 A 
HETATM   13  C   UNL     1      22.517  50.906  48.347  1.00  0.00     0.026 A 
BRANCH  11  14
HETATM   14  C   UNL     1      21.164  48.674  48.684  1.00  0.00    -0.040 A 
HETATM   15  C   UNL     1      20.097  48.661  49.601  1.00  0.00     0.010 A 
HETATM   16  C   UNL     1      18.967  47.862  49.398  1.00  0.00     0.024 A 
HETATM   17  C   UNL     1      18.889  47.056  48.267  1.00  0.00     0.034 A 
HETATM   18 CL   UNL     1      17.508  46.062  48.016  1.00  0.00    -0.084 Cl
HETATM   19  C   UNL     1      19.927  47.046  47.341  1.00  0.00     0.024 A 
HETATM   20  C   UNL     1      21.053  47.848  47.551  1.00  0.00     0.010 A 
ENDBRANCH  11  14
ENDBRANCH   8  11
ENDBRANCH   5   7
BRANCH   1  21
HETATM   21  C   UNL     1      26.831  44.981  52.548  1.00  0.00     0.029 A 
HETATM   22  C   UNL     1      27.207  45.619  53.741  1.00  0.00     0.081 A 
HETATM   23  C   UNL     1      27.914  44.924  54.730  1.00  0.00     0.039 A 
HETATM   24  C   UNL     1      28.225  43.576  54.549  1.00  0.00     0.026 A 
HETATM   25  C   UNL     1      27.840  42.933  53.376  1.00  0.00     0.035 A 
HETATM   26  C   UNL     1      27.152  43.623  52.378  1.00  0.00     0.040 A 
HETATM   27 CL   UNL     1      28.227  41.271  53.147  1.00  0.00    -0.084 Cl
BRANCH  22  28
HETATM   28  O   UNL     1      26.983  46.958  53.929  1.00  0.00    -0.355 OA
HETATM   29  C   UNL     1      27.891  47.480  54.901  1.00  0.00     0.210 C 
ENDBRANCH  22  28
ENDBRANCH   1  21
TORSDOF 5
ENDMDL
