MODEL 1
REMARK VINA RESULT:      -9.8      0.000      0.000
REMARK  5 active torsions:
REMARK  status: ('A' for Active; 'I' for Inactive)
REMARK    1  A    between atoms: C_4  and  C_5 
REMARK       I    between atoms: N_6  and  C_7 
REMARK    2  A    between atoms: C_7  and  C_8 
REMARK    3  A    between atoms: C_8  and  C_9 
REMARK    4  A    between atoms: C_11  and  O_12 
REMARK    5  A    between atoms: C_14  and  O_15 
ROOT
HETATM    1  C   UNL     1      25.153  46.797  50.994  1.00  0.00     0.189 C 
HETATM    2  N   UNL     1      24.886  45.443  50.436  1.00  0.00    -0.336 N 
HETATM    3  C   UNL     1      25.770  44.893  49.504  1.00  0.00     0.225 C 
HETATM    4  O   UNL     1      26.741  45.497  49.047  1.00  0.00    -0.273 OA
HETATM    5  C   UNL     1      24.172  44.573  51.394  1.00  0.00     0.132 C 
HETATM    6  C   UNL     1      25.080  44.211  52.595  1.00  0.00     0.061 C 
HETATM    7  C   UNL     1      25.905  45.392  53.007  1.00  0.00    -0.019 A 
HETATM    8  C   UNL     1      25.950  46.559  52.257  1.00  0.00     0.046 A 
HETATM    9  N   UNL     1      26.764  47.443  52.910  1.00  0.00    -0.356 N 
HETATM   10  H   UNL     1      26.962  48.392  52.619  1.00  0.00     0.166 HD
HETATM   11  C   UNL     1      27.325  46.834  54.015  1.00  0.00     0.043 A 
HETATM   12  C   UNL     1      26.788  45.548  54.106  1.00  0.00    -0.001 A 
HETATM   13  C   UNL     1      28.263  47.321  54.933  1.00  0.00     0.030 A 
HETATM   14  C   UNL     1      28.659  46.470  55.971  1.00  0.00     0.002 A 
HETATM   15  C   UNL     1      28.132  45.185  56.089  1.00  0.00     0.001 A 
HETATM   16  C   UNL     1      27.195  44.713  55.164  1.00  0.00     0.014 A 
ENDROOT
BRANCH   1  17
HETATM   17  C   UNL     1      25.569  47.902  50.026  1.00  0.00     0.063 A 
HETATM   18  N   UNL     1      24.550  48.580  49.421  1.00  0.00    -0.256 NA
HETATM   19  C   UNL     1      24.854  49.566  48.543  1.00  0.00     0.031 A 
HETATM   20  C   UNL     1      23.712  50.261  47.867  1.00  0.00     0.070 C 
HETATM   21  C   UNL     1      26.163  49.931  48.253  1.00  0.00     0.027 A 
HETATM   22  C   UNL     1      27.198  49.245  48.874  1.00  0.00     0.004 A 
HETATM   23  C   UNL     1      26.902  48.216  49.764  1.00  0.00     0.030 A 
ENDBRANCH   1  17
BRANCH   3  24
HETATM   24  C   UNL     1      25.533  43.461  49.039  1.00  0.00     0.141 C 
BRANCH  24  25
HETATM   25  C   UNL     1      26.493  42.419  49.566  1.00  0.00    -0.047 A 
HETATM   26  C   UNL     1      27.227  42.612  50.747  1.00  0.00     0.047 A 
HETATM   27  C   UNL     1      28.106  41.627  51.216  1.00  0.00     0.102 A 
HETATM   28  C   UNL     1      28.231  40.412  50.514  1.00  0.00     0.101 A 
HETATM   29  C   UNL     1      27.475  40.207  49.356  1.00  0.00     0.040 A 
HETATM   30  C   UNL     1      26.612  41.200  48.890  1.00  0.00     0.010 A 
BRANCH  27  31
HETATM   31  O   UNL     1      28.873  41.755  52.348  1.00  0.00    -0.353 OA
HETATM   32  C   UNL     1      29.440  43.031  52.612  1.00  0.00     0.210 C 
ENDBRANCH  27  31
BRANCH  28  33
HETATM   33  O   UNL     1      29.108  39.494  51.037  1.00  0.00    -0.353 OA
HETATM   34  C   UNL     1      29.345  38.312  50.289  1.00  0.00     0.210 C 
ENDBRANCH  28  33
ENDBRANCH  24  25
ENDBRANCH   3  24
TORSDOF 5
ENDMDL
MODEL 2
REMARK VINA RESULT:      -9.1      2.587      5.982
REMARK  5 active torsions:
REMARK  status: ('A' for Active; 'I' for Inactive)
REMARK    1  A    between atoms: C_4  and  C_5 
REMARK       I    between atoms: N_6  and  C_7 
REMARK    2  A    between atoms: C_7  and  C_8 
REMARK    3  A    between atoms: C_8  and  C_9 
REMARK    4  A    between atoms: C_11  and  O_12 
REMARK    5  A    between atoms: C_14  and  O_15 
ROOT
HETATM    1  C   UNL     1      26.223  44.567  49.531  1.00  0.00     0.189 C 
HETATM    2  N   UNL     1      26.547  43.881  50.812  1.00  0.00    -0.336 N 
HETATM    3  C   UNL     1      25.860  44.230  51.976  1.00  0.00     0.225 C 
HETATM    4  O   UNL     1      25.034  45.142  52.033  1.00  0.00    -0.273 OA
HETATM    5  C   UNL     1      27.005  42.491  50.601  1.00  0.00     0.132 C 
HETATM    6  C   UNL     1      25.848  41.600  50.086  1.00  0.00     0.061 C 
HETATM    7  C   UNL     1      25.004  42.349  49.102  1.00  0.00    -0.019 A 
HETATM    8  C   UNL     1      25.167  43.708  48.873  1.00  0.00     0.046 A 
HETATM    9  N   UNL     1      24.269  44.080  47.911  1.00  0.00    -0.356 N 
HETATM   10  H   UNL     1      24.176  45.006  47.513  1.00  0.00     0.166 HD
HETATM   11  C   UNL     1      23.461  43.008  47.586  1.00  0.00     0.043 A 
HETATM   12  C   UNL     1      23.914  41.904  48.311  1.00  0.00    -0.001 A 
HETATM   13  C   UNL     1      22.370  42.934  46.711  1.00  0.00     0.030 A 
HETATM   14  C   UNL     1      21.729  41.698  46.576  1.00  0.00     0.002 A 
HETATM   15  C   UNL     1      22.165  40.579  47.282  1.00  0.00     0.001 A 
HETATM   16  C   UNL     1      23.258  40.668  48.151  1.00  0.00     0.014 A 
ENDROOT
BRANCH   1  17
HETATM   17  C   UNL     1      26.067  46.086  49.552  1.00  0.00     0.063 A 
HETATM   18  N   UNL     1      24.789  46.556  49.451  1.00  0.00    -0.256 NA
HETATM   19  C   UNL     1      24.584  47.894  49.453  1.00  0.00     0.031 A 
HETATM   20  C   UNL     1      23.173  48.375  49.299  1.00  0.00     0.070 C 
HETATM   21  C   UNL     1      25.622  48.809  49.579  1.00  0.00     0.027 A 
HETATM   22  C   UNL     1      26.921  48.330  49.689  1.00  0.00     0.004 A 
HETATM   23  C   UNL     1      27.149  46.957  49.669  1.00  0.00     0.030 A 
ENDBRANCH   1  17
BRANCH   3  24
HETATM   24  C   UNL     1      26.133  43.430  53.246  1.00  0.00     0.141 C 
BRANCH  24  25
HETATM   25  C   UNL     1      27.463  43.679  53.919  1.00  0.00    -0.047 A 
HETATM   26  C   UNL     1      27.708  44.828  54.686  1.00  0.00     0.047 A 
HETATM   27  C   UNL     1      28.949  45.031  55.304  1.00  0.00     0.102 A 
HETATM   28  C   UNL     1      29.954  44.051  55.184  1.00  0.00     0.101 A 
HETATM   29  C   UNL     1      29.700  42.890  54.449  1.00  0.00     0.040 A 
HETATM   30  C   UNL     1      28.464  42.705  53.826  1.00  0.00     0.010 A 
BRANCH  27  31
HETATM   31  O   UNL     1      29.267  46.140  56.048  1.00  0.00    -0.353 OA
HETATM   32  C   UNL     1      28.788  46.188  57.386  1.00  0.00     0.210 C 
ENDBRANCH  27  31
BRANCH  28  33
HETATM   33  O   UNL     1      31.141  44.318  55.822  1.00  0.00    -0.353 OA
HETATM   34  C   UNL     1      31.469  43.529  56.956  1.00  0.00     0.210 C 
ENDBRANCH  28  33
ENDBRANCH  24  25
ENDBRANCH   3  24
TORSDOF 5
ENDMDL
MODEL 3
REMARK VINA RESULT:      -9.1      2.900      4.577
REMARK  5 active torsions:
REMARK  status: ('A' for Active; 'I' for Inactive)
REMARK    1  A    between atoms: C_4  and  C_5 
REMARK       I    between atoms: N_6  and  C_7 
REMARK    2  A    between atoms: C_7  and  C_8 
REMARK    3  A    between atoms: C_8  and  C_9 
REMARK    4  A    between atoms: C_11  and  O_12 
REMARK    5  A    between atoms: C_14  and  O_15 
ROOT
HETATM    1  C   UNL     1      26.145  43.112  52.043  1.00  0.00     0.189 C 
HETATM    2  N   UNL     1      26.687  41.956  51.278  1.00  0.00    -0.336 N 
HETATM    3  C   UNL     1      27.368  42.178  50.079  1.00  0.00     0.225 C 
HETATM    4  O   UNL     1      27.490  43.289  49.560  1.00  0.00    -0.273 OA
HETATM    5  C   UNL     1      27.071  40.833  52.159  1.00  0.00     0.132 C 
HETATM    6  C   UNL     1      28.302  41.204  53.024  1.00  0.00     0.061 C 
HETATM    7  C   UNL     1      28.209  42.625  53.489  1.00  0.00    -0.019 A 
HETATM    8  C   UNL     1      27.236  43.494  53.017  1.00  0.00     0.046 A 
HETATM    9  N   UNL     1      27.408  44.695  53.650  1.00  0.00    -0.356 N 
HETATM   10  H   UNL     1      26.825  45.514  53.534  1.00  0.00     0.166 HD
HETATM   11  C   UNL     1      28.535  44.648  54.445  1.00  0.00     0.043 A 
HETATM   12  C   UNL     1      29.048  43.350  54.373  1.00  0.00    -0.001 A 
HETATM   13  C   UNL     1      29.136  45.648  55.218  1.00  0.00     0.030 A 
HETATM   14  C   UNL     1      30.290  45.312  55.934  1.00  0.00     0.002 A 
HETATM   15  C   UNL     1      30.817  44.023  55.885  1.00  0.00     0.001 A 
HETATM   16  C   UNL     1      30.205  43.033  55.110  1.00  0.00     0.014 A 
ENDROOT
BRANCH   1  17
HETATM   17  C   UNL     1      25.399  44.196  51.268  1.00  0.00     0.063 A 
HETATM   18  N   UNL     1      26.026  45.407  51.184  1.00  0.00    -0.256 NA
HETATM   19  C   UNL     1      25.411  46.414  50.519  1.00  0.00     0.031 A 
HETATM   20  C   UNL     1      26.110  47.740  50.481  1.00  0.00     0.070 C 
HETATM   21  C   UNL     1      24.179  46.256  49.897  1.00  0.00     0.027 A 
HETATM   22  C   UNL     1      23.546  45.023  49.978  1.00  0.00     0.004 A 
HETATM   23  C   UNL     1      24.156  43.984  50.675  1.00  0.00     0.030 A 
ENDBRANCH   1  17
BRANCH   3  24
HETATM   24  C   UNL     1      28.011  40.985  49.379  1.00  0.00     0.141 C 
BRANCH  24  25
HETATM   25  C   UNL     1      27.408  40.584  48.053  1.00  0.00    -0.047 A 
HETATM   26  C   UNL     1      26.127  40.018  47.957  1.00  0.00     0.047 A 
HETATM   27  C   UNL     1      25.589  39.661  46.714  1.00  0.00     0.102 A 
HETATM   28  C   UNL     1      26.328  39.906  45.539  1.00  0.00     0.101 A 
HETATM   29  C   UNL     1      27.589  40.501  45.631  1.00  0.00     0.040 A 
HETATM   30  C   UNL     1      28.121  40.840  46.876  1.00  0.00     0.010 A 
BRANCH  27  31
HETATM   31  O   UNL     1      24.355  39.082  46.545  1.00  0.00    -0.353 OA
HETATM   32  C   UNL     1      23.215  39.878  46.842  1.00  0.00     0.210 C 
ENDBRANCH  27  31
BRANCH  28  33
HETATM   33  O   UNL     1      25.733  39.533  44.358  1.00  0.00    -0.353 OA
HETATM   34  C   UNL     1      25.559  40.534  43.367  1.00  0.00     0.210 C 
ENDBRANCH  28  33
ENDBRANCH  24  25
ENDBRANCH   3  24
TORSDOF 5
ENDMDL
MODEL 4
REMARK VINA RESULT:      -9.0      2.509      7.808
REMARK  5 active torsions:
REMARK  status: ('A' for Active; 'I' for Inactive)
REMARK    1  A    between atoms: C_4  and  C_5 
REMARK       I    between atoms: N_6  and  C_7 
REMARK    2  A    between atoms: C_7  and  C_8 
REMARK    3  A    between atoms: C_8  and  C_9 
REMARK    4  A    between atoms: C_11  and  O_12 
REMARK    5  A    between atoms: C_14  and  O_15 
ROOT
HETATM    1  C   UNL     1      26.484  42.287  52.092  1.00  0.00     0.189 C 
HETATM    2  N   UNL     1      25.752  42.930  50.967  1.00  0.00    -0.336 N 
HETATM    3  C   UNL     1      26.343  43.989  50.274  1.00  0.00     0.225 C 
HETATM    4  O   UNL     1      27.426  44.488  50.585  1.00  0.00    -0.273 OA
HETATM    5  C   UNL     1      24.858  41.984  50.267  1.00  0.00     0.132 C 
HETATM    6  C   UNL     1      25.675  40.916  49.499  1.00  0.00     0.061 C 
HETATM    7  C   UNL     1      26.867  40.487  50.300  1.00  0.00    -0.019 A 
HETATM    8  C   UNL     1      27.242  41.135  51.469  1.00  0.00     0.046 A 
HETATM    9  N   UNL     1      28.342  40.493  51.967  1.00  0.00    -0.356 N 
HETATM   10  H   UNL     1      28.820  40.719  52.829  1.00  0.00     0.166 HD
HETATM   11  C   UNL     1      28.745  39.507  51.089  1.00  0.00     0.043 A 
HETATM   12  C   UNL     1      27.823  39.474  50.040  1.00  0.00    -0.001 A 
HETATM   13  C   UNL     1      29.850  38.648  51.143  1.00  0.00     0.030 A 
HETATM   14  C   UNL     1      30.013  37.733  50.097  1.00  0.00     0.002 A 
HETATM   15  C   UNL     1      29.103  37.674  49.043  1.00  0.00     0.001 A 
HETATM   16  C   UNL     1      28.003  38.537  49.003  1.00  0.00     0.014 A 
ENDROOT
BRANCH   1  17
HETATM   17  C   UNL     1      27.175  43.192  53.109  1.00  0.00     0.063 A 
HETATM   18  N   UNL     1      28.475  42.887  53.393  1.00  0.00    -0.256 NA
HETATM   19  C   UNL     1      29.141  43.647  54.295  1.00  0.00     0.031 A 
HETATM   20  C   UNL     1      30.553  43.259  54.613  1.00  0.00     0.070 C 
HETATM   21  C   UNL     1      28.559  44.741  54.925  1.00  0.00     0.027 A 
HETATM   22  C   UNL     1      27.239  45.053  54.630  1.00  0.00     0.004 A 
HETATM   23  C   UNL     1      26.536  44.270  53.719  1.00  0.00     0.030 A 
ENDBRANCH   1  17
BRANCH   3  24
HETATM   24  C   UNL     1      25.619  44.551  49.055  1.00  0.00     0.141 C 
BRANCH  24  25
HETATM   25  C   UNL     1      24.966  45.903  49.230  1.00  0.00    -0.047 A 
HETATM   26  C   UNL     1      23.595  46.103  49.007  1.00  0.00     0.047 A 
HETATM   27  C   UNL     1      23.015  47.366  49.182  1.00  0.00     0.102 A 
HETATM   28  C   UNL     1      23.809  48.443  49.624  1.00  0.00     0.101 A 
HETATM   29  C   UNL     1      25.168  48.236  49.879  1.00  0.00     0.040 A 
HETATM   30  C   UNL     1      25.739  46.976  49.688  1.00  0.00     0.010 A 
BRANCH  27  31
HETATM   31  O   UNL     1      21.688  47.642  48.960  1.00  0.00    -0.353 OA
HETATM   32  C   UNL     1      21.268  47.786  47.609  1.00  0.00     0.210 C 
ENDBRANCH  27  31
BRANCH  28  33
HETATM   33  O   UNL     1      23.169  49.648  49.778  1.00  0.00    -0.353 OA
HETATM   34  C   UNL     1      23.463  50.672  48.840  1.00  0.00     0.210 C 
ENDBRANCH  28  33
ENDBRANCH  24  25
ENDBRANCH   3  24
TORSDOF 5
ENDMDL
MODEL 5
REMARK VINA RESULT:      -8.8      3.366      7.066
REMARK  5 active torsions:
REMARK  status: ('A' for Active; 'I' for Inactive)
REMARK    1  A    between atoms: C_4  and  C_5 
REMARK       I    between atoms: N_6  and  C_7 
REMARK    2  A    between atoms: C_7  and  C_8 
REMARK    3  A    between atoms: C_8  and  C_9 
REMARK    4  A    between atoms: C_11  and  O_12 
REMARK    5  A    between atoms: C_14  and  O_15 
ROOT
HETATM    1  C   UNL     1      27.873  42.231  50.166  1.00  0.00     0.189 C 
HETATM    2  N   UNL     1      26.458  42.691  50.122  1.00  0.00    -0.336 N 
HETATM    3  C   UNL     1      25.444  41.852  50.592  1.00  0.00     0.225 C 
HETATM    4  O   UNL     1      25.638  40.700  50.982  1.00  0.00    -0.273 OA
HETATM    5  C   UNL     1      26.341  44.157  50.263  1.00  0.00     0.132 C 
HETATM    6  C   UNL     1      26.742  44.610  51.688  1.00  0.00     0.061 C 
HETATM    7  C   UNL     1      27.919  43.825  52.179  1.00  0.00    -0.019 A 
HETATM    8  C   UNL     1      28.412  42.726  51.490  1.00  0.00     0.046 A 
HETATM    9  N   UNL     1      29.494  42.252  52.180  1.00  0.00    -0.356 N 
HETATM   10  H   UNL     1      30.081  41.476  51.901  1.00  0.00     0.166 HD
HETATM   11  C   UNL     1      29.647  42.961  53.355  1.00  0.00     0.043 A 
HETATM   12  C   UNL     1      28.676  43.966  53.369  1.00  0.00    -0.001 A 
HETATM   13  C   UNL     1      30.563  42.789  54.400  1.00  0.00     0.030 A 
HETATM   14  C   UNL     1      30.484  43.669  55.485  1.00  0.00     0.002 A 
HETATM   15  C   UNL     1      29.531  44.685  55.520  1.00  0.00     0.001 A 
HETATM   16  C   UNL     1      28.623  44.846  54.468  1.00  0.00     0.014 A 
ENDROOT
BRANCH   1  17
HETATM   17  C   UNL     1      28.180  40.810  49.701  1.00  0.00     0.063 A 
HETATM   18  N   UNL     1      28.783  39.999  50.620  1.00  0.00    -0.256 NA
HETATM   19  C   UNL     1      29.090  38.729  50.264  1.00  0.00     0.031 A 
HETATM   20  C   UNL     1      29.787  37.879  51.284  1.00  0.00     0.070 C 
HETATM   21  C   UNL     1      28.794  38.211  49.010  1.00  0.00     0.027 A 
HETATM   22  C   UNL     1      28.176  39.035  48.079  1.00  0.00     0.004 A 
HETATM   23  C   UNL     1      27.870  40.348  48.423  1.00  0.00     0.030 A 
ENDBRANCH   1  17
BRANCH   3  24
HETATM   24  C   UNL     1      24.020  42.395  50.640  1.00  0.00     0.141 C 
BRANCH  24  25
HETATM   25  C   UNL     1      23.303  42.508  49.314  1.00  0.00    -0.047 A 
HETATM   26  C   UNL     1      22.645  43.683  48.920  1.00  0.00     0.047 A 
HETATM   27  C   UNL     1      21.993  43.762  47.682  1.00  0.00     0.102 A 
HETATM   28  C   UNL     1      22.027  42.660  46.805  1.00  0.00     0.101 A 
HETATM   29  C   UNL     1      22.711  41.501  47.183  1.00  0.00     0.040 A 
HETATM   30  C   UNL     1      23.345  41.428  48.424  1.00  0.00     0.010 A 
BRANCH  27  31
HETATM   31  O   UNL     1      21.310  44.869  47.240  1.00  0.00    -0.353 OA
HETATM   32  C   UNL     1      20.188  45.291  48.003  1.00  0.00     0.210 C 
ENDBRANCH  27  31
BRANCH  28  33
HETATM   33  O   UNL     1      21.370  42.815  45.609  1.00  0.00    -0.353 OA
HETATM   34  C   UNL     1      20.162  42.092  45.425  1.00  0.00     0.210 C 
ENDBRANCH  28  33
ENDBRANCH  24  25
ENDBRANCH   3  24
TORSDOF 5
ENDMDL
MODEL 6
REMARK VINA RESULT:      -8.6      5.652     10.247
REMARK  5 active torsions:
REMARK  status: ('A' for Active; 'I' for Inactive)
REMARK    1  A    between atoms: C_4  and  C_5 
REMARK       I    between atoms: N_6  and  C_7 
REMARK    2  A    between atoms: C_7  and  C_8 
REMARK    3  A    between atoms: C_8  and  C_9 
REMARK    4  A    between atoms: C_11  and  O_12 
REMARK    5  A    between atoms: C_14  and  O_15 
ROOT
HETATM    1  C   UNL     1      22.257  47.329  47.774  1.00  0.00     0.189 C 
HETATM    2  N   UNL     1      22.064  48.798  47.910  1.00  0.00    -0.336 N 
HETATM    3  C   UNL     1      20.982  49.288  48.646  1.00  0.00     0.225 C 
HETATM    4  O   UNL     1      20.114  48.569  49.142  1.00  0.00    -0.273 OA
HETATM    5  C   UNL     1      23.344  49.536  47.880  1.00  0.00     0.132 C 
HETATM    6  C   UNL     1      24.182  49.242  49.149  1.00  0.00     0.061 C 
HETATM    7  C   UNL     1      24.070  47.798  49.531  1.00  0.00    -0.019 A 
HETATM    8  C   UNL     1      23.172  46.939  48.914  1.00  0.00     0.046 A 
HETATM    9  N   UNL     1      23.334  45.699  49.469  1.00  0.00    -0.356 N 
HETATM   10  H   UNL     1      22.838  44.859  49.196  1.00  0.00     0.166 HD
HETATM   11  C   UNL     1      24.248  45.763  50.501  1.00  0.00     0.043 A 
HETATM   12  C   UNL     1      24.737  47.071  50.549  1.00  0.00    -0.001 A 
HETATM   13  C   UNL     1      24.676  44.770  51.390  1.00  0.00     0.030 A 
HETATM   14  C   UNL     1      25.628  45.125  52.352  1.00  0.00     0.002 A 
HETATM   15  C   UNL     1      26.137  46.420  52.417  1.00  0.00     0.001 A 
HETATM   16  C   UNL     1      25.702  47.402  51.520  1.00  0.00     0.014 A 
ENDROOT
BRANCH   1  17
HETATM   17  C   UNL     1      21.036  46.472  47.449  1.00  0.00     0.063 A 
HETATM   18  N   UNL     1      20.534  46.605  46.186  1.00  0.00    -0.256 NA
HETATM   19  C   UNL     1      19.444  45.879  45.839  1.00  0.00     0.031 A 
HETATM   20  C   UNL     1      18.896  46.080  44.459  1.00  0.00     0.070 C 
HETATM   21  C   UNL     1      18.832  44.986  46.710  1.00  0.00     0.027 A 
HETATM   22  C   UNL     1      19.348  44.847  47.991  1.00  0.00     0.004 A 
HETATM   23  C   UNL     1      20.456  45.601  48.369  1.00  0.00     0.030 A 
ENDBRANCH   1  17
BRANCH   3  24
HETATM   24  C   UNL     1      20.876  50.793  48.863  1.00  0.00     0.141 C 
BRANCH  24  25
HETATM   25  C   UNL     1      19.487  51.384  48.780  1.00  0.00    -0.047 A 
HETATM   26  C   UNL     1      18.769  51.433  47.575  1.00  0.00     0.047 A 
HETATM   27  C   UNL     1      17.481  51.981  47.527  1.00  0.00     0.102 A 
HETATM   28  C   UNL     1      16.882  52.457  48.711  1.00  0.00     0.101 A 
HETATM   29  C   UNL     1      17.584  52.377  49.917  1.00  0.00     0.040 A 
HETATM   30  C   UNL     1      18.872  51.842  49.950  1.00  0.00     0.010 A 
BRANCH  27  31
HETATM   31  O   UNL     1      16.728  52.084  46.383  1.00  0.00    -0.353 OA
HETATM   32  C   UNL     1      17.423  52.069  45.142  1.00  0.00     0.210 C 
ENDBRANCH  27  31
BRANCH  28  33
HETATM   33  O   UNL     1      15.616  52.974  48.586  1.00  0.00    -0.353 OA
HETATM   34  C   UNL     1      14.824  53.064  49.760  1.00  0.00     0.210 C 
ENDBRANCH  28  33
ENDBRANCH  24  25
ENDBRANCH   3  24
TORSDOF 5
ENDMDL
MODEL 7
REMARK VINA RESULT:      -8.6     13.802     17.372
REMARK  5 active torsions:
REMARK  status: ('A' for Active; 'I' for Inactive)
REMARK    1  A    between atoms: C_4  and  C_5 
REMARK       I    between atoms: N_6  and  C_7 
REMARK    2  A    between atoms: C_7  and  C_8 
REMARK    3  A    between atoms: C_8  and  C_9 
REMARK    4  A    between atoms: C_11  and  O_12 
REMARK    5  A    between atoms: C_14  and  O_15 
ROOT
HETATM    1  C   UNL     1      35.974  54.572  39.073  1.00  0.00     0.189 C 
HETATM    2  N   UNL     1      37.251  54.360  39.808  1.00  0.00    -0.336 N 
HETATM    3  C   UNL     1      37.469  55.021  41.019  1.00  0.00     0.225 C 
HETATM    4  O   UNL     1      36.688  55.845  41.497  1.00  0.00    -0.273 OA
HETATM    5  C   UNL     1      37.811  53.011  39.580  1.00  0.00     0.132 C 
HETATM    6  C   UNL     1      36.922  51.925  40.236  1.00  0.00     0.061 C 
HETATM    7  C   UNL     1      35.471  52.258  40.065  1.00  0.00    -0.019 A 
HETATM    8  C   UNL     1      35.049  53.478  39.555  1.00  0.00     0.046 A 
HETATM    9  N   UNL     1      33.682  53.457  39.504  1.00  0.00    -0.356 N 
HETATM   10  H   UNL     1      33.092  54.196  39.144  1.00  0.00     0.166 HD
HETATM   11  C   UNL     1      33.210  52.287  40.064  1.00  0.00     0.043 A 
HETATM   12  C   UNL     1      34.318  51.509  40.410  1.00  0.00    -0.001 A 
HETATM   13  C   UNL     1      31.896  51.860  40.290  1.00  0.00     0.030 A 
HETATM   14  C   UNL     1      31.712  50.607  40.884  1.00  0.00     0.002 A 
HETATM   15  C   UNL     1      32.799  49.809  41.232  1.00  0.00     0.001 A 
HETATM   16  C   UNL     1      34.107  50.247  40.999  1.00  0.00     0.014 A 
ENDROOT
BRANCH   1  17
HETATM   17  C   UNL     1      35.457  56.002  38.933  1.00  0.00     0.063 A 
HETATM   18  N   UNL     1      34.447  56.356  39.781  1.00  0.00    -0.256 NA
HETATM   19  C   UNL     1      33.937  57.608  39.699  1.00  0.00     0.031 A 
HETATM   20  C   UNL     1      32.802  57.950  40.617  1.00  0.00     0.070 C 
HETATM   21  C   UNL     1      34.419  58.555  38.804  1.00  0.00     0.027 A 
HETATM   22  C   UNL     1      35.451  58.195  37.947  1.00  0.00     0.004 A 
HETATM   23  C   UNL     1      35.972  56.906  38.005  1.00  0.00     0.030 A 
ENDBRANCH   1  17
BRANCH   3  24
HETATM   24  C   UNL     1      38.735  54.694  41.804  1.00  0.00     0.141 C 
BRANCH  24  25
HETATM   25  C   UNL     1      38.620  54.750  43.310  1.00  0.00    -0.047 A 
HETATM   26  C   UNL     1      39.041  55.866  44.049  1.00  0.00     0.047 A 
HETATM   27  C   UNL     1      38.917  55.894  45.445  1.00  0.00     0.102 A 
HETATM   28  C   UNL     1      38.329  54.802  46.114  1.00  0.00     0.101 A 
HETATM   29  C   UNL     1      37.879  53.704  45.375  1.00  0.00     0.040 A 
HETATM   30  C   UNL     1      38.019  53.682  43.986  1.00  0.00     0.010 A 
BRANCH  27  31
HETATM   31  O   UNL     1      39.328  56.939  46.235  1.00  0.00    -0.353 OA
HETATM   32  C   UNL     1      39.436  58.217  45.621  1.00  0.00     0.210 C 
ENDBRANCH  27  31
BRANCH  28  33
HETATM   33  O   UNL     1      38.237  54.904  47.480  1.00  0.00    -0.353 OA
HETATM   34  C   UNL     1      38.710  53.811  48.253  1.00  0.00     0.210 C 
ENDBRANCH  28  33
ENDBRANCH  24  25
ENDBRANCH   3  24
TORSDOF 5
ENDMDL
MODEL 8
REMARK VINA RESULT:      -8.4      3.168      5.171
REMARK  5 active torsions:
REMARK  status: ('A' for Active; 'I' for Inactive)
REMARK    1  A    between atoms: C_4  and  C_5 
REMARK       I    between atoms: N_6  and  C_7 
REMARK    2  A    between atoms: C_7  and  C_8 
REMARK    3  A    between atoms: C_8  and  C_9 
REMARK    4  A    between atoms: C_11  and  O_12 
REMARK    5  A    between atoms: C_14  and  O_15 
ROOT
HETATM    1  C   UNL     1      26.098  41.876  51.204  1.00  0.00     0.189 C 
HETATM    2  N   UNL     1      26.983  41.038  50.351  1.00  0.00    -0.336 N 
HETATM    3  C   UNL     1      27.545  41.581  49.194  1.00  0.00     0.225 C 
HETATM    4  O   UNL     1      27.292  42.714  48.780  1.00  0.00    -0.273 OA
HETATM    5  C   UNL     1      27.721  40.025  51.137  1.00  0.00     0.132 C 
HETATM    6  C   UNL     1      28.768  40.696  52.060  1.00  0.00     0.061 C 
HETATM    7  C   UNL     1      28.219  41.959  52.649  1.00  0.00    -0.019 A 
HETATM    8  C   UNL     1      27.011  42.502  52.235  1.00  0.00     0.046 A 
HETATM    9  N   UNL     1      26.784  43.629  52.977  1.00  0.00    -0.356 N 
HETATM   10  H   UNL     1      25.964  44.219  52.922  1.00  0.00     0.166 HD
HETATM   11  C   UNL     1      27.870  43.879  53.792  1.00  0.00     0.043 A 
HETATM   12  C   UNL     1      28.780  42.833  53.615  1.00  0.00    -0.001 A 
HETATM   13  C   UNL     1      28.116  44.945  54.666  1.00  0.00     0.030 A 
HETATM   14  C   UNL     1      29.321  44.939  55.375  1.00  0.00     0.002 A 
HETATM   15  C   UNL     1      30.242  43.904  55.223  1.00  0.00     0.001 A 
HETATM   16  C   UNL     1      29.982  42.844  54.347  1.00  0.00     0.014 A 
ENDROOT
BRANCH   1  17
HETATM   17  C   UNL     1      25.032  42.724  50.514  1.00  0.00     0.063 A 
HETATM   18  N   UNL     1      25.173  44.077  50.639  1.00  0.00    -0.256 NA
HETATM   19  C   UNL     1      24.254  44.884  50.058  1.00  0.00     0.031 A 
HETATM   20  C   UNL     1      24.417  46.362  50.250  1.00  0.00     0.070 C 
HETATM   21  C   UNL     1      23.187  44.391  49.318  1.00  0.00     0.027 A 
HETATM   22  C   UNL     1      23.048  43.015  49.186  1.00  0.00     0.004 A 
HETATM   23  C   UNL     1      23.974  42.172  49.794  1.00  0.00     0.030 A 
ENDBRANCH   1  17
BRANCH   3  24
HETATM   24  C   UNL     1      28.538  40.735  48.405  1.00  0.00     0.141 C 
BRANCH  24  25
HETATM   25  C   UNL     1      27.948  39.646  47.539  1.00  0.00    -0.047 A 
HETATM   26  C   UNL     1      27.100  39.930  46.458  1.00  0.00     0.047 A 
HETATM   27  C   UNL     1      26.571  38.901  45.667  1.00  0.00     0.102 A 
HETATM   28  C   UNL     1      26.922  37.564  45.938  1.00  0.00     0.101 A 
HETATM   29  C   UNL     1      27.794  37.283  46.994  1.00  0.00     0.040 A 
HETATM   30  C   UNL     1      28.304  38.315  47.783  1.00  0.00     0.010 A 
BRANCH  27  31
HETATM   31  O   UNL     1      25.717  39.102  44.610  1.00  0.00    -0.353 OA
HETATM   32  C   UNL     1      25.071  40.366  44.524  1.00  0.00     0.210 C 
ENDBRANCH  27  31
BRANCH  28  33
HETATM   33  O   UNL     1      26.369  36.612  45.118  1.00  0.00    -0.353 OA
HETATM   34  C   UNL     1      25.473  35.680  45.705  1.00  0.00     0.210 C 
ENDBRANCH  28  33
ENDBRANCH  24  25
ENDBRANCH   3  24
TORSDOF 5
ENDMDL
MODEL 9
REMARK VINA RESULT:      -8.4      6.001     10.531
REMARK  5 active torsions:
REMARK  status: ('A' for Active; 'I' for Inactive)
REMARK    1  A    between atoms: C_4  and  C_5 
REMARK       I    between atoms: N_6  and  C_7 
REMARK    2  A    between atoms: C_7  and  C_8 
REMARK    3  A    between atoms: C_8  and  C_9 
REMARK    4  A    between atoms: C_11  and  O_12 
REMARK    5  A    between atoms: C_14  and  O_15 
ROOT
HETATM    1  C   UNL     1      18.089  48.415  48.660  1.00  0.00     0.189 C 
HETATM    2  N   UNL     1      19.195  49.174  49.306  1.00  0.00    -0.336 N 
HETATM    3  C   UNL     1      20.368  49.429  48.592  1.00  0.00     0.225 C 
HETATM    4  O   UNL     1      20.585  48.995  47.460  1.00  0.00    -0.273 OA
HETATM    5  C   UNL     1      18.698  50.147  50.302  1.00  0.00     0.132 C 
HETATM    6  C   UNL     1      17.928  51.300  49.612  1.00  0.00     0.061 C 
HETATM    7  C   UNL     1      17.095  50.776  48.483  1.00  0.00    -0.019 A 
HETATM    8  C   UNL     1      17.193  49.464  48.040  1.00  0.00     0.046 A 
HETATM    9  N   UNL     1      16.292  49.298  47.025  1.00  0.00    -0.356 N 
HETATM   10  H   UNL     1      16.112  48.435  46.528  1.00  0.00     0.166 HD
HETATM   11  C   UNL     1      15.685  50.504  46.736  1.00  0.00     0.043 A 
HETATM   12  C   UNL     1      16.163  51.446  47.651  1.00  0.00    -0.001 A 
HETATM   13  C   UNL     1      14.757  50.831  45.740  1.00  0.00     0.030 A 
HETATM   14  C   UNL     1      14.306  52.154  45.681  1.00  0.00     0.002 A 
HETATM   15  C   UNL     1      14.761  53.111  46.586  1.00  0.00     0.001 A 
HETATM   16  C   UNL     1      15.687  52.770  47.577  1.00  0.00     0.014 A 
ENDROOT
BRANCH   1  17
HETATM   17  C   UNL     1      18.448  47.157  47.873  1.00  0.00     0.063 A 
HETATM   18  N   UNL     1      18.091  47.156  46.555  1.00  0.00    -0.256 NA
HETATM   19  C   UNL     1      18.373  46.064  45.804  1.00  0.00     0.031 A 
HETATM   20  C   UNL     1      17.930  46.082  44.372  1.00  0.00     0.070 C 
HETATM   21  C   UNL     1      19.033  44.955  46.317  1.00  0.00     0.027 A 
HETATM   22  C   UNL     1      19.401  44.960  47.656  1.00  0.00     0.004 A 
HETATM   23  C   UNL     1      19.102  46.067  48.445  1.00  0.00     0.030 A 
ENDBRANCH   1  17
BRANCH   3  24
HETATM   24  C   UNL     1      21.433  50.307  49.240  1.00  0.00     0.141 C 
BRANCH  24  25
HETATM   25  C   UNL     1      22.867  49.862  49.057  1.00  0.00    -0.047 A 
HETATM   26  C   UNL     1      23.346  48.654  49.586  1.00  0.00     0.047 A 
HETATM   27  C   UNL     1      24.678  48.263  49.396  1.00  0.00     0.102 A 
HETATM   28  C   UNL     1      25.540  49.075  48.633  1.00  0.00     0.101 A 
HETATM   29  C   UNL     1      25.054  50.262  48.076  1.00  0.00     0.040 A 
HETATM   30  C   UNL     1      23.728  50.648  48.284  1.00  0.00     0.010 A 
BRANCH  27  31
HETATM   31  O   UNL     1      25.223  47.109  49.903  1.00  0.00    -0.353 OA
HETATM   32  C   UNL     1      25.194  46.939  51.314  1.00  0.00     0.210 C 
ENDBRANCH  27  31
BRANCH  28  33
HETATM   33  O   UNL     1      26.829  48.624  48.486  1.00  0.00    -0.353 OA
HETATM   34  C   UNL     1      27.847  49.300  49.206  1.00  0.00     0.210 C 
ENDBRANCH  28  33
ENDBRANCH  24  25
ENDBRANCH   3  24
TORSDOF 5
ENDMDL
MODEL 10
REMARK VINA RESULT:      -8.3      2.943      7.550
REMARK  5 active torsions:
REMARK  status: ('A' for Active; 'I' for Inactive)
REMARK    1  A    between atoms: C_4  and  C_5 
REMARK       I    between atoms: N_6  and  C_7 
REMARK    2  A    between atoms: C_7  and  C_8 
REMARK    3  A    between atoms: C_8  and  C_9 
REMARK    4  A    between atoms: C_11  and  O_12 
REMARK    5  A    between atoms: C_14  and  O_15 
ROOT
HETATM    1  C   UNL     1      24.873  42.582  49.309  1.00  0.00     0.189 C 
HETATM    2  N   UNL     1      24.920  43.758  50.220  1.00  0.00    -0.336 N 
HETATM    3  C   UNL     1      26.022  44.616  50.186  1.00  0.00     0.225 C 
HETATM    4  O   UNL     1      27.017  44.419  49.488  1.00  0.00    -0.273 OA
HETATM    5  C   UNL     1      23.572  44.283  50.524  1.00  0.00     0.132 C 
HETATM    6  C   UNL     1      22.930  44.922  49.267  1.00  0.00     0.061 C 
HETATM    7  C   UNL     1      23.245  44.114  48.046  1.00  0.00    -0.019 A 
HETATM    8  C   UNL     1      24.152  43.063  48.070  1.00  0.00     0.046 A 
HETATM    9  N   UNL     1      24.195  42.521  46.815  1.00  0.00    -0.356 N 
HETATM   10  H   UNL     1      24.743  41.718  46.535  1.00  0.00     0.166 HD
HETATM   11  C   UNL     1      23.410  43.265  45.957  1.00  0.00     0.043 A 
HETATM   12  C   UNL     1      22.790  44.264  46.712  1.00  0.00    -0.001 A 
HETATM   13  C   UNL     1      23.204  43.132  44.578  1.00  0.00     0.030 A 
HETATM   14  C   UNL     1      22.342  44.043  43.959  1.00  0.00     0.002 A 
HETATM   15  C   UNL     1      21.705  45.043  44.690  1.00  0.00     0.001 A 
HETATM   16  C   UNL     1      21.919  45.164  46.067  1.00  0.00     0.014 A 
ENDROOT
BRANCH   1  17
HETATM   17  C   UNL     1      26.133  41.729  49.175  1.00  0.00     0.063 A 
HETATM   18  N   UNL     1      26.674  41.657  47.923  1.00  0.00    -0.256 NA
HETATM   19  C   UNL     1      27.787  40.908  47.736  1.00  0.00     0.031 A 
HETATM   20  C   UNL     1      28.330  40.820  46.342  1.00  0.00     0.070 C 
HETATM   21  C   UNL     1      28.414  40.230  48.774  1.00  0.00     0.027 A 
HETATM   22  C   UNL     1      27.867  40.310  50.047  1.00  0.00     0.004 A 
HETATM   23  C   UNL     1      26.712  41.060  50.252  1.00  0.00     0.030 A 
ENDBRANCH   1  17
BRANCH   3  24
HETATM   24  C   UNL     1      25.987  45.873  51.047  1.00  0.00     0.141 C 
BRANCH  24  25
HETATM   25  C   UNL     1      26.608  45.760  52.420  1.00  0.00    -0.047 A 
HETATM   26  C   UNL     1      27.280  44.602  52.841  1.00  0.00     0.047 A 
HETATM   27  C   UNL     1      27.852  44.526  54.118  1.00  0.00     0.102 A 
HETATM   28  C   UNL     1      27.784  45.638  54.979  1.00  0.00     0.101 A 
HETATM   29  C   UNL     1      27.145  46.804  54.548  1.00  0.00     0.040 A 
HETATM   30  C   UNL     1      26.566  46.864  53.279  1.00  0.00     0.010 A 
BRANCH  27  31
HETATM   31  O   UNL     1      28.502  43.419  54.607  1.00  0.00    -0.353 OA
HETATM   32  C   UNL     1      29.714  43.040  53.967  1.00  0.00     0.210 C 
ENDBRANCH  27  31
BRANCH  28  33
HETATM   33  O   UNL     1      28.372  45.490  56.212  1.00  0.00    -0.353 OA
HETATM   34  C   UNL     1      29.701  45.964  56.367  1.00  0.00     0.210 C 
ENDBRANCH  28  33
ENDBRANCH  24  25
ENDBRANCH   3  24
TORSDOF 5
ENDMDL
