MODEL 1
REMARK VINA RESULT:      -8.5      0.000      0.000
REMARK  8 active torsions:
REMARK  status: ('A' for Active; 'I' for Inactive)
REMARK    1  A    between atoms: N_2  and  C_5 
REMARK    2  A    between atoms: C_5  and  C_6 
REMARK    3  A    between atoms: C_6  and  S_7 
REMARK    4  A    between atoms: S_7  and  C_8 
REMARK    5  A    between atoms: C_10  and  C_25 
REMARK    6  A    between atoms: C_13  and  N_14 
REMARK       I    between atoms: N_14  and  C_15 
REMARK       I    between atoms: C_15  and  N_17 
REMARK    7  A    between atoms: N_17  and  C_18 
REMARK    8  A    between atoms: C_18  and  C_19 
ROOT
HETATM    1  C   UNL     1      27.812  42.760  51.303  1.00  0.00     0.028 A 
HETATM    2  C   UNL     1      27.961  41.589  50.548  1.00  0.00     0.033 A 
HETATM    3  C   UNL     1      28.433  40.409  51.139  1.00  0.00    -0.022 A 
HETATM    4  C   UNL     1      28.748  40.423  52.503  1.00  0.00     0.014 A 
HETATM    5  C   UNL     1      28.618  41.594  53.260  1.00  0.00     0.032 A 
HETATM    6  C   UNL     1      28.172  42.774  52.663  1.00  0.00     0.053 A 
ENDROOT
BRANCH   6   7
HETATM    7  N   UNL     1      28.114  43.996  53.371  1.00  0.00    -0.308 N 
HETATM    8  C   UNL     1      27.247  44.293  54.382  1.00  0.00     0.321 C 
HETATM    9  O   UNL     1      26.205  43.682  54.598  1.00  0.00    -0.247 OA
HETATM   10  N   UNL     1      27.539  45.397  55.117  1.00  0.00    -0.339 N 
HETATM   11  H   UNL     1      26.937  45.485  55.929  1.00  0.00     0.164 HD
HETATM   12  H   UNL     1      28.703  44.737  53.018  1.00  0.00     0.170 HD
BRANCH  10  13
HETATM   13  C   UNL     1      28.805  46.100  55.181  1.00  0.00     0.162 C 
BRANCH  13  14
HETATM   14  C   UNL     1      29.743  45.468  56.172  1.00  0.00    -0.040 A 
HETATM   15  C   UNL     1      29.780  45.921  57.499  1.00  0.00     0.009 A 
HETATM   16  C   UNL     1      30.644  45.334  58.424  1.00  0.00     0.001 A 
HETATM   17  C   UNL     1      31.479  44.288  58.036  1.00  0.00     0.000 A 
HETATM   18  C   UNL     1      31.449  43.825  56.723  1.00  0.00     0.001 A 
HETATM   19  C   UNL     1      30.582  44.407  55.796  1.00  0.00     0.009 A 
ENDBRANCH  13  14
ENDBRANCH  10  13
ENDBRANCH   6   7
BRANCH   1  20
HETATM   20  S   UNL     1      27.001  44.189  50.573  1.00  0.00    -0.126 SA
BRANCH  20  21
HETATM   21  C   UNL     1      25.271  43.866  51.109  1.00  0.00     0.107 C 
BRANCH  21  22
HETATM   22  C   UNL     1      24.574  45.072  51.764  1.00  0.00     0.244 C 
BRANCH  22  23
HETATM   23  N   UNL     1      25.295  46.379  51.492  1.00  0.00    -0.078 N 
HETATM   24  C   UNL     1      24.616  47.240  50.465  1.00  0.00     0.269 C 
HETATM   25  H   UNL     1      26.223  46.124  51.124  1.00  0.00     0.279 HD
HETATM   26  C   UNL     1      25.569  47.147  52.761  1.00  0.00     0.269 C 
ENDBRANCH  22  23
ENDBRANCH  21  22
ENDBRANCH  20  21
ENDBRANCH   1  20
BRANCH   3  27
HETATM   27  C   UNL     1      28.579  39.203  50.338  1.00  0.00     0.010 A 
HETATM   28  C   UNL     1      27.800  38.707  49.265  1.00  0.00     0.152 A 
HETATM   29  N   UNL     1      28.240  37.536  48.802  1.00  0.00    -0.187 NA
HETATM   30  N   UNL     1      29.325  37.287  49.552  1.00  0.00    -0.289 N 
HETATM   31  H   UNL     1      29.852  36.439  49.368  1.00  0.00     0.188 HD
HETATM   32  C   UNL     1      29.560  38.246  50.496  1.00  0.00     0.123 A 
ENDBRANCH   3  27
TORSDOF 8
ENDMDL
MODEL 2
REMARK VINA RESULT:      -8.3      2.514      7.696
REMARK  8 active torsions:
REMARK  status: ('A' for Active; 'I' for Inactive)
REMARK    1  A    between atoms: N_2  and  C_5 
REMARK    2  A    between atoms: C_5  and  C_6 
REMARK    3  A    between atoms: C_6  and  S_7 
REMARK    4  A    between atoms: S_7  and  C_8 
REMARK    5  A    between atoms: C_10  and  C_25 
REMARK    6  A    between atoms: C_13  and  N_14 
REMARK       I    between atoms: N_14  and  C_15 
REMARK       I    between atoms: C_15  and  N_17 
REMARK    7  A    between atoms: N_17  and  C_18 
REMARK    8  A    between atoms: C_18  and  C_19 
ROOT
HETATM    1  C   UNL     1      27.839  44.280  53.786  1.00  0.00     0.028 A 
HETATM    2  C   UNL     1      28.887  43.891  54.631  1.00  0.00     0.033 A 
HETATM    3  C   UNL     1      29.416  44.782  55.574  1.00  0.00    -0.022 A 
HETATM    4  C   UNL     1      28.871  46.069  55.659  1.00  0.00     0.014 A 
HETATM    5  C   UNL     1      27.836  46.470  54.805  1.00  0.00     0.032 A 
HETATM    6  C   UNL     1      27.328  45.588  53.850  1.00  0.00     0.053 A 
ENDROOT
BRANCH   6   7
HETATM    7  N   UNL     1      26.348  45.984  52.912  1.00  0.00    -0.308 N 
HETATM    8  C   UNL     1      25.557  47.093  53.003  1.00  0.00     0.321 C 
HETATM    9  O   UNL     1      25.359  47.714  54.043  1.00  0.00    -0.247 OA
HETATM   10  N   UNL     1      24.891  47.449  51.874  1.00  0.00    -0.339 N 
HETATM   11  H   UNL     1      24.433  48.349  51.970  1.00  0.00     0.164 HD
HETATM   12  H   UNL     1      26.159  45.326  52.169  1.00  0.00     0.170 HD
BRANCH  10  13
HETATM   13  C   UNL     1      25.162  47.009  50.519  1.00  0.00     0.162 C 
BRANCH  13  14
HETATM   14  C   UNL     1      25.646  48.140  49.654  1.00  0.00    -0.040 A 
HETATM   15  C   UNL     1      24.735  48.897  48.904  1.00  0.00     0.009 A 
HETATM   16  C   UNL     1      25.178  49.951  48.105  1.00  0.00     0.001 A 
HETATM   17  C   UNL     1      26.534  50.261  48.045  1.00  0.00     0.000 A 
HETATM   18  C   UNL     1      27.451  49.521  48.788  1.00  0.00     0.001 A 
HETATM   19  C   UNL     1      27.009  48.469  49.594  1.00  0.00     0.009 A 
ENDBRANCH  13  14
ENDBRANCH  10  13
ENDBRANCH   6   7
BRANCH   1  20
HETATM   20  S   UNL     1      27.039  43.052  52.743  1.00  0.00    -0.126 SA
BRANCH  20  21
HETATM   21  C   UNL     1      28.523  42.312  51.947  1.00  0.00     0.107 C 
BRANCH  21  22
HETATM   22  C   UNL     1      28.685  40.800  52.189  1.00  0.00     0.244 C 
BRANCH  22  23
HETATM   23  N   UNL     1      28.237  39.970  51.001  1.00  0.00    -0.078 N 
HETATM   24  C   UNL     1      27.933  40.784  49.776  1.00  0.00     0.269 C 
HETATM   25  H   UNL     1      27.366  39.501  51.291  1.00  0.00     0.279 HD
HETATM   26  C   UNL     1      29.204  38.854  50.695  1.00  0.00     0.269 C 
ENDBRANCH  22  23
ENDBRANCH  21  22
ENDBRANCH  20  21
ENDBRANCH   1  20
BRANCH   3  27
HETATM   27  C   UNL     1      30.503  44.359  56.444  1.00  0.00     0.010 A 
HETATM   28  C   UNL     1      30.923  44.852  57.704  1.00  0.00     0.152 A 
HETATM   29  N   UNL     1      31.994  44.213  58.179  1.00  0.00    -0.187 NA
HETATM   30  N   UNL     1      32.250  43.284  57.246  1.00  0.00    -0.289 N 
HETATM   31  H   UNL     1      33.027  42.650  57.398  1.00  0.00     0.188 HD
HETATM   32  C   UNL     1      31.396  43.342  56.180  1.00  0.00     0.123 A 
ENDBRANCH   3  27
TORSDOF 8
ENDMDL
MODEL 3
REMARK VINA RESULT:      -8.1      2.689      7.092
REMARK  8 active torsions:
REMARK  status: ('A' for Active; 'I' for Inactive)
REMARK    1  A    between atoms: N_2  and  C_5 
REMARK    2  A    between atoms: C_5  and  C_6 
REMARK    3  A    between atoms: C_6  and  S_7 
REMARK    4  A    between atoms: S_7  and  C_8 
REMARK    5  A    between atoms: C_10  and  C_25 
REMARK    6  A    between atoms: C_13  and  N_14 
REMARK       I    between atoms: N_14  and  C_15 
REMARK       I    between atoms: C_15  and  N_17 
REMARK    7  A    between atoms: N_17  and  C_18 
REMARK    8  A    between atoms: C_18  and  C_19 
ROOT
HETATM    1  C   UNL     1      27.378  44.208  53.619  1.00  0.00     0.028 A 
HETATM    2  C   UNL     1      28.208  44.346  54.739  1.00  0.00     0.033 A 
HETATM    3  C   UNL     1      29.514  43.837  54.733  1.00  0.00    -0.022 A 
HETATM    4  C   UNL     1      29.974  43.191  53.579  1.00  0.00     0.014 A 
HETATM    5  C   UNL     1      29.144  43.034  52.462  1.00  0.00     0.032 A 
HETATM    6  C   UNL     1      27.836  43.520  52.481  1.00  0.00     0.053 A 
ENDROOT
BRANCH   6   7
HETATM    7  N   UNL     1      26.940  43.301  51.410  1.00  0.00    -0.308 N 
HETATM    8  C   UNL     1      27.019  43.874  50.174  1.00  0.00     0.321 C 
HETATM    9  O   UNL     1      27.668  44.884  49.923  1.00  0.00    -0.247 OA
HETATM   10  N   UNL     1      26.242  43.321  49.207  1.00  0.00    -0.339 N 
HETATM   11  H   UNL     1      26.446  43.704  48.289  1.00  0.00     0.164 HD
HETATM   12  H   UNL     1      26.122  42.749  51.627  1.00  0.00     0.170 HD
BRANCH  10  13
HETATM   13  C   UNL     1      25.605  42.019  49.230  1.00  0.00     0.162 C 
BRANCH  13  14
HETATM   14  C   UNL     1      26.572  40.920  48.887  1.00  0.00    -0.040 A 
HETATM   15  C   UNL     1      26.622  39.754  49.665  1.00  0.00     0.009 A 
HETATM   16  C   UNL     1      27.513  38.728  49.348  1.00  0.00     0.001 A 
HETATM   17  C   UNL     1      28.362  38.854  48.250  1.00  0.00     0.000 A 
HETATM   18  C   UNL     1      28.320  40.003  47.466  1.00  0.00     0.001 A 
HETATM   19  C   UNL     1      27.426  41.030  47.778  1.00  0.00     0.009 A 
ENDBRANCH  13  14
ENDBRANCH  10  13
ENDBRANCH   6   7
BRANCH   1  20
HETATM   20  S   UNL     1      25.794  45.059  53.578  1.00  0.00    -0.126 SA
BRANCH  20  21
HETATM   21  C   UNL     1      26.303  46.611  52.731  1.00  0.00     0.107 C 
BRANCH  21  22
HETATM   22  C   UNL     1      25.225  47.216  51.814  1.00  0.00     0.244 C 
BRANCH  22  23
HETATM   23  N   UNL     1      25.486  46.938  50.346  1.00  0.00    -0.078 N 
HETATM   24  C   UNL     1      24.273  46.465  49.597  1.00  0.00     0.269 C 
HETATM   25  H   UNL     1      26.187  46.183  50.317  1.00  0.00     0.279 HD
HETATM   26  C   UNL     1      26.137  48.110  49.656  1.00  0.00     0.269 C 
ENDBRANCH  22  23
ENDBRANCH  21  22
ENDBRANCH  20  21
ENDBRANCH   1  20
BRANCH   3  27
HETATM   27  C   UNL     1      30.360  43.993  55.905  1.00  0.00     0.010 A 
HETATM   28  C   UNL     1      31.350  43.138  56.450  1.00  0.00     0.152 A 
HETATM   29  N   UNL     1      31.895  43.622  57.568  1.00  0.00    -0.187 NA
HETATM   30  N   UNL     1      31.284  44.806  57.732  1.00  0.00    -0.289 N 
HETATM   31  H   UNL     1      31.552  45.380  58.525  1.00  0.00     0.188 HD
HETATM   32  C   UNL     1      30.345  45.065  56.772  1.00  0.00     0.123 A 
ENDBRANCH   3  27
TORSDOF 8
ENDMDL
MODEL 4
REMARK VINA RESULT:      -7.9      1.675      2.084
REMARK  8 active torsions:
REMARK  status: ('A' for Active; 'I' for Inactive)
REMARK    1  A    between atoms: N_2  and  C_5 
REMARK    2  A    between atoms: C_5  and  C_6 
REMARK    3  A    between atoms: C_6  and  S_7 
REMARK    4  A    between atoms: S_7  and  C_8 
REMARK    5  A    between atoms: C_10  and  C_25 
REMARK    6  A    between atoms: C_13  and  N_14 
REMARK       I    between atoms: N_14  and  C_15 
REMARK       I    between atoms: C_15  and  N_17 
REMARK    7  A    between atoms: N_17  and  C_18 
REMARK    8  A    between atoms: C_18  and  C_19 
ROOT
HETATM    1  C   UNL     1      26.794  43.591  51.026  1.00  0.00     0.028 A 
HETATM    2  C   UNL     1      26.763  42.639  49.998  1.00  0.00     0.033 A 
HETATM    3  C   UNL     1      27.530  41.469  50.080  1.00  0.00    -0.022 A 
HETATM    4  C   UNL     1      28.324  41.267  51.216  1.00  0.00     0.014 A 
HETATM    5  C   UNL     1      28.373  42.223  52.239  1.00  0.00     0.032 A 
HETATM    6  C   UNL     1      27.628  43.399  52.142  1.00  0.00     0.053 A 
ENDROOT
BRANCH   6   7
HETATM    7  N   UNL     1      27.721  44.425  53.109  1.00  0.00    -0.308 N 
HETATM    8  C   UNL     1      27.018  44.488  54.278  1.00  0.00     0.321 C 
HETATM    9  O   UNL     1      25.993  43.851  54.500  1.00  0.00    -0.247 OA
HETATM   10  N   UNL     1      27.455  45.391  55.192  1.00  0.00    -0.339 N 
HETATM   11  H   UNL     1      26.978  45.294  56.083  1.00  0.00     0.164 HD
HETATM   12  H   UNL     1      28.284  45.223  52.851  1.00  0.00     0.170 HD
BRANCH  10  13
HETATM   13  C   UNL     1      28.746  46.051  55.227  1.00  0.00     0.162 C 
BRANCH  13  14
HETATM   14  C   UNL     1      29.734  45.297  56.073  1.00  0.00    -0.040 A 
HETATM   15  C   UNL     1      30.010  45.716  57.382  1.00  0.00     0.009 A 
HETATM   16  C   UNL     1      30.922  45.016  58.173  1.00  0.00     0.001 A 
HETATM   17  C   UNL     1      31.567  43.889  57.666  1.00  0.00     0.000 A 
HETATM   18  C   UNL     1      31.299  43.458  56.369  1.00  0.00     0.001 A 
HETATM   19  C   UNL     1      30.383  44.154  55.577  1.00  0.00     0.009 A 
ENDBRANCH  13  14
ENDBRANCH  10  13
ENDBRANCH   6   7
BRANCH   1  20
HETATM   20  S   UNL     1      25.638  44.969  50.994  1.00  0.00    -0.126 SA
BRANCH  20  21
HETATM   21  C   UNL     1      26.598  46.149  49.959  1.00  0.00     0.107 C 
BRANCH  21  22
HETATM   22  C   UNL     1      26.295  47.631  50.240  1.00  0.00     0.244 C 
BRANCH  22  23
HETATM   23  N   UNL     1      26.511  48.510  49.023  1.00  0.00    -0.078 N 
HETATM   24  C   UNL     1      25.362  49.433  48.734  1.00  0.00     0.269 C 
HETATM   25  H   UNL     1      26.609  47.871  48.221  1.00  0.00     0.279 HD
HETATM   26  C   UNL     1      27.817  49.262  49.093  1.00  0.00     0.269 C 
ENDBRANCH  22  23
ENDBRANCH  21  22
ENDBRANCH  20  21
ENDBRANCH   1  20
BRANCH   3  27
HETATM   27  C   UNL     1      27.483  40.492  49.004  1.00  0.00     0.010 A 
HETATM   28  C   UNL     1      28.341  40.299  47.893  1.00  0.00     0.152 A 
HETATM   29  N   UNL     1      27.944  39.304  47.098  1.00  0.00    -0.187 NA
HETATM   30  N   UNL     1      26.848  38.829  47.708  1.00  0.00    -0.289 N 
HETATM   31  H   UNL     1      26.368  38.038  47.290  1.00  0.00     0.188 HD
HETATM   32  C   UNL     1      26.521  39.517  48.843  1.00  0.00     0.123 A 
ENDBRANCH   3  27
TORSDOF 8
ENDMDL
MODEL 5
REMARK VINA RESULT:      -7.9      2.561      7.300
REMARK  8 active torsions:
REMARK  status: ('A' for Active; 'I' for Inactive)
REMARK    1  A    between atoms: N_2  and  C_5 
REMARK    2  A    between atoms: C_5  and  C_6 
REMARK    3  A    between atoms: C_6  and  S_7 
REMARK    4  A    between atoms: S_7  and  C_8 
REMARK    5  A    between atoms: C_10  and  C_25 
REMARK    6  A    between atoms: C_13  and  N_14 
REMARK       I    between atoms: N_14  and  C_15 
REMARK       I    between atoms: C_15  and  N_17 
REMARK    7  A    between atoms: N_17  and  C_18 
REMARK    8  A    between atoms: C_18  and  C_19 
ROOT
HETATM    1  C   UNL     1      27.423  43.817  53.675  1.00  0.00     0.028 A 
HETATM    2  C   UNL     1      28.237  44.071  54.786  1.00  0.00     0.033 A 
HETATM    3  C   UNL     1      29.574  43.650  54.807  1.00  0.00    -0.022 A 
HETATM    4  C   UNL     1      30.081  42.976  53.690  1.00  0.00     0.014 A 
HETATM    5  C   UNL     1      29.267  42.704  52.583  1.00  0.00     0.032 A 
HETATM    6  C   UNL     1      27.930  43.102  52.575  1.00  0.00     0.053 A 
ENDROOT
BRANCH   6   7
HETATM    7  N   UNL     1      27.055  42.766  51.518  1.00  0.00    -0.308 N 
HETATM    8  C   UNL     1      27.058  43.324  50.272  1.00  0.00     0.321 C 
HETATM    9  O   UNL     1      27.588  44.396  49.998  1.00  0.00    -0.247 OA
HETATM   10  N   UNL     1      26.339  42.672  49.322  1.00  0.00    -0.339 N 
HETATM   11  H   UNL     1      26.491  43.059  48.396  1.00  0.00     0.164 HD
HETATM   12  H   UNL     1      26.305  42.131  51.752  1.00  0.00     0.170 HD
BRANCH  10  13
HETATM   13  C   UNL     1      25.851  41.307  49.372  1.00  0.00     0.162 C 
BRANCH  13  14
HETATM   14  C   UNL     1      26.904  40.323  48.943  1.00  0.00    -0.040 A 
HETATM   15  C   UNL     1      27.054  39.993  47.588  1.00  0.00     0.009 A 
HETATM   16  C   UNL     1      28.033  39.086  47.184  1.00  0.00     0.001 A 
HETATM   17  C   UNL     1      28.875  38.499  48.126  1.00  0.00     0.000 A 
HETATM   18  C   UNL     1      28.741  38.820  49.474  1.00  0.00     0.001 A 
HETATM   19  C   UNL     1      27.765  39.732  49.881  1.00  0.00     0.009 A 
ENDBRANCH  13  14
ENDBRANCH  10  13
ENDBRANCH   6   7
BRANCH   1  20
HETATM   20  S   UNL     1      25.786  44.558  53.588  1.00  0.00    -0.126 SA
BRANCH  20  21
HETATM   21  C   UNL     1      26.234  46.213  52.922  1.00  0.00     0.107 C 
BRANCH  21  22
HETATM   22  C   UNL     1      25.808  47.392  53.814  1.00  0.00     0.244 C 
BRANCH  22  23
HETATM   23  N   UNL     1      26.702  47.555  55.029  1.00  0.00    -0.078 N 
HETATM   24  C   UNL     1      28.161  47.669  54.693  1.00  0.00     0.269 C 
HETATM   25  H   UNL     1      26.576  46.703  55.594  1.00  0.00     0.279 HD
HETATM   26  C   UNL     1      26.251  48.690  55.914  1.00  0.00     0.269 C 
ENDBRANCH  22  23
ENDBRANCH  21  22
ENDBRANCH  20  21
ENDBRANCH   1  20
BRANCH   3  27
HETATM   27  C   UNL     1      30.404  43.925  55.970  1.00  0.00     0.010 A 
HETATM   28  C   UNL     1      31.404  43.141  56.597  1.00  0.00     0.152 A 
HETATM   29  N   UNL     1      31.927  43.732  57.673  1.00  0.00    -0.187 NA
HETATM   30  N   UNL     1      31.291  44.912  57.727  1.00  0.00    -0.289 N 
HETATM   31  H   UNL     1      31.539  45.559  58.469  1.00  0.00     0.188 HD
HETATM   32  C   UNL     1      30.359  45.068  56.739  1.00  0.00     0.123 A 
ENDBRANCH   3  27
TORSDOF 8
ENDMDL
MODEL 6
REMARK VINA RESULT:      -7.8      2.360      8.287
REMARK  8 active torsions:
REMARK  status: ('A' for Active; 'I' for Inactive)
REMARK    1  A    between atoms: N_2  and  C_5 
REMARK    2  A    between atoms: C_5  and  C_6 
REMARK    3  A    between atoms: C_6  and  S_7 
REMARK    4  A    between atoms: S_7  and  C_8 
REMARK    5  A    between atoms: C_10  and  C_25 
REMARK    6  A    between atoms: C_13  and  N_14 
REMARK       I    between atoms: N_14  and  C_15 
REMARK       I    between atoms: C_15  and  N_17 
REMARK    7  A    between atoms: N_17  and  C_18 
REMARK    8  A    between atoms: C_18  and  C_19 
ROOT
HETATM    1  C   UNL     1      28.350  44.518  53.497  1.00  0.00     0.028 A 
HETATM    2  C   UNL     1      29.281  44.346  54.530  1.00  0.00     0.033 A 
HETATM    3  C   UNL     1      29.213  45.123  55.694  1.00  0.00    -0.022 A 
HETATM    4  C   UNL     1      28.190  46.073  55.807  1.00  0.00     0.014 A 
HETATM    5  C   UNL     1      27.267  46.262  54.771  1.00  0.00     0.032 A 
HETATM    6  C   UNL     1      27.352  45.503  53.602  1.00  0.00     0.053 A 
ENDROOT
BRANCH   6   7
HETATM    7  N   UNL     1      26.496  45.728  52.500  1.00  0.00    -0.308 N 
HETATM    8  C   UNL     1      25.204  45.300  52.392  1.00  0.00     0.321 C 
HETATM    9  O   UNL     1      24.716  44.404  53.074  1.00  0.00    -0.247 OA
HETATM   10  N   UNL     1      24.470  45.857  51.395  1.00  0.00    -0.339 N 
HETATM   11  H   UNL     1      23.490  45.599  51.454  1.00  0.00     0.164 HD
HETATM   12  H   UNL     1      26.924  46.154  51.690  1.00  0.00     0.170 HD
BRANCH  10  13
HETATM   13  C   UNL     1      24.770  47.066  50.654  1.00  0.00     0.162 C 
BRANCH  13  14
HETATM   14  C   UNL     1      23.735  47.344  49.599  1.00  0.00    -0.040 A 
HETATM   15  C   UNL     1      23.162  46.288  48.875  1.00  0.00     0.009 A 
HETATM   16  C   UNL     1      22.197  46.539  47.900  1.00  0.00     0.001 A 
HETATM   17  C   UNL     1      21.792  47.845  47.636  1.00  0.00     0.000 A 
HETATM   18  C   UNL     1      22.349  48.904  48.350  1.00  0.00     0.001 A 
HETATM   19  C   UNL     1      23.311  48.655  49.331  1.00  0.00     0.009 A 
ENDBRANCH  13  14
ENDBRANCH  10  13
ENDBRANCH   6   7
BRANCH   1  20
HETATM   20  S   UNL     1      28.330  43.361  52.120  1.00  0.00    -0.126 SA
BRANCH  20  21
HETATM   21  C   UNL     1      28.367  41.775  53.051  1.00  0.00     0.107 C 
BRANCH  21  22
HETATM   22  C   UNL     1      28.575  40.529  52.173  1.00  0.00     0.244 C 
BRANCH  22  23
HETATM   23  N   UNL     1      27.913  40.656  50.814  1.00  0.00    -0.078 N 
HETATM   24  C   UNL     1      28.551  39.810  49.750  1.00  0.00     0.269 C 
HETATM   25  H   UNL     1      28.017  41.643  50.536  1.00  0.00     0.279 HD
HETATM   26  C   UNL     1      26.425  40.420  50.887  1.00  0.00     0.269 C 
ENDBRANCH  22  23
ENDBRANCH  21  22
ENDBRANCH  20  21
ENDBRANCH   1  20
BRANCH   3  27
HETATM   27  C   UNL     1      30.188  44.928  56.756  1.00  0.00     0.010 A 
HETATM   28  C   UNL     1      31.221  43.969  56.898  1.00  0.00     0.152 A 
HETATM   29  N   UNL     1      31.894  44.097  58.043  1.00  0.00    -0.187 NA
HETATM   30  N   UNL     1      31.322  45.160  58.629  1.00  0.00    -0.289 N 
HETATM   31  H   UNL     1      31.686  45.468  59.526  1.00  0.00     0.188 HD
HETATM   32  C   UNL     1      30.286  45.682  57.907  1.00  0.00     0.123 A 
ENDBRANCH   3  27
TORSDOF 8
ENDMDL
MODEL 7
REMARK VINA RESULT:      -7.7      1.236      1.453
REMARK  8 active torsions:
REMARK  status: ('A' for Active; 'I' for Inactive)
REMARK    1  A    between atoms: N_2  and  C_5 
REMARK    2  A    between atoms: C_5  and  C_6 
REMARK    3  A    between atoms: C_6  and  S_7 
REMARK    4  A    between atoms: S_7  and  C_8 
REMARK    5  A    between atoms: C_10  and  C_25 
REMARK    6  A    between atoms: C_13  and  N_14 
REMARK       I    between atoms: N_14  and  C_15 
REMARK       I    between atoms: C_15  and  N_17 
REMARK    7  A    between atoms: N_17  and  C_18 
REMARK    8  A    between atoms: C_18  and  C_19 
ROOT
HETATM    1  C   UNL     1      27.402  42.954  51.094  1.00  0.00     0.028 A 
HETATM    2  C   UNL     1      27.477  41.843  50.243  1.00  0.00     0.033 A 
HETATM    3  C   UNL     1      28.067  40.647  50.674  1.00  0.00    -0.022 A 
HETATM    4  C   UNL     1      28.576  40.584  51.977  1.00  0.00     0.014 A 
HETATM    5  C   UNL     1      28.520  41.696  52.827  1.00  0.00     0.032 A 
HETATM    6  C   UNL     1      27.954  42.893  52.386  1.00  0.00     0.053 A 
ENDROOT
BRANCH   6   7
HETATM    7  N   UNL     1      27.962  44.062  53.180  1.00  0.00    -0.308 N 
HETATM    8  C   UNL     1      27.160  44.299  54.259  1.00  0.00     0.321 C 
HETATM    9  O   UNL     1      26.121  43.689  54.492  1.00  0.00    -0.247 OA
HETATM   10  N   UNL     1      27.515  45.343  55.052  1.00  0.00    -0.339 N 
HETATM   11  H   UNL     1      26.962  45.381  55.902  1.00  0.00     0.164 HD
HETATM   12  H   UNL     1      28.544  44.817  52.846  1.00  0.00     0.170 HD
BRANCH  10  13
HETATM   13  C   UNL     1      28.796  46.020  55.091  1.00  0.00     0.162 C 
BRANCH  13  14
HETATM   14  C   UNL     1      29.737  45.375  56.071  1.00  0.00    -0.040 A 
HETATM   15  C   UNL     1      29.848  45.874  57.377  1.00  0.00     0.009 A 
HETATM   16  C   UNL     1      30.715  45.276  58.293  1.00  0.00     0.001 A 
HETATM   17  C   UNL     1      31.478  44.173  57.916  1.00  0.00     0.000 A 
HETATM   18  C   UNL     1      31.374  43.664  56.624  1.00  0.00     0.001 A 
HETATM   19  C   UNL     1      30.504  44.257  55.707  1.00  0.00     0.009 A 
ENDBRANCH  13  14
ENDBRANCH  10  13
ENDBRANCH   6   7
BRANCH   1  20
HETATM   20  S   UNL     1      26.448  44.394  50.591  1.00  0.00    -0.126 SA
BRANCH  20  21
HETATM   21  C   UNL     1      24.900  43.561  50.050  1.00  0.00     0.107 C 
BRANCH  21  22
HETATM   22  C   UNL     1      23.622  44.388  50.278  1.00  0.00     0.244 C 
BRANCH  22  23
HETATM   23  N   UNL     1      23.230  45.202  49.060  1.00  0.00    -0.078 N 
HETATM   24  C   UNL     1      21.807  44.995  48.629  1.00  0.00     0.269 C 
HETATM   25  H   UNL     1      23.840  44.883  48.294  1.00  0.00     0.279 HD
HETATM   26  C   UNL     1      23.545  46.667  49.234  1.00  0.00     0.269 C 
ENDBRANCH  22  23
ENDBRANCH  21  22
ENDBRANCH  20  21
ENDBRANCH   1  20
BRANCH   3  27
HETATM   27  C   UNL     1      28.133  39.504  49.777  1.00  0.00     0.010 A 
HETATM   28  C   UNL     1      27.196  38.473  49.523  1.00  0.00     0.152 A 
HETATM   29  N   UNL     1      27.640  37.574  48.643  1.00  0.00    -0.187 NA
HETATM   30  N   UNL     1      28.851  38.038  48.299  1.00  0.00    -0.289 N 
HETATM   31  H   UNL     1      29.388  37.519  47.611  1.00  0.00     0.188 HD
HETATM   32  C   UNL     1      29.199  39.181  48.963  1.00  0.00     0.123 A 
ENDBRANCH   3  27
TORSDOF 8
ENDMDL
MODEL 8
REMARK VINA RESULT:      -7.7      3.073      7.113
REMARK  8 active torsions:
REMARK  status: ('A' for Active; 'I' for Inactive)
REMARK    1  A    between atoms: N_2  and  C_5 
REMARK    2  A    between atoms: C_5  and  C_6 
REMARK    3  A    between atoms: C_6  and  S_7 
REMARK    4  A    between atoms: S_7  and  C_8 
REMARK    5  A    between atoms: C_10  and  C_25 
REMARK    6  A    between atoms: C_13  and  N_14 
REMARK       I    between atoms: N_14  and  C_15 
REMARK       I    between atoms: C_15  and  N_17 
REMARK    7  A    between atoms: N_17  and  C_18 
REMARK    8  A    between atoms: C_18  and  C_19 
ROOT
HETATM    1  C   UNL     1      24.318  45.425  50.241  1.00  0.00     0.028 A 
HETATM    2  C   UNL     1      23.789  46.518  49.543  1.00  0.00     0.033 A 
HETATM    3  C   UNL     1      24.534  47.694  49.378  1.00  0.00    -0.022 A 
HETATM    4  C   UNL     1      25.823  47.751  49.923  1.00  0.00     0.014 A 
HETATM    5  C   UNL     1      26.351  46.669  50.637  1.00  0.00     0.032 A 
HETATM    6  C   UNL     1      25.597  45.509  50.821  1.00  0.00     0.053 A 
ENDROOT
BRANCH   6   7
HETATM    7  N   UNL     1      26.059  44.433  51.612  1.00  0.00    -0.308 N 
HETATM    8  C   UNL     1      27.125  43.630  51.324  1.00  0.00     0.321 C 
HETATM    9  O   UNL     1      27.623  43.521  50.207  1.00  0.00    -0.247 OA
HETATM   10  N   UNL     1      27.578  42.849  52.338  1.00  0.00    -0.339 N 
HETATM   11  H   UNL     1      28.447  42.382  52.100  1.00  0.00     0.164 HD
HETATM   12  H   UNL     1      25.479  44.186  52.401  1.00  0.00     0.170 HD
BRANCH  10  13
HETATM   13  C   UNL     1      27.297  42.995  53.752  1.00  0.00     0.162 C 
BRANCH  13  14
HETATM   14  C   UNL     1      28.463  43.587  54.494  1.00  0.00    -0.040 A 
HETATM   15  C   UNL     1      28.382  44.885  55.019  1.00  0.00     0.009 A 
HETATM   16  C   UNL     1      29.459  45.437  55.713  1.00  0.00     0.001 A 
HETATM   17  C   UNL     1      30.628  44.700  55.892  1.00  0.00     0.000 A 
HETATM   18  C   UNL     1      30.721  43.408  55.381  1.00  0.00     0.001 A 
HETATM   19  C   UNL     1      29.642  42.851  54.690  1.00  0.00     0.009 A 
ENDBRANCH  13  14
ENDBRANCH  10  13
ENDBRANCH   6   7
BRANCH   1  20
HETATM   20  S   UNL     1      23.430  43.861  50.246  1.00  0.00    -0.126 SA
BRANCH  20  21
HETATM   21  C   UNL     1      24.291  43.016  48.858  1.00  0.00     0.107 C 
BRANCH  21  22
HETATM   22  C   UNL     1      24.679  41.555  49.148  1.00  0.00     0.244 C 
BRANCH  22  23
HETATM   23  N   UNL     1      24.165  40.595  48.092  1.00  0.00    -0.078 N 
HETATM   24  C   UNL     1      22.732  40.831  47.710  1.00  0.00     0.269 C 
HETATM   25  H   UNL     1      24.229  39.653  48.504  1.00  0.00     0.279 HD
HETATM   26  C   UNL     1      25.060  40.559  46.878  1.00  0.00     0.269 C 
ENDBRANCH  22  23
ENDBRANCH  21  22
ENDBRANCH  20  21
ENDBRANCH   1  20
BRANCH   3  27
HETATM   27  C   UNL     1      23.967  48.817  48.648  1.00  0.00     0.010 A 
HETATM   28  C   UNL     1      24.581  49.979  48.119  1.00  0.00     0.152 A 
HETATM   29  N   UNL     1      23.711  50.804  47.534  1.00  0.00    -0.187 NA
HETATM   30  N   UNL     1      22.538  50.164  47.652  1.00  0.00    -0.289 N 
HETATM   31  H   UNL     1      21.710  50.598  47.256  1.00  0.00     0.188 HD
HETATM   32  C   UNL     1      22.636  48.978  48.326  1.00  0.00     0.123 A 
ENDBRANCH   3  27
TORSDOF 8
ENDMDL
MODEL 9
REMARK VINA RESULT:      -7.6      2.535      8.301
REMARK  8 active torsions:
REMARK  status: ('A' for Active; 'I' for Inactive)
REMARK    1  A    between atoms: N_2  and  C_5 
REMARK    2  A    between atoms: C_5  and  C_6 
REMARK    3  A    between atoms: C_6  and  S_7 
REMARK    4  A    between atoms: S_7  and  C_8 
REMARK    5  A    between atoms: C_10  and  C_25 
REMARK    6  A    between atoms: C_13  and  N_14 
REMARK       I    between atoms: N_14  and  C_15 
REMARK       I    between atoms: C_15  and  N_17 
REMARK    7  A    between atoms: N_17  and  C_18 
REMARK    8  A    between atoms: C_18  and  C_19 
ROOT
HETATM    1  C   UNL     1      27.657  44.204  52.177  1.00  0.00     0.028 A 
HETATM    2  C   UNL     1      28.614  43.889  53.151  1.00  0.00     0.033 A 
HETATM    3  C   UNL     1      28.699  44.628  54.339  1.00  0.00    -0.022 A 
HETATM    4  C   UNL     1      27.802  45.685  54.535  1.00  0.00     0.014 A 
HETATM    5  C   UNL     1      26.855  46.017  53.558  1.00  0.00     0.032 A 
HETATM    6  C   UNL     1      26.790  45.295  52.365  1.00  0.00     0.053 A 
ENDROOT
BRANCH   6   7
HETATM    7  N   UNL     1      25.911  45.655  51.319  1.00  0.00    -0.308 N 
HETATM    8  C   UNL     1      24.576  45.374  51.266  1.00  0.00     0.321 C 
HETATM    9  O   UNL     1      24.027  44.509  51.940  1.00  0.00    -0.247 OA
HETATM   10  N   UNL     1      23.859  46.048  50.330  1.00  0.00    -0.339 N 
HETATM   11  H   UNL     1      22.861  45.895  50.431  1.00  0.00     0.164 HD
HETATM   12  H   UNL     1      26.343  46.066  50.504  1.00  0.00     0.170 HD
BRANCH  10  13
HETATM   13  C   UNL     1      24.253  47.248  49.617  1.00  0.00     0.162 C 
BRANCH  13  14
HETATM   14  C   UNL     1      23.062  47.993  49.081  1.00  0.00    -0.040 A 
HETATM   15  C   UNL     1      23.019  49.393  49.140  1.00  0.00     0.009 A 
HETATM   16  C   UNL     1      21.920  50.091  48.638  1.00  0.00     0.001 A 
HETATM   17  C   UNL     1      20.852  49.398  48.071  1.00  0.00     0.000 A 
HETATM   18  C   UNL     1      20.883  48.008  48.000  1.00  0.00     0.001 A 
HETATM   19  C   UNL     1      21.985  47.308  48.497  1.00  0.00     0.009 A 
ENDBRANCH  13  14
ENDBRANCH  10  13
ENDBRANCH   6   7
BRANCH   1  20
HETATM   20  S   UNL     1      27.430  43.107  50.770  1.00  0.00    -0.126 SA
BRANCH  20  21
HETATM   21  C   UNL     1      27.848  41.501  51.564  1.00  0.00     0.107 C 
BRANCH  21  22
HETATM   22  C   UNL     1      27.629  40.272  50.664  1.00  0.00     0.244 C 
BRANCH  22  23
HETATM   23  N   UNL     1      28.864  39.913  49.858  1.00  0.00    -0.078 N 
HETATM   24  C   UNL     1      29.282  38.479  50.003  1.00  0.00     0.269 C 
HETATM   25  H   UNL     1      29.626  40.502  50.225  1.00  0.00     0.279 HD
HETATM   26  C   UNL     1      28.725  40.304  48.408  1.00  0.00     0.269 C 
ENDBRANCH  22  23
ENDBRANCH  21  22
ENDBRANCH  20  21
ENDBRANCH   1  20
BRANCH   3  27
HETATM   27  C   UNL     1      29.698  44.284  55.339  1.00  0.00     0.010 A 
HETATM   28  C   UNL     1      30.207  45.029  56.431  1.00  0.00     0.152 A 
HETATM   29  N   UNL     1      31.150  44.375  57.111  1.00  0.00    -0.187 NA
HETATM   30  N   UNL     1      31.230  43.192  56.483  1.00  0.00    -0.289 N 
HETATM   31  H   UNL     1      31.883  42.501  56.839  1.00  0.00     0.188 HD
HETATM   32  C   UNL     1      30.394  43.095  55.406  1.00  0.00     0.123 A 
ENDBRANCH   3  27
TORSDOF 8
ENDMDL
MODEL 10
REMARK VINA RESULT:      -7.5      3.714      8.352
REMARK  8 active torsions:
REMARK  status: ('A' for Active; 'I' for Inactive)
REMARK    1  A    between atoms: N_2  and  C_5 
REMARK    2  A    between atoms: C_5  and  C_6 
REMARK    3  A    between atoms: C_6  and  S_7 
REMARK    4  A    between atoms: S_7  and  C_8 
REMARK    5  A    between atoms: C_10  and  C_25 
REMARK    6  A    between atoms: C_13  and  N_14 
REMARK       I    between atoms: N_14  and  C_15 
REMARK       I    between atoms: C_15  and  N_17 
REMARK    7  A    between atoms: N_17  and  C_18 
REMARK    8  A    between atoms: C_18  and  C_19 
ROOT
HETATM    1  C   UNL     1      25.492  45.710  51.422  1.00  0.00     0.028 A 
HETATM    2  C   UNL     1      26.325  44.596  51.586  1.00  0.00     0.033 A 
HETATM    3  C   UNL     1      26.451  43.638  50.570  1.00  0.00    -0.022 A 
HETATM    4  C   UNL     1      25.731  43.822  49.384  1.00  0.00     0.014 A 
HETATM    5  C   UNL     1      24.882  44.925  49.220  1.00  0.00     0.032 A 
HETATM    6  C   UNL     1      24.739  45.863  50.244  1.00  0.00     0.053 A 
ENDROOT
BRANCH   6   7
HETATM    7  N   UNL     1      23.826  46.937  50.152  1.00  0.00    -0.308 N 
HETATM    8  C   UNL     1      24.094  48.172  49.634  1.00  0.00     0.321 C 
HETATM    9  O   UNL     1      25.225  48.622  49.479  1.00  0.00    -0.247 OA
HETATM   10  N   UNL     1      23.019  48.959  49.375  1.00  0.00    -0.339 N 
HETATM   11  H   UNL     1      23.276  49.802  48.871  1.00  0.00     0.164 HD
HETATM   12  H   UNL     1      22.934  46.796  50.604  1.00  0.00     0.170 HD
BRANCH  10  13
HETATM   13  C   UNL     1      21.634  48.546  49.264  1.00  0.00     0.162 C 
BRANCH  13  14
HETATM   14  C   UNL     1      20.698  49.723  49.278  1.00  0.00    -0.040 A 
HETATM   15  C   UNL     1      19.544  49.700  50.074  1.00  0.00     0.009 A 
HETATM   16  C   UNL     1      18.676  50.792  50.096  1.00  0.00     0.001 A 
HETATM   17  C   UNL     1      18.951  51.919  49.324  1.00  0.00     0.000 A 
HETATM   18  C   UNL     1      20.096  51.958  48.532  1.00  0.00     0.001 A 
HETATM   19  C   UNL     1      20.969  50.868  48.513  1.00  0.00     0.009 A 
ENDBRANCH  13  14
ENDBRANCH  10  13
ENDBRANCH   6   7
BRANCH   1  20
HETATM   20  S   UNL     1      25.520  47.027  52.647  1.00  0.00    -0.126 SA
BRANCH  20  21
HETATM   21  C   UNL     1      26.000  46.053  54.132  1.00  0.00     0.107 C 
BRANCH  21  22
HETATM   22  C   UNL     1      27.223  46.606  54.885  1.00  0.00     0.244 C 
BRANCH  22  23
HETATM   23  N   UNL     1      28.009  45.520  55.596  1.00  0.00    -0.078 N 
HETATM   24  C   UNL     1      28.805  44.647  54.669  1.00  0.00     0.269 C 
HETATM   25  H   UNL     1      27.313  44.924  56.067  1.00  0.00     0.279 HD
HETATM   26  C   UNL     1      28.868  46.077  56.703  1.00  0.00     0.269 C 
ENDBRANCH  22  23
ENDBRANCH  21  22
ENDBRANCH  20  21
ENDBRANCH   1  20
BRANCH   3  27
HETATM   27  C   UNL     1      27.323  42.489  50.759  1.00  0.00     0.010 A 
HETATM   28  C   UNL     1      27.502  41.326  49.970  1.00  0.00     0.152 A 
HETATM   29  N   UNL     1      28.382  40.473  50.497  1.00  0.00    -0.187 NA
HETATM   30  N   UNL     1      28.800  41.096  51.610  1.00  0.00    -0.289 N 
HETATM   31  H   UNL     1      29.503  40.638  52.183  1.00  0.00     0.188 HD
HETATM   32  C   UNL     1      28.184  42.298  51.819  1.00  0.00     0.123 A 
ENDBRANCH   3  27
TORSDOF 8
ENDMDL
