MODEL 1
REMARK VINA RESULT:      -9.2      0.000      0.000
REMARK  8 active torsions:
REMARK  status: ('A' for Active; 'I' for Inactive)
REMARK    1  A    between atoms: C_2  and  N_3 
REMARK    2  A    between atoms: C_9  and  C_10 
REMARK    3  A    between atoms: C_16  and  C_17 
REMARK       I    between atoms: C_17  and  N_18 
REMARK    4  A    between atoms: N_18  and  C_19 
REMARK    5  A    between atoms: C_19  and  C_20 
REMARK    6  A    between atoms: C_20  and  C_21 
REMARK    7  A    between atoms: C_23  and  O_24 
REMARK    8  A    between atoms: C_25  and  O_26 
ROOT
HETATM    1  N   UNL     1      23.309  43.927  49.724  1.00  0.00    -0.248 N 
HETATM    2  N   UNL     1      23.314  42.832  50.522  1.00  0.00    -0.182 NA
HETATM    3  C   UNL     1      24.266  43.102  51.421  1.00  0.00     0.155 A 
HETATM    4  C   UNL     1      24.850  44.374  51.240  1.00  0.00     0.046 A 
HETATM    5  C   UNL     1      24.213  44.882  50.116  1.00  0.00     0.159 A 
HETATM    6  N   UNL     1      24.448  46.066  49.518  1.00  0.00    -0.228 NA
HETATM    7  C   UNL     1      25.419  46.810  50.103  1.00  0.00     0.077 A 
HETATM    8  C   UNL     1      26.134  46.406  51.224  1.00  0.00     0.051 A 
HETATM    9  C   UNL     1      25.842  45.172  51.821  1.00  0.00     0.049 A 
ENDROOT
BRANCH   9  10
HETATM   10  C   UNL     1      26.632  44.757  52.994  1.00  0.00     0.252 C 
HETATM   11  N   UNL     1      27.578  43.769  52.803  1.00  0.00    -0.357 N 
HETATM   12  H   UNL     1      27.522  43.218  51.955  1.00  0.00     0.162 HD
HETATM   13  O   UNL     1      26.384  45.259  54.084  1.00  0.00    -0.268 OA
BRANCH  11  14
HETATM   14  C   UNL     1      28.208  43.152  53.959  1.00  0.00     0.127 C 
BRANCH  14  15
HETATM   15  C   UNL     1      29.729  43.288  53.943  1.00  0.00     0.058 C 
BRANCH  15  16
HETATM   16  C   UNL     1      30.236  43.793  55.274  1.00  0.00    -0.054 A 
HETATM   17  C   UNL     1      29.666  44.937  55.859  1.00  0.00     0.046 A 
HETATM   18  C   UNL     1      30.096  45.353  57.114  1.00  0.00     0.099 A 
HETATM   19  C   UNL     1      31.084  44.644  57.791  1.00  0.00     0.098 A 
HETATM   20  C   UNL     1      31.660  43.515  57.228  1.00  0.00     0.040 A 
HETATM   21  C   UNL     1      31.233  43.087  55.968  1.00  0.00     0.010 A 
BRANCH  18  22
HETATM   22  O   UNL     1      29.564  46.451  57.734  1.00  0.00    -0.358 OA
HETATM   23  H   UNL     1      28.914  46.142  58.388  1.00  0.00     0.218 HD
ENDBRANCH  18  22
BRANCH  19  24
HETATM   24  O   UNL     1      31.490  45.053  59.029  1.00  0.00    -0.358 OA
HETATM   25  H   UNL     1      30.696  45.468  59.420  1.00  0.00     0.218 HD
ENDBRANCH  19  24
ENDBRANCH  15  16
ENDBRANCH  14  15
ENDBRANCH  11  14
ENDBRANCH   9  10
BRANCH   7  26
HETATM   26  C   UNL     1      25.668  48.089  49.415  1.00  0.00     0.033 A 
HETATM   27  S   UNL     1      24.382  49.018  48.747  1.00  0.00    -0.100 SA
HETATM   28  C   UNL     1      25.444  50.230  48.184  1.00  0.00     0.050 A 
HETATM   29  C   UNL     1      26.757  49.943  48.475  1.00  0.00     0.008 A 
HETATM   30  C   UNL     1      26.885  48.706  49.173  1.00  0.00     0.021 A 
ENDBRANCH   7  26
BRANCH   1  31
HETATM   31  C   UNL     1      22.418  43.967  48.569  1.00  0.00     0.104 C 
HETATM   32  C   UNL     1      23.193  44.035  47.252  1.00  0.00     0.034 C 
HETATM   33  C   UNL     1      21.386  45.090  48.673  1.00  0.00     0.034 C 
ENDBRANCH   1  31
TORSDOF 8
ENDMDL
MODEL 2
REMARK VINA RESULT:      -9.1      2.001      4.215
REMARK  8 active torsions:
REMARK  status: ('A' for Active; 'I' for Inactive)
REMARK    1  A    between atoms: C_2  and  N_3 
REMARK    2  A    between atoms: C_9  and  C_10 
REMARK    3  A    between atoms: C_16  and  C_17 
REMARK       I    between atoms: C_17  and  N_18 
REMARK    4  A    between atoms: N_18  and  C_19 
REMARK    5  A    between atoms: C_19  and  C_20 
REMARK    6  A    between atoms: C_20  and  C_21 
REMARK    7  A    between atoms: C_23  and  O_24 
REMARK    8  A    between atoms: C_25  and  O_26 
ROOT
HETATM    1  N   UNL     1      24.000  47.399  49.559  1.00  0.00    -0.248 N 
HETATM    2  N   UNL     1      24.558  48.101  50.576  1.00  0.00    -0.182 NA
HETATM    3  C   UNL     1      24.997  47.151  51.408  1.00  0.00     0.155 A 
HETATM    4  C   UNL     1      24.768  45.846  50.926  1.00  0.00     0.046 A 
HETATM    5  C   UNL     1      24.103  46.041  49.723  1.00  0.00     0.159 A 
HETATM    6  N   UNL     1      23.635  45.089  48.892  1.00  0.00    -0.228 NA
HETATM    7  C   UNL     1      23.853  43.818  49.311  1.00  0.00     0.077 A 
HETATM    8  C   UNL     1      24.496  43.495  50.501  1.00  0.00     0.051 A 
HETATM    9  C   UNL     1      24.980  44.520  51.324  1.00  0.00     0.049 A 
ENDROOT
BRANCH   9  10
HETATM   10  C   UNL     1      25.638  44.150  52.590  1.00  0.00     0.252 C 
HETATM   11  N   UNL     1      27.018  44.074  52.587  1.00  0.00    -0.357 N 
HETATM   12  H   UNL     1      27.488  44.035  51.691  1.00  0.00     0.162 HD
HETATM   13  O   UNL     1      24.944  43.878  53.562  1.00  0.00    -0.268 OA
BRANCH  11  14
HETATM   14  C   UNL     1      27.700  43.480  53.726  1.00  0.00     0.127 C 
BRANCH  14  15
HETATM   15  C   UNL     1      29.212  43.698  53.685  1.00  0.00     0.058 C 
BRANCH  15  16
HETATM   16  C   UNL     1      29.734  44.082  55.049  1.00  0.00    -0.054 A 
HETATM   17  C   UNL     1      30.735  43.311  55.665  1.00  0.00     0.046 A 
HETATM   18  C   UNL     1      31.254  43.712  56.891  1.00  0.00     0.099 A 
HETATM   19  C   UNL     1      30.789  44.870  57.508  1.00  0.00     0.098 A 
HETATM   20  C   UNL     1      29.801  45.642  56.916  1.00  0.00     0.040 A 
HETATM   21  C   UNL     1      29.274  45.249  55.683  1.00  0.00     0.010 A 
BRANCH  18  22
HETATM   22  O   UNL     1      32.238  43.005  57.527  1.00  0.00    -0.358 OA
HETATM   23  H   UNL     1      31.886  42.124  57.740  1.00  0.00     0.218 HD
ENDBRANCH  18  22
BRANCH  19  24
HETATM   24  O   UNL     1      31.315  45.263  58.706  1.00  0.00    -0.358 OA
HETATM   25  H   UNL     1      30.615  45.057  59.356  1.00  0.00     0.218 HD
ENDBRANCH  19  24
ENDBRANCH  15  16
ENDBRANCH  14  15
ENDBRANCH  11  14
ENDBRANCH   9  10
BRANCH   7  26
HETATM   26  C   UNL     1      23.312  42.801  48.394  1.00  0.00     0.033 A 
HETATM   27  S   UNL     1      22.887  43.185  46.771  1.00  0.00    -0.100 SA
HETATM   28  C   UNL     1      22.387  41.587  46.439  1.00  0.00     0.050 A 
HETATM   29  C   UNL     1      22.518  40.767  47.534  1.00  0.00     0.008 A 
HETATM   30  C   UNL     1      23.040  41.468  48.660  1.00  0.00     0.021 A 
ENDBRANCH   7  26
BRANCH   1  31
HETATM   31  C   UNL     1      23.349  48.116  48.468  1.00  0.00     0.104 C 
HETATM   32  C   UNL     1      23.977  49.491  48.232  1.00  0.00     0.034 C 
HETATM   33  C   UNL     1      21.836  48.215  48.662  1.00  0.00     0.034 C 
ENDBRANCH   1  31
TORSDOF 8
ENDMDL
MODEL 3
REMARK VINA RESULT:      -8.8      2.362      3.287
REMARK  8 active torsions:
REMARK  status: ('A' for Active; 'I' for Inactive)
REMARK    1  A    between atoms: C_2  and  N_3 
REMARK    2  A    between atoms: C_9  and  C_10 
REMARK    3  A    between atoms: C_16  and  C_17 
REMARK       I    between atoms: C_17  and  N_18 
REMARK    4  A    between atoms: N_18  and  C_19 
REMARK    5  A    between atoms: C_19  and  C_20 
REMARK    6  A    between atoms: C_20  and  C_21 
REMARK    7  A    between atoms: C_23  and  O_24 
REMARK    8  A    between atoms: C_25  and  O_26 
ROOT
HETATM    1  N   UNL     1      23.961  43.886  50.183  1.00  0.00    -0.248 N 
HETATM    2  N   UNL     1      24.276  43.012  51.171  1.00  0.00    -0.182 NA
HETATM    3  C   UNL     1      24.902  43.773  52.075  1.00  0.00     0.155 A 
HETATM    4  C   UNL     1      24.962  45.133  51.706  1.00  0.00     0.046 A 
HETATM    5  C   UNL     1      24.352  45.173  50.459  1.00  0.00     0.159 A 
HETATM    6  N   UNL     1      24.191  46.253  49.670  1.00  0.00    -0.228 NA
HETATM    7  C   UNL     1      24.695  47.403  50.180  1.00  0.00     0.077 A 
HETATM    8  C   UNL     1      25.337  47.489  51.410  1.00  0.00     0.051 A 
HETATM    9  C   UNL     1      25.466  46.341  52.203  1.00  0.00     0.049 A 
ENDROOT
BRANCH   9  10
HETATM   10  C   UNL     1      26.171  46.455  53.492  1.00  0.00     0.252 C 
HETATM   11  N   UNL     1      27.530  46.204  53.494  1.00  0.00    -0.357 N 
HETATM   12  H   UNL     1      27.924  45.730  52.691  1.00  0.00     0.162 HD
HETATM   13  O   UNL     1      25.525  46.711  54.501  1.00  0.00    -0.268 OA
BRANCH  11  14
HETATM   14  C   UNL     1      28.225  46.061  54.763  1.00  0.00     0.127 C 
BRANCH  14  15
HETATM   15  C   UNL     1      27.964  44.710  55.427  1.00  0.00     0.058 C 
BRANCH  15  16
HETATM   16  C   UNL     1      28.412  43.578  54.533  1.00  0.00    -0.054 A 
HETATM   17  C   UNL     1      27.482  42.630  54.074  1.00  0.00     0.046 A 
HETATM   18  C   UNL     1      27.894  41.632  53.197  1.00  0.00     0.099 A 
HETATM   19  C   UNL     1      29.219  41.568  52.775  1.00  0.00     0.098 A 
HETATM   20  C   UNL     1      30.151  42.494  53.219  1.00  0.00     0.040 A 
HETATM   21  C   UNL     1      29.746  43.502  54.098  1.00  0.00     0.010 A 
BRANCH  18  22
HETATM   22  O   UNL     1      27.026  40.693  52.710  1.00  0.00    -0.358 OA
HETATM   23  H   UNL     1      27.496  40.167  52.040  1.00  0.00     0.218 HD
ENDBRANCH  18  22
BRANCH  19  24
HETATM   24  O   UNL     1      29.611  40.592  51.904  1.00  0.00    -0.358 OA
HETATM   25  H   UNL     1      29.006  39.847  52.087  1.00  0.00     0.218 HD
ENDBRANCH  19  24
ENDBRANCH  15  16
ENDBRANCH  14  15
ENDBRANCH  11  14
ENDBRANCH   9  10
BRANCH   7  26
HETATM   26  C   UNL     1      24.524  48.562  49.286  1.00  0.00     0.033 A 
HETATM   27  S   UNL     1      22.963  49.125  48.830  1.00  0.00    -0.100 SA
HETATM   28  C   UNL     1      23.608  50.379  47.869  1.00  0.00     0.050 A 
HETATM   29  C   UNL     1      24.983  50.375  47.869  1.00  0.00     0.008 A 
HETATM   30  C   UNL     1      25.508  49.323  48.675  1.00  0.00     0.021 A 
ENDBRANCH   7  26
BRANCH   1  31
HETATM   31  C   UNL     1      23.308  43.395  48.974  1.00  0.00     0.104 C 
HETATM   32  C   UNL     1      21.929  44.025  48.775  1.00  0.00     0.034 C 
HETATM   33  C   UNL     1      23.242  41.869  48.932  1.00  0.00     0.034 C 
ENDBRANCH   1  31
TORSDOF 8
ENDMDL
MODEL 4
REMARK VINA RESULT:      -8.8      1.475      2.129
REMARK  8 active torsions:
REMARK  status: ('A' for Active; 'I' for Inactive)
REMARK    1  A    between atoms: C_2  and  N_3 
REMARK    2  A    between atoms: C_9  and  C_10 
REMARK    3  A    between atoms: C_16  and  C_17 
REMARK       I    between atoms: C_17  and  N_18 
REMARK    4  A    between atoms: N_18  and  C_19 
REMARK    5  A    between atoms: C_19  and  C_20 
REMARK    6  A    between atoms: C_20  and  C_21 
REMARK    7  A    between atoms: C_23  and  O_24 
REMARK    8  A    between atoms: C_25  and  O_26 
ROOT
HETATM    1  N   UNL     1      23.940  43.310  48.766  1.00  0.00    -0.248 N 
HETATM    2  N   UNL     1      24.214  42.229  49.537  1.00  0.00    -0.182 NA
HETATM    3  C   UNL     1      24.622  42.763  50.693  1.00  0.00     0.155 A 
HETATM    4  C   UNL     1      24.578  44.173  50.696  1.00  0.00     0.046 A 
HETATM    5  C   UNL     1      24.142  44.501  49.419  1.00  0.00     0.159 A 
HETATM    6  N   UNL     1      23.969  45.738  48.914  1.00  0.00    -0.228 NA
HETATM    7  C   UNL     1      24.267  46.744  49.773  1.00  0.00     0.077 A 
HETATM    8  C   UNL     1      24.721  46.543  51.071  1.00  0.00     0.051 A 
HETATM    9  C   UNL     1      24.870  45.237  51.557  1.00  0.00     0.049 A 
ENDROOT
BRANCH   9  10
HETATM   10  C   UNL     1      25.376  45.054  52.929  1.00  0.00     0.252 C 
HETATM   11  N   UNL     1      26.615  45.589  53.223  1.00  0.00    -0.357 N 
HETATM   12  H   UNL     1      27.209  45.860  52.449  1.00  0.00     0.162 HD
HETATM   13  O   UNL     1      24.712  44.398  53.724  1.00  0.00    -0.268 OA
BRANCH  11  14
HETATM   14  C   UNL     1      27.267  45.231  54.473  1.00  0.00     0.127 C 
BRANCH  14  15
HETATM   15  C   UNL     1      28.673  44.671  54.263  1.00  0.00     0.058 C 
BRANCH  15  16
HETATM   16  C   UNL     1      29.467  44.722  55.547  1.00  0.00    -0.054 A 
HETATM   17  C   UNL     1      30.474  43.773  55.793  1.00  0.00     0.046 A 
HETATM   18  C   UNL     1      31.242  43.871  56.948  1.00  0.00     0.099 A 
HETATM   19  C   UNL     1      31.018  44.900  57.858  1.00  0.00     0.098 A 
HETATM   20  C   UNL     1      30.026  45.843  57.633  1.00  0.00     0.040 A 
HETATM   21  C   UNL     1      29.251  45.756  56.474  1.00  0.00     0.010 A 
BRANCH  18  22
HETATM   22  O   UNL     1      32.243  42.983  57.229  1.00  0.00    -0.358 OA
HETATM   23  H   UNL     1      31.838  42.115  57.399  1.00  0.00     0.218 HD
ENDBRANCH  18  22
BRANCH  19  24
HETATM   24  O   UNL     1      31.786  44.995  58.983  1.00  0.00    -0.358 OA
HETATM   25  H   UNL     1      31.384  44.356  59.605  1.00  0.00     0.218 HD
ENDBRANCH  19  24
ENDBRANCH  15  16
ENDBRANCH  14  15
ENDBRANCH  11  14
ENDBRANCH   9  10
BRANCH   7  26
HETATM   26  C   UNL     1      24.089  48.083  49.187  1.00  0.00     0.033 A 
HETATM   27  S   UNL     1      25.434  49.096  48.830  1.00  0.00    -0.100 SA
HETATM   28  C   UNL     1      24.436  50.349  48.239  1.00  0.00     0.050 A 
HETATM   29  C   UNL     1      23.102  50.026  48.318  1.00  0.00     0.008 A 
HETATM   30  C   UNL     1      22.903  48.729  48.874  1.00  0.00     0.021 A 
ENDBRANCH   7  26
BRANCH   1  31
HETATM   31  C   UNL     1      23.517  43.115  47.384  1.00  0.00     0.104 C 
HETATM   32  C   UNL     1      22.008  43.300  47.217  1.00  0.00     0.034 C 
HETATM   33  C   UNL     1      23.985  41.774  46.820  1.00  0.00     0.034 C 
ENDBRANCH   1  31
TORSDOF 8
ENDMDL
MODEL 5
REMARK VINA RESULT:      -8.7      1.907      2.616
REMARK  8 active torsions:
REMARK  status: ('A' for Active; 'I' for Inactive)
REMARK    1  A    between atoms: C_2  and  N_3 
REMARK    2  A    between atoms: C_9  and  C_10 
REMARK    3  A    between atoms: C_16  and  C_17 
REMARK       I    between atoms: C_17  and  N_18 
REMARK    4  A    between atoms: N_18  and  C_19 
REMARK    5  A    between atoms: C_19  and  C_20 
REMARK    6  A    between atoms: C_20  and  C_21 
REMARK    7  A    between atoms: C_23  and  O_24 
REMARK    8  A    between atoms: C_25  and  O_26 
ROOT
HETATM    1  N   UNL     1      24.758  41.643  48.724  1.00  0.00    -0.248 N 
HETATM    2  N   UNL     1      25.400  40.594  49.293  1.00  0.00    -0.182 NA
HETATM    3  C   UNL     1      25.938  41.117  50.399  1.00  0.00     0.155 A 
HETATM    4  C   UNL     1      25.619  42.480  50.576  1.00  0.00     0.046 A 
HETATM    5  C   UNL     1      24.860  42.798  49.458  1.00  0.00     0.159 A 
HETATM    6  N   UNL     1      24.341  44.002  49.147  1.00  0.00    -0.228 NA
HETATM    7  C   UNL     1      24.616  44.982  50.042  1.00  0.00     0.077 A 
HETATM    8  C   UNL     1      25.374  44.791  51.192  1.00  0.00     0.051 A 
HETATM    9  C   UNL     1      25.878  43.516  51.481  1.00  0.00     0.049 A 
ENDROOT
BRANCH   9  10
HETATM   10  C   UNL     1      26.698  43.346  52.695  1.00  0.00     0.252 C 
HETATM   11  N   UNL     1      27.883  42.648  52.564  1.00  0.00    -0.357 N 
HETATM   12  H   UNL     1      28.015  42.091  51.729  1.00  0.00     0.162 HD
HETATM   13  O   UNL     1      26.276  43.776  53.761  1.00  0.00    -0.268 OA
BRANCH  11  14
HETATM   14  C   UNL     1      28.604  42.240  53.759  1.00  0.00     0.127 C 
BRANCH  14  15
HETATM   15  C   UNL     1      29.991  42.874  53.856  1.00  0.00     0.058 C 
BRANCH  15  16
HETATM   16  C   UNL     1      30.094  43.752  55.080  1.00  0.00    -0.054 A 
HETATM   17  C   UNL     1      31.023  43.450  56.090  1.00  0.00     0.046 A 
HETATM   18  C   UNL     1      31.154  44.304  57.180  1.00  0.00     0.099 A 
HETATM   19  C   UNL     1      30.373  45.452  57.274  1.00  0.00     0.098 A 
HETATM   20  C   UNL     1      29.449  45.764  56.288  1.00  0.00     0.040 A 
HETATM   21  C   UNL     1      29.311  44.915  55.187  1.00  0.00     0.010 A 
BRANCH  18  22
HETATM   22  O   UNL     1      32.052  44.064  58.183  1.00  0.00    -0.358 OA
HETATM   23  H   UNL     1      32.914  43.870  57.776  1.00  0.00     0.218 HD
ENDBRANCH  18  22
BRANCH  19  24
HETATM   24  O   UNL     1      30.518  46.291  58.341  1.00  0.00    -0.358 OA
HETATM   25  H   UNL     1      31.390  46.057  58.716  1.00  0.00     0.218 HD
ENDBRANCH  19  24
ENDBRANCH  15  16
ENDBRANCH  14  15
ENDBRANCH  11  14
ENDBRANCH   9  10
BRANCH   7  26
HETATM   26  C   UNL     1      24.055  46.291  49.665  1.00  0.00     0.033 A 
HETATM   27  S   UNL     1      22.688  46.419  48.626  1.00  0.00    -0.100 SA
HETATM   28  C   UNL     1      22.697  48.125  48.693  1.00  0.00     0.050 A 
HETATM   29  C   UNL     1      23.722  48.606  49.473  1.00  0.00     0.008 A 
HETATM   30  C   UNL     1      24.509  47.551  50.022  1.00  0.00     0.021 A 
ENDBRANCH   7  26
BRANCH   1  31
HETATM   31  C   UNL     1      24.089  41.462  47.440  1.00  0.00     0.104 C 
HETATM   32  C   UNL     1      22.748  40.744  47.590  1.00  0.00     0.034 C 
HETATM   33  C   UNL     1      24.986  40.771  46.413  1.00  0.00     0.034 C 
ENDBRANCH   1  31
TORSDOF 8
ENDMDL
MODEL 6
REMARK VINA RESULT:      -8.7      4.180      6.732
REMARK  8 active torsions:
REMARK  status: ('A' for Active; 'I' for Inactive)
REMARK    1  A    between atoms: C_2  and  N_3 
REMARK    2  A    between atoms: C_9  and  C_10 
REMARK    3  A    between atoms: C_16  and  C_17 
REMARK       I    between atoms: C_17  and  N_18 
REMARK    4  A    between atoms: N_18  and  C_19 
REMARK    5  A    between atoms: C_19  and  C_20 
REMARK    6  A    between atoms: C_20  and  C_21 
REMARK    7  A    between atoms: C_23  and  O_24 
REMARK    8  A    between atoms: C_25  and  O_26 
ROOT
HETATM    1  N   UNL     1      26.932  45.935  53.912  1.00  0.00    -0.248 N 
HETATM    2  N   UNL     1      26.848  44.719  54.504  1.00  0.00    -0.182 NA
HETATM    3  C   UNL     1      26.250  43.960  53.579  1.00  0.00     0.155 A 
HETATM    4  C   UNL     1      25.983  44.658  52.382  1.00  0.00     0.046 A 
HETATM    5  C   UNL     1      26.427  45.948  52.636  1.00  0.00     0.159 A 
HETATM    6  N   UNL     1      26.360  47.006  51.804  1.00  0.00    -0.228 NA
HETATM    7  C   UNL     1      25.787  46.744  50.603  1.00  0.00     0.077 A 
HETATM    8  C   UNL     1      25.295  45.497  50.237  1.00  0.00     0.051 A 
HETATM    9  C   UNL     1      25.403  44.422  51.130  1.00  0.00     0.049 A 
ENDROOT
BRANCH   9  10
HETATM   10  C   UNL     1      24.853  43.117  50.724  1.00  0.00     0.252 C 
HETATM   11  N   UNL     1      25.645  42.317  49.923  1.00  0.00    -0.357 N 
HETATM   12  H   UNL     1      26.437  42.748  49.462  1.00  0.00     0.162 HD
HETATM   13  O   UNL     1      23.713  42.821  51.065  1.00  0.00    -0.268 OA
BRANCH  11  14
HETATM   14  C   UNL     1      25.064  41.141  49.296  1.00  0.00     0.127 C 
BRANCH  14  15
HETATM   15  C   UNL     1      25.936  40.583  48.171  1.00  0.00     0.058 C 
BRANCH  15  16
HETATM   16  C   UNL     1      27.042  39.719  48.730  1.00  0.00    -0.054 A 
HETATM   17  C   UNL     1      26.749  38.450  49.256  1.00  0.00     0.046 A 
HETATM   18  C   UNL     1      27.784  37.637  49.705  1.00  0.00     0.099 A 
HETATM   19  C   UNL     1      29.104  38.074  49.637  1.00  0.00     0.098 A 
HETATM   20  C   UNL     1      29.411  39.325  49.123  1.00  0.00     0.040 A 
HETATM   21  C   UNL     1      28.379  40.148  48.666  1.00  0.00     0.010 A 
BRANCH  18  22
HETATM   22  O   UNL     1      27.555  36.388  50.214  1.00  0.00    -0.358 OA
HETATM   23  H   UNL     1      28.068  35.749  49.689  1.00  0.00     0.218 HD
ENDBRANCH  18  22
BRANCH  19  24
HETATM   24  O   UNL     1      30.114  37.264  50.069  1.00  0.00    -0.358 OA
HETATM   25  H   UNL     1      30.161  36.556  49.396  1.00  0.00     0.218 HD
ENDBRANCH  19  24
ENDBRANCH  15  16
ENDBRANCH  14  15
ENDBRANCH  11  14
ENDBRANCH   9  10
BRANCH   7  26
HETATM   26  C   UNL     1      25.708  47.923  49.725  1.00  0.00     0.033 A 
HETATM   27  S   UNL     1      24.198  48.533  49.168  1.00  0.00    -0.100 SA
HETATM   28  C   UNL     1      24.940  49.790  48.284  1.00  0.00     0.050 A 
HETATM   29  C   UNL     1      26.310  49.753  48.385  1.00  0.00     0.008 A 
HETATM   30  C   UNL     1      26.751  48.673  49.205  1.00  0.00     0.021 A 
ENDBRANCH   7  26
BRANCH   1  31
HETATM   31  C   UNL     1      27.487  47.059  54.660  1.00  0.00     0.104 C 
HETATM   32  C   UNL     1      28.420  46.595  55.779  1.00  0.00     0.034 C 
HETATM   33  C   UNL     1      26.400  47.996  55.185  1.00  0.00     0.034 C 
ENDBRANCH   1  31
TORSDOF 8
ENDMDL
MODEL 7
REMARK VINA RESULT:      -8.5      4.953      7.300
REMARK  8 active torsions:
REMARK  status: ('A' for Active; 'I' for Inactive)
REMARK    1  A    between atoms: C_2  and  N_3 
REMARK    2  A    between atoms: C_9  and  C_10 
REMARK    3  A    between atoms: C_16  and  C_17 
REMARK       I    between atoms: C_17  and  N_18 
REMARK    4  A    between atoms: N_18  and  C_19 
REMARK    5  A    between atoms: C_19  and  C_20 
REMARK    6  A    between atoms: C_20  and  C_21 
REMARK    7  A    between atoms: C_23  and  O_24 
REMARK    8  A    between atoms: C_25  and  O_26 
ROOT
HETATM    1  N   UNL     1      28.542  42.790  52.354  1.00  0.00    -0.248 N 
HETATM    2  N   UNL     1      28.817  41.463  52.317  1.00  0.00    -0.182 NA
HETATM    3  C   UNL     1      28.114  41.026  51.268  1.00  0.00     0.155 A 
HETATM    4  C   UNL     1      27.420  42.057  50.601  1.00  0.00     0.046 A 
HETATM    5  C   UNL     1      27.707  43.194  51.343  1.00  0.00     0.159 A 
HETATM    6  N   UNL     1      27.247  44.442  51.125  1.00  0.00    -0.228 NA
HETATM    7  C   UNL     1      26.413  44.557  50.062  1.00  0.00     0.077 A 
HETATM    8  C   UNL     1      26.041  43.491  49.251  1.00  0.00     0.051 A 
HETATM    9  C   UNL     1      26.560  42.215  49.507  1.00  0.00     0.049 A 
ENDROOT
BRANCH   9  10
HETATM   10  C   UNL     1      26.131  41.099  48.646  1.00  0.00     0.252 C 
HETATM   11  N   UNL     1      27.062  40.589  47.761  1.00  0.00    -0.357 N 
HETATM   12  H   UNL     1      27.889  41.142  47.574  1.00  0.00     0.162 HD
HETATM   13  O   UNL     1      24.971  40.711  48.710  1.00  0.00    -0.268 OA
BRANCH  11  14
HETATM   14  C   UNL     1      26.628  39.664  46.726  1.00  0.00     0.127 C 
BRANCH  14  15
HETATM   15  C   UNL     1      27.592  38.493  46.541  1.00  0.00     0.058 C 
BRANCH  15  16
HETATM   16  C   UNL     1      28.125  38.023  47.874  1.00  0.00    -0.054 A 
HETATM   17  C   UNL     1      29.450  38.306  48.245  1.00  0.00     0.046 A 
HETATM   18  C   UNL     1      29.908  37.926  49.503  1.00  0.00     0.099 A 
HETATM   19  C   UNL     1      29.062  37.267  50.390  1.00  0.00     0.098 A 
HETATM   20  C   UNL     1      27.752  36.976  50.040  1.00  0.00     0.040 A 
HETATM   21  C   UNL     1      27.282  37.358  48.780  1.00  0.00     0.010 A 
BRANCH  18  22
HETATM   22  O   UNL     1      31.184  38.190  49.918  1.00  0.00    -0.358 OA
HETATM   23  H   UNL     1      31.135  38.802  50.672  1.00  0.00     0.218 HD
ENDBRANCH  18  22
BRANCH  19  24
HETATM   24  O   UNL     1      29.517  36.909  51.627  1.00  0.00    -0.358 OA
HETATM   25  H   UNL     1      30.099  37.647  51.894  1.00  0.00     0.218 HD
ENDBRANCH  19  24
ENDBRANCH  15  16
ENDBRANCH  14  15
ENDBRANCH  11  14
ENDBRANCH   9  10
BRANCH   7  26
HETATM   26  C   UNL     1      25.909  45.927  49.862  1.00  0.00     0.033 A 
HETATM   27  S   UNL     1      24.225  46.255  49.722  1.00  0.00    -0.100 SA
HETATM   28  C   UNL     1      24.487  47.931  49.525  1.00  0.00     0.050 A 
HETATM   29  C   UNL     1      25.824  48.250  49.547  1.00  0.00     0.008 A 
HETATM   30  C   UNL     1      26.641  47.096  49.730  1.00  0.00     0.021 A 
ENDBRANCH   7  26
BRANCH   1  31
HETATM   31  C   UNL     1      29.098  43.607  53.428  1.00  0.00     0.104 C 
HETATM   32  C   UNL     1      30.402  43.023  53.973  1.00  0.00     0.034 C 
HETATM   33  C   UNL     1      28.086  43.862  54.544  1.00  0.00     0.034 C 
ENDBRANCH   1  31
TORSDOF 8
ENDMDL
MODEL 8
REMARK VINA RESULT:      -8.4      4.509      9.185
REMARK  8 active torsions:
REMARK  status: ('A' for Active; 'I' for Inactive)
REMARK    1  A    between atoms: C_2  and  N_3 
REMARK    2  A    between atoms: C_9  and  C_10 
REMARK    3  A    between atoms: C_16  and  C_17 
REMARK       I    between atoms: C_17  and  N_18 
REMARK    4  A    between atoms: N_18  and  C_19 
REMARK    5  A    between atoms: C_19  and  C_20 
REMARK    6  A    between atoms: C_20  and  C_21 
REMARK    7  A    between atoms: C_23  and  O_24 
REMARK    8  A    between atoms: C_25  and  O_26 
ROOT
HETATM    1  N   UNL     1      25.356  43.464  50.134  1.00  0.00    -0.248 N 
HETATM    2  N   UNL     1      24.733  43.608  48.938  1.00  0.00    -0.182 NA
HETATM    3  C   UNL     1      24.568  44.930  48.828  1.00  0.00     0.155 A 
HETATM    4  C   UNL     1      25.112  45.646  49.915  1.00  0.00     0.046 A 
HETATM    5  C   UNL     1      25.605  44.660  50.758  1.00  0.00     0.159 A 
HETATM    6  N   UNL     1      26.195  44.839  51.956  1.00  0.00    -0.228 NA
HETATM    7  C   UNL     1      26.295  46.133  52.347  1.00  0.00     0.077 A 
HETATM    8  C   UNL     1      25.828  47.207  51.597  1.00  0.00     0.051 A 
HETATM    9  C   UNL     1      25.237  46.971  50.349  1.00  0.00     0.049 A 
ENDROOT
BRANCH   9  10
HETATM   10  C   UNL     1      24.730  48.126  49.585  1.00  0.00     0.252 C 
HETATM   11  N   UNL     1      23.381  48.145  49.290  1.00  0.00    -0.357 N 
HETATM   12  H   UNL     1      22.861  47.282  49.391  1.00  0.00     0.162 HD
HETATM   13  O   UNL     1      25.522  48.979  49.204  1.00  0.00    -0.268 OA
BRANCH  11  14
HETATM   14  C   UNL     1      22.874  49.122  48.339  1.00  0.00     0.127 C 
BRANCH  14  15
HETATM   15  C   UNL     1      22.635  50.492  48.972  1.00  0.00     0.058 C 
BRANCH  15  16
HETATM   16  C   UNL     1      21.164  50.711  49.233  1.00  0.00    -0.054 A 
HETATM   17  C   UNL     1      20.488  49.920  50.177  1.00  0.00     0.046 A 
HETATM   18  C   UNL     1      19.150  50.177  50.456  1.00  0.00     0.099 A 
HETATM   19  C   UNL     1      18.480  51.210  49.807  1.00  0.00     0.098 A 
HETATM   20  C   UNL     1      19.131  51.999  48.871  1.00  0.00     0.040 A 
HETATM   21  C   UNL     1      20.476  51.752  48.586  1.00  0.00     0.010 A 
BRANCH  18  22
HETATM   22  O   UNL     1      18.449  49.445  51.376  1.00  0.00    -0.358 OA
HETATM   23  H   UNL     1      18.593  48.502  51.184  1.00  0.00     0.218 HD
ENDBRANCH  18  22
BRANCH  19  24
HETATM   24  O   UNL     1      17.170  51.462  50.098  1.00  0.00    -0.358 OA
HETATM   25  H   UNL     1      16.853  50.640  50.521  1.00  0.00     0.218 HD
ENDBRANCH  19  24
ENDBRANCH  15  16
ENDBRANCH  14  15
ENDBRANCH  11  14
ENDBRANCH   9  10
BRANCH   7  26
HETATM   26  C   UNL     1      26.924  46.296  53.669  1.00  0.00     0.033 A 
HETATM   27  S   UNL     1      27.782  45.008  54.423  1.00  0.00    -0.100 SA
HETATM   28  C   UNL     1      28.150  45.952  55.798  1.00  0.00     0.050 A 
HETATM   29  C   UNL     1      27.625  47.220  55.709  1.00  0.00     0.008 A 
HETATM   30  C   UNL     1      26.911  47.412  54.490  1.00  0.00     0.021 A 
ENDBRANCH   7  26
BRANCH   1  31
HETATM   31  C   UNL     1      25.650  42.123  50.631  1.00  0.00     0.104 C 
HETATM   32  C   UNL     1      27.108  41.985  51.072  1.00  0.00     0.034 C 
HETATM   33  C   UNL     1      25.260  41.037  49.629  1.00  0.00     0.034 C 
ENDBRANCH   1  31
TORSDOF 8
ENDMDL
MODEL 9
REMARK VINA RESULT:      -8.4      2.070      4.453
REMARK  8 active torsions:
REMARK  status: ('A' for Active; 'I' for Inactive)
REMARK    1  A    between atoms: C_2  and  N_3 
REMARK    2  A    between atoms: C_9  and  C_10 
REMARK    3  A    between atoms: C_16  and  C_17 
REMARK       I    between atoms: C_17  and  N_18 
REMARK    4  A    between atoms: N_18  and  C_19 
REMARK    5  A    between atoms: C_19  and  C_20 
REMARK    6  A    between atoms: C_20  and  C_21 
REMARK    7  A    between atoms: C_23  and  O_24 
REMARK    8  A    between atoms: C_25  and  O_26 
ROOT
HETATM    1  N   UNL     1      24.503  48.231  49.175  1.00  0.00    -0.248 N 
HETATM    2  N   UNL     1      25.592  48.309  49.978  1.00  0.00    -0.182 NA
HETATM    3  C   UNL     1      25.636  47.107  50.563  1.00  0.00     0.155 A 
HETATM    4  C   UNL     1      24.616  46.240  50.120  1.00  0.00     0.046 A 
HETATM    5  C   UNL     1      23.884  47.007  49.225  1.00  0.00     0.159 A 
HETATM    6  N   UNL     1      22.778  46.634  48.552  1.00  0.00    -0.228 NA
HETATM    7  C   UNL     1      22.364  45.368  48.808  1.00  0.00     0.077 A 
HETATM    8  C   UNL     1      23.005  44.508  49.691  1.00  0.00     0.051 A 
HETATM    9  C   UNL     1      24.163  44.936  50.355  1.00  0.00     0.049 A 
ENDROOT
BRANCH   9  10
HETATM   10  C   UNL     1      24.809  44.012  51.303  1.00  0.00     0.252 C 
HETATM   11  N   UNL     1      25.461  44.570  52.386  1.00  0.00    -0.357 N 
HETATM   12  H   UNL     1      25.672  45.561  52.352  1.00  0.00     0.162 HD
HETATM   13  O   UNL     1      24.788  42.810  51.068  1.00  0.00    -0.268 OA
BRANCH  11  14
HETATM   14  C   UNL     1      26.317  43.733  53.211  1.00  0.00     0.127 C 
BRANCH  14  15
HETATM   15  C   UNL     1      27.766  43.714  52.724  1.00  0.00     0.058 C 
BRANCH  15  16
HETATM   16  C   UNL     1      28.718  43.974  53.867  1.00  0.00    -0.054 A 
HETATM   17  C   UNL     1      28.503  45.060  54.733  1.00  0.00     0.046 A 
HETATM   18  C   UNL     1      29.349  45.249  55.821  1.00  0.00     0.099 A 
HETATM   19  C   UNL     1      30.403  44.371  56.055  1.00  0.00     0.098 A 
HETATM   20  C   UNL     1      30.631  43.295  55.210  1.00  0.00     0.040 A 
HETATM   21  C   UNL     1      29.785  43.094  54.116  1.00  0.00     0.010 A 
BRANCH  18  22
HETATM   22  O   UNL     1      29.176  46.282  56.700  1.00  0.00    -0.358 OA
HETATM   23  H   UNL     1      29.291  47.116  56.213  1.00  0.00     0.218 HD
ENDBRANCH  18  22
BRANCH  19  24
HETATM   24  O   UNL     1      31.220  44.558  57.133  1.00  0.00    -0.358 OA
HETATM   25  H   UNL     1      31.983  45.052  56.775  1.00  0.00     0.218 HD
ENDBRANCH  19  24
ENDBRANCH  15  16
ENDBRANCH  14  15
ENDBRANCH  11  14
ENDBRANCH   9  10
BRANCH   7  26
HETATM   26  C   UNL     1      21.141  44.996  48.076  1.00  0.00     0.033 A 
HETATM   27  S   UNL     1      21.197  43.984  46.685  1.00  0.00    -0.100 SA
HETATM   28  C   UNL     1      19.504  44.050  46.470  1.00  0.00     0.050 A 
HETATM   29  C   UNL     1      18.894  44.835  47.419  1.00  0.00     0.008 A 
HETATM   30  C   UNL     1      19.837  45.387  48.335  1.00  0.00     0.021 A 
ENDBRANCH   7  26
BRANCH   1  31
HETATM   31  C   UNL     1      24.096  49.403  48.406  1.00  0.00     0.104 C 
HETATM   32  C   UNL     1      25.299  50.188  47.881  1.00  0.00     0.034 C 
HETATM   33  C   UNL     1      23.135  50.300  49.185  1.00  0.00     0.034 C 
ENDBRANCH   1  31
TORSDOF 8
ENDMDL
MODEL 10
REMARK VINA RESULT:      -8.3      5.294      9.955
REMARK  8 active torsions:
REMARK  status: ('A' for Active; 'I' for Inactive)
REMARK    1  A    between atoms: C_2  and  N_3 
REMARK    2  A    between atoms: C_9  and  C_10 
REMARK    3  A    between atoms: C_16  and  C_17 
REMARK       I    between atoms: C_17  and  N_18 
REMARK    4  A    between atoms: N_18  and  C_19 
REMARK    5  A    between atoms: C_19  and  C_20 
REMARK    6  A    between atoms: C_20  and  C_21 
REMARK    7  A    between atoms: C_23  and  O_24 
REMARK    8  A    between atoms: C_25  and  O_26 
ROOT
HETATM    1  N   UNL     1      23.875  43.739  49.266  1.00  0.00    -0.248 N 
HETATM    2  N   UNL     1      23.095  44.160  48.241  1.00  0.00    -0.182 NA
HETATM    3  C   UNL     1      23.091  45.490  48.375  1.00  0.00     0.155 A 
HETATM    4  C   UNL     1      23.890  45.939  49.448  1.00  0.00     0.046 A 
HETATM    5  C   UNL     1      24.377  44.771  50.019  1.00  0.00     0.159 A 
HETATM    6  N   UNL     1      25.169  44.668  51.104  1.00  0.00    -0.228 NA
HETATM    7  C   UNL     1      25.499  45.853  51.675  1.00  0.00     0.077 A 
HETATM    8  C   UNL     1      25.065  47.087  51.203  1.00  0.00     0.051 A 
HETATM    9  C   UNL     1      24.256  47.143  50.060  1.00  0.00     0.049 A 
ENDROOT
BRANCH   9  10
HETATM   10  C   UNL     1      23.791  48.462  49.596  1.00  0.00     0.252 C 
HETATM   11  N   UNL     1      22.428  48.686  49.588  1.00  0.00    -0.357 N 
HETATM   12  H   UNL     1      21.816  47.882  49.663  1.00  0.00     0.162 HD
HETATM   13  O   UNL     1      24.615  49.274  49.192  1.00  0.00    -0.268 OA
BRANCH  11  14
HETATM   14  C   UNL     1      21.903  49.863  48.915  1.00  0.00     0.127 C 
BRANCH  14  15
HETATM   15  C   UNL     1      21.186  50.816  49.871  1.00  0.00     0.058 C 
BRANCH  15  16
HETATM   16  C   UNL     1      19.873  51.276  49.283  1.00  0.00    -0.054 A 
HETATM   17  C   UNL     1      18.891  51.849  50.109  1.00  0.00     0.046 A 
HETATM   18  C   UNL     1      17.714  52.329  49.546  1.00  0.00     0.099 A 
HETATM   19  C   UNL     1      17.505  52.244  48.172  1.00  0.00     0.098 A 
HETATM   20  C   UNL     1      18.461  51.680  47.342  1.00  0.00     0.040 A 
HETATM   21  C   UNL     1      19.649  51.197  47.898  1.00  0.00     0.010 A 
BRANCH  18  22
HETATM   22  O   UNL     1      16.732  52.907  50.303  1.00  0.00    -0.358 OA
HETATM   23  H   UNL     1      16.351  53.643  49.793  1.00  0.00     0.218 HD
ENDBRANCH  18  22
BRANCH  19  24
HETATM   24  O   UNL     1      16.351  52.730  47.627  1.00  0.00    -0.358 OA
HETATM   25  H   UNL     1      16.201  52.170  46.840  1.00  0.00     0.218 HD
ENDBRANCH  19  24
ENDBRANCH  15  16
ENDBRANCH  14  15
ENDBRANCH  11  14
ENDBRANCH   9  10
BRANCH   7  26
HETATM   26  C   UNL     1      26.346  45.709  52.871  1.00  0.00     0.033 A 
HETATM   27  S   UNL     1      26.385  46.914  54.099  1.00  0.00    -0.100 SA
HETATM   28  C   UNL     1      27.518  46.042  55.031  1.00  0.00     0.050 A 
HETATM   29  C   UNL     1      27.883  44.862  54.428  1.00  0.00     0.008 A 
HETATM   30  C   UNL     1      27.217  44.676  53.181  1.00  0.00     0.021 A 
ENDBRANCH   7  26
BRANCH   1  31
HETATM   31  C   UNL     1      24.066  42.308  49.479  1.00  0.00     0.104 C 
HETATM   32  C   UNL     1      25.521  41.887  49.267  1.00  0.00     0.034 C 
HETATM   33  C   UNL     1      23.108  41.465  48.638  1.00  0.00     0.034 C 
ENDBRANCH   1  31
TORSDOF 8
ENDMDL
