MODEL 1
REMARK VINA RESULT:     -10.3      0.000      0.000
REMARK  7 active torsions:
REMARK  status: ('A' for Active; 'I' for Inactive)
REMARK    1  A    between atoms: C_3  and  N_4 
REMARK       I    between atoms: N_4  and  C_5 
REMARK    2  A    between atoms: C_5  and  C_6 
REMARK    3  A    between atoms: C_6  and  N_7 
REMARK    4  A    between atoms: N_10  and  C_11 
REMARK    5  A    between atoms: C_11  and  C_12 
REMARK    6  A    between atoms: C_27  and  C_28 
REMARK       I    between atoms: C_28  and  N_29 
REMARK    7  A    between atoms: N_29  and  C_30 
ROOT
HETATM    1  N   UNL     1      23.000  47.522  48.854  1.00  0.00    -0.290 N 
HETATM    2  C   UNL     1      22.069  47.459  47.828  1.00  0.00     0.332 C 
HETATM    3  O   UNL     1      22.058  48.345  46.970  1.00  0.00    -0.246 OA
HETATM    4  N   UNL     1      21.224  46.363  47.814  1.00  0.00    -0.261 N 
HETATM    5  C   UNL     1      21.496  45.187  48.502  1.00  0.00     0.264 C 
HETATM    6  O   UNL     1      20.850  44.149  48.378  1.00  0.00    -0.267 OA
HETATM    7  C   UNL     1      22.675  45.187  49.390  1.00  0.00     0.059 A 
HETATM    8  C   UNL     1      23.406  46.361  49.554  1.00  0.00     0.056 A 
HETATM    9  C   UNL     1      23.045  44.011  50.057  1.00  0.00     0.020 A 
HETATM   10  C   UNL     1      24.185  43.988  50.863  1.00  0.00     0.018 A 
HETATM   11  C   UNL     1      24.968  45.140  50.996  1.00  0.00     0.034 A 
HETATM   12  C   UNL     1      24.554  46.328  50.359  1.00  0.00     0.048 A 
ENDROOT
BRANCH   1  13
HETATM   13  C   UNL     1      23.477  48.852  49.246  1.00  0.00     0.237 C 
BRANCH  13  14
HETATM   14  C   UNL     1      22.449  49.950  49.539  1.00  0.00     0.240 C 
HETATM   15  N   UNL     1      21.172  49.666  49.104  1.00  0.00    -0.325 N 
HETATM   16  H   UNL     1      21.014  48.673  48.941  1.00  0.00     0.169 HD
HETATM   17  O   UNL     1      22.777  50.890  50.258  1.00  0.00    -0.271 OA
BRANCH  15  18
HETATM   18  C   UNL     1      20.000  50.446  49.233  1.00  0.00     0.040 A 
HETATM   19  C   UNL     1      18.868  50.149  50.014  1.00  0.00    -0.035 A 
HETATM   20  C   UNL     1      18.734  48.972  50.939  1.00  0.00     0.050 C 
HETATM   21  C   UNL     1      17.757  51.021  49.958  1.00  0.00     0.009 A 
HETATM   22  C   UNL     1      17.786  52.192  49.206  1.00  0.00     0.001 A 
HETATM   23  C   UNL     1      18.929  52.520  48.494  1.00  0.00     0.002 A 
HETATM   24  C   UNL     1      20.023  51.655  48.510  1.00  0.00     0.030 A 
ENDBRANCH  15  18
ENDBRANCH  13  14
ENDBRANCH   1  13
BRANCH   4  25
HETATM   25  C   UNL     1      20.168  46.307  46.803  1.00  0.00     0.175 C 
BRANCH  25  26
HETATM   26  C   UNL     1      18.858  46.960  47.201  1.00  0.00    -0.037 A 
HETATM   27  C   UNL     1      18.467  48.197  46.659  1.00  0.00     0.048 A 
HETATM   28  C   UNL     1      17.240  48.706  47.032  1.00  0.00     0.105 A 
HETATM   29  C   UNL     1      16.419  48.053  47.922  1.00  0.00     0.105 A 
HETATM   30  O   UNL     1      16.691  49.869  46.583  1.00  0.00    -0.323 OA
HETATM   31  O   UNL     1      15.254  48.720  48.145  1.00  0.00    -0.323 OA
HETATM   32  C   UNL     1      16.778  46.855  48.495  1.00  0.00     0.040 A 
HETATM   33  C   UNL     1      15.420  49.853  47.270  1.00  0.00     0.352 A 
HETATM   34  C   UNL     1      18.010  46.307  48.130  1.00  0.00     0.012 A 
ENDBRANCH  25  26
ENDBRANCH   4  25
BRANCH  11  35
HETATM   35  C   UNL     1      26.249  45.175  51.768  1.00  0.00     0.252 C 
HETATM   36  N   UNL     1      26.606  44.042  52.473  1.00  0.00    -0.352 N 
HETATM   37  H   UNL     1      26.079  43.191  52.359  1.00  0.00     0.163 HD
HETATM   38  O   UNL     1      26.946  46.183  51.725  1.00  0.00    -0.268 OA
BRANCH  36  39
HETATM   39  C   UNL     1      27.912  43.919  53.123  1.00  0.00     0.084 C 
HETATM   40  C   UNL     1      27.816  43.044  54.379  1.00  0.00     0.025 C 
HETATM   41  C   UNL     1      27.633  41.561  54.063  1.00  0.00     0.002 C 
HETATM   42  C   UNL     1      28.703  41.053  53.103  1.00  0.00     0.000 C 
HETATM   43  C   UNL     1      28.759  41.890  51.828  1.00  0.00     0.002 C 
HETATM   44  C   UNL     1      28.954  43.375  52.135  1.00  0.00     0.025 C 
ENDBRANCH  36  39
ENDBRANCH  11  35
TORSDOF 7
ENDMDL
MODEL 2
REMARK VINA RESULT:     -10.2      2.541      6.221
REMARK  7 active torsions:
REMARK  status: ('A' for Active; 'I' for Inactive)
REMARK    1  A    between atoms: C_3  and  N_4 
REMARK       I    between atoms: N_4  and  C_5 
REMARK    2  A    between atoms: C_5  and  C_6 
REMARK    3  A    between atoms: C_6  and  N_7 
REMARK    4  A    between atoms: N_10  and  C_11 
REMARK    5  A    between atoms: C_11  and  C_12 
REMARK    6  A    between atoms: C_27  and  C_28 
REMARK       I    between atoms: C_28  and  N_29 
REMARK    7  A    between atoms: N_29  and  C_30 
ROOT
HETATM    1  N   UNL     1      22.907  46.271  48.983  1.00  0.00    -0.290 N 
HETATM    2  C   UNL     1      22.365  47.401  48.389  1.00  0.00     0.332 C 
HETATM    3  O   UNL     1      21.189  47.380  48.016  1.00  0.00    -0.246 OA
HETATM    4  N   UNL     1      23.185  48.512  48.290  1.00  0.00    -0.261 N 
HETATM    5  C   UNL     1      24.328  48.682  49.061  1.00  0.00     0.264 C 
HETATM    6  O   UNL     1      24.980  49.723  49.109  1.00  0.00    -0.267 OA
HETATM    7  C   UNL     1      24.737  47.548  49.913  1.00  0.00     0.059 A 
HETATM    8  C   UNL     1      24.018  46.357  49.855  1.00  0.00     0.056 A 
HETATM    9  C   UNL     1      25.840  47.681  50.767  1.00  0.00     0.020 A 
HETATM   10  C   UNL     1      26.208  46.631  51.611  1.00  0.00     0.018 A 
HETATM   11  C   UNL     1      25.464  45.446  51.612  1.00  0.00     0.034 A 
HETATM   12  C   UNL     1      24.389  45.309  50.710  1.00  0.00     0.048 A 
ENDROOT
BRANCH   1  13
HETATM   13  C   UNL     1      22.340  44.974  48.599  1.00  0.00     0.237 C 
BRANCH  13  14
HETATM   14  C   UNL     1      23.212  43.990  47.812  1.00  0.00     0.240 C 
HETATM   15  N   UNL     1      23.561  42.854  48.509  1.00  0.00    -0.325 N 
HETATM   16  H   UNL     1      22.956  42.669  49.307  1.00  0.00     0.169 HD
HETATM   17  O   UNL     1      23.393  44.190  46.613  1.00  0.00    -0.271 OA
BRANCH  15  18
HETATM   18  C   UNL     1      24.331  41.750  48.073  1.00  0.00     0.040 A 
HETATM   19  C   UNL     1      25.701  41.529  48.306  1.00  0.00    -0.035 A 
HETATM   20  C   UNL     1      26.590  42.396  49.153  1.00  0.00     0.050 C 
HETATM   21  C   UNL     1      26.314  40.397  47.724  1.00  0.00     0.009 A 
HETATM   22  C   UNL     1      25.583  39.468  46.988  1.00  0.00     0.001 A 
HETATM   23  C   UNL     1      24.219  39.650  46.819  1.00  0.00     0.002 A 
HETATM   24  C   UNL     1      23.602  40.779  47.358  1.00  0.00     0.030 A 
ENDBRANCH  15  18
ENDBRANCH  13  14
ENDBRANCH   1  13
BRANCH   4  25
HETATM   25  C   UNL     1      22.681  49.692  47.586  1.00  0.00     0.175 C 
BRANCH  25  26
HETATM   26  C   UNL     1      21.504  50.383  48.246  1.00  0.00    -0.037 A 
HETATM   27  C   UNL     1      20.363  50.742  47.508  1.00  0.00     0.048 A 
HETATM   28  C   UNL     1      19.311  51.324  48.186  1.00  0.00     0.105 A 
HETATM   29  C   UNL     1      19.365  51.576  49.538  1.00  0.00     0.105 A 
HETATM   30  O   UNL     1      18.124  51.705  47.639  1.00  0.00    -0.323 OA
HETATM   31  O   UNL     1      18.223  52.143  50.010  1.00  0.00    -0.323 OA
HETATM   32  C   UNL     1      20.474  51.264  50.290  1.00  0.00     0.040 A 
HETATM   33  C   UNL     1      17.430  52.193  48.807  1.00  0.00     0.352 A 
HETATM   34  C   UNL     1      21.551  50.663  49.635  1.00  0.00     0.012 A 
ENDBRANCH  25  26
ENDBRANCH   4  25
BRANCH  11  35
HETATM   35  C   UNL     1      25.738  44.308  52.545  1.00  0.00     0.252 C 
HETATM   36  N   UNL     1      27.015  43.781  52.560  1.00  0.00    -0.352 N 
HETATM   37  H   UNL     1      27.754  44.239  52.049  1.00  0.00     0.163 HD
HETATM   38  O   UNL     1      24.841  43.908  53.280  1.00  0.00    -0.268 OA
BRANCH  36  39
HETATM   39  C   UNL     1      27.424  42.782  53.547  1.00  0.00     0.084 C 
HETATM   40  C   UNL     1      28.510  41.862  52.975  1.00  0.00     0.025 C 
HETATM   41  C   UNL     1      29.868  42.549  52.841  1.00  0.00     0.002 C 
HETATM   42  C   UNL     1      30.307  43.190  54.153  1.00  0.00     0.000 C 
HETATM   43  C   UNL     1      29.250  44.149  54.693  1.00  0.00     0.002 C 
HETATM   44  C   UNL     1      27.890  43.466  54.841  1.00  0.00     0.025 C 
ENDBRANCH  36  39
ENDBRANCH  11  35
TORSDOF 7
ENDMDL
MODEL 3
REMARK VINA RESULT:     -10.1      2.581      6.822
REMARK  7 active torsions:
REMARK  status: ('A' for Active; 'I' for Inactive)
REMARK    1  A    between atoms: C_3  and  N_4 
REMARK       I    between atoms: N_4  and  C_5 
REMARK    2  A    between atoms: C_5  and  C_6 
REMARK    3  A    between atoms: C_6  and  N_7 
REMARK    4  A    between atoms: N_10  and  C_11 
REMARK    5  A    between atoms: C_11  and  C_12 
REMARK    6  A    between atoms: C_27  and  C_28 
REMARK       I    between atoms: C_28  and  N_29 
REMARK    7  A    between atoms: N_29  and  C_30 
ROOT
HETATM    1  N   UNL     1      23.933  45.871  49.822  1.00  0.00    -0.290 N 
HETATM    2  C   UNL     1      23.815  47.235  49.607  1.00  0.00     0.332 C 
HETATM    3  O   UNL     1      24.539  48.008  50.239  1.00  0.00    -0.246 OA
HETATM    4  N   UNL     1      22.903  47.643  48.649  1.00  0.00    -0.261 N 
HETATM    5  C   UNL     1      22.409  46.797  47.665  1.00  0.00     0.264 C 
HETATM    6  O   UNL     1      21.728  47.170  46.711  1.00  0.00    -0.267 OA
HETATM    7  C   UNL     1      22.782  45.372  47.756  1.00  0.00     0.059 A 
HETATM    8  C   UNL     1      23.536  44.932  48.840  1.00  0.00     0.056 A 
HETATM    9  C   UNL     1      22.373  44.480  46.755  1.00  0.00     0.020 A 
HETATM   10  C   UNL     1      22.759  43.139  46.808  1.00  0.00     0.018 A 
HETATM   11  C   UNL     1      23.567  42.687  47.856  1.00  0.00     0.034 A 
HETATM   12  C   UNL     1      23.926  43.586  48.882  1.00  0.00     0.048 A 
ENDROOT
BRANCH   1  13
HETATM   13  C   UNL     1      24.398  45.437  51.144  1.00  0.00     0.237 C 
BRANCH  13  14
HETATM   14  C   UNL     1      25.892  45.166  51.350  1.00  0.00     0.240 C 
HETATM   15  N   UNL     1      26.194  44.498  52.517  1.00  0.00    -0.325 N 
HETATM   16  H   UNL     1      25.398  44.007  52.918  1.00  0.00     0.169 HD
HETATM   17  O   UNL     1      26.667  45.399  50.426  1.00  0.00    -0.271 OA
BRANCH  15  18
HETATM   18  C   UNL     1      27.458  44.079  52.994  1.00  0.00     0.040 A 
HETATM   19  C   UNL     1      28.147  44.578  54.115  1.00  0.00    -0.035 A 
HETATM   20  C   UNL     1      27.615  45.602  55.079  1.00  0.00     0.050 C 
HETATM   21  C   UNL     1      29.440  44.081  54.393  1.00  0.00     0.009 A 
HETATM   22  C   UNL     1      30.014  43.069  53.628  1.00  0.00     0.001 A 
HETATM   23  C   UNL     1      29.304  42.528  52.567  1.00  0.00     0.002 A 
HETATM   24  C   UNL     1      28.040  43.029  52.257  1.00  0.00     0.030 A 
ENDBRANCH  15  18
ENDBRANCH  13  14
ENDBRANCH   1  13
BRANCH   4  25
HETATM   25  C   UNL     1      22.683  49.077  48.459  1.00  0.00     0.175 C 
BRANCH  25  26
HETATM   26  C   UNL     1      21.348  49.597  48.955  1.00  0.00    -0.037 A 
HETATM   27  C   UNL     1      20.955  50.927  48.729  1.00  0.00     0.048 A 
HETATM   28  C   UNL     1      19.705  51.315  49.168  1.00  0.00     0.105 A 
HETATM   29  C   UNL     1      18.862  50.450  49.827  1.00  0.00     0.105 A 
HETATM   30  O   UNL     1      19.153  52.549  49.007  1.00  0.00    -0.323 OA
HETATM   31  O   UNL     1      17.678  51.028  50.162  1.00  0.00    -0.323 OA
HETATM   32  C   UNL     1      19.221  49.148  50.091  1.00  0.00     0.040 A 
HETATM   33  C   UNL     1      17.857  52.348  49.613  1.00  0.00     0.352 A 
HETATM   34  C   UNL     1      20.476  48.722  49.650  1.00  0.00     0.012 A 
ENDBRANCH  25  26
ENDBRANCH   4  25
BRANCH  11  35
HETATM   35  C   UNL     1      24.095  41.289  47.940  1.00  0.00     0.252 C 
HETATM   36  N   UNL     1      25.395  41.119  48.380  1.00  0.00    -0.352 N 
HETATM   37  H   UNL     1      25.909  41.904  48.746  1.00  0.00     0.163 HD
HETATM   38  O   UNL     1      23.359  40.352  47.652  1.00  0.00    -0.268 OA
BRANCH  36  39
HETATM   39  C   UNL     1      25.947  39.791  48.652  1.00  0.00     0.084 C 
HETATM   40  C   UNL     1      26.732  39.269  47.443  1.00  0.00     0.025 C 
HETATM   41  C   UNL     1      28.068  39.982  47.242  1.00  0.00     0.002 C 
HETATM   42  C   UNL     1      28.912  39.965  48.512  1.00  0.00     0.000 C 
HETATM   43  C   UNL     1      28.150  40.538  49.703  1.00  0.00     0.002 C 
HETATM   44  C   UNL     1      26.816  39.821  49.918  1.00  0.00     0.025 C 
ENDBRANCH  36  39
ENDBRANCH  11  35
TORSDOF 7
ENDMDL
MODEL 4
REMARK VINA RESULT:     -10.0      3.100      7.063
REMARK  7 active torsions:
REMARK  status: ('A' for Active; 'I' for Inactive)
REMARK    1  A    between atoms: C_3  and  N_4 
REMARK       I    between atoms: N_4  and  C_5 
REMARK    2  A    between atoms: C_5  and  C_6 
REMARK    3  A    between atoms: C_6  and  N_7 
REMARK    4  A    between atoms: N_10  and  C_11 
REMARK    5  A    between atoms: C_11  and  C_12 
REMARK    6  A    between atoms: C_27  and  C_28 
REMARK       I    between atoms: C_28  and  N_29 
REMARK    7  A    between atoms: N_29  and  C_30 
ROOT
HETATM    1  N   UNL     1      24.652  45.308  50.662  1.00  0.00    -0.290 N 
HETATM    2  C   UNL     1      24.304  46.508  50.060  1.00  0.00     0.332 C 
HETATM    3  O   UNL     1      24.785  47.559  50.491  1.00  0.00    -0.246 OA
HETATM    4  N   UNL     1      23.455  46.439  48.969  1.00  0.00    -0.261 N 
HETATM    5  C   UNL     1      23.254  45.275  48.238  1.00  0.00     0.264 C 
HETATM    6  O   UNL     1      22.636  45.225  47.176  1.00  0.00    -0.267 OA
HETATM    7  C   UNL     1      23.877  44.042  48.755  1.00  0.00     0.059 A 
HETATM    8  C   UNL     1      24.564  44.080  49.965  1.00  0.00     0.056 A 
HETATM    9  C   UNL     1      23.771  42.849  48.026  1.00  0.00     0.020 A 
HETATM   10  C   UNL     1      24.396  41.687  48.484  1.00  0.00     0.018 A 
HETATM   11  C   UNL     1      25.141  41.716  49.667  1.00  0.00     0.034 A 
HETATM   12  C   UNL     1      25.195  42.911  50.414  1.00  0.00     0.048 A 
ENDROOT
BRANCH   1  13
HETATM   13  C   UNL     1      25.027  45.353  52.080  1.00  0.00     0.237 C 
BRANCH  13  14
HETATM   14  C   UNL     1      26.511  45.278  52.455  1.00  0.00     0.240 C 
HETATM   15  N   UNL     1      26.750  44.912  53.762  1.00  0.00    -0.325 N 
HETATM   16  H   UNL     1      25.959  44.445  54.201  1.00  0.00     0.169 HD
HETATM   17  O   UNL     1      27.351  45.379  51.565  1.00  0.00    -0.271 OA
BRANCH  15  18
HETATM   18  C   UNL     1      27.991  44.730  54.416  1.00  0.00     0.040 A 
HETATM   19  C   UNL     1      28.845  43.616  54.317  1.00  0.00    -0.035 A 
HETATM   20  C   UNL     1      28.633  42.436  53.411  1.00  0.00     0.050 C 
HETATM   21  C   UNL     1      30.015  43.586  55.108  1.00  0.00     0.009 A 
HETATM   22  C   UNL     1      30.373  44.655  55.925  1.00  0.00     0.001 A 
HETATM   23  C   UNL     1      29.567  45.783  55.968  1.00  0.00     0.002 A 
HETATM   24  C   UNL     1      28.390  45.817  55.219  1.00  0.00     0.030 A 
ENDBRANCH  15  18
ENDBRANCH  13  14
ENDBRANCH   1  13
BRANCH   4  25
HETATM   25  C   UNL     1      22.990  47.688  48.365  1.00  0.00     0.175 C 
BRANCH  25  26
HETATM   26  C   UNL     1      21.619  48.152  48.815  1.00  0.00    -0.037 A 
HETATM   27  C   UNL     1      21.396  49.479  49.220  1.00  0.00     0.048 A 
HETATM   28  C   UNL     1      20.110  49.840  49.570  1.00  0.00     0.105 A 
HETATM   29  C   UNL     1      19.069  48.941  49.552  1.00  0.00     0.105 A 
HETATM   30  O   UNL     1      19.710  51.083  49.955  1.00  0.00    -0.323 OA
HETATM   31  O   UNL     1      17.887  49.502  49.921  1.00  0.00    -0.323 OA
HETATM   32  C   UNL     1      19.252  47.627  49.188  1.00  0.00     0.040 A 
HETATM   33  C   UNL     1      18.294  50.867  50.144  1.00  0.00     0.352 A 
HETATM   34  C   UNL     1      20.540  47.232  48.817  1.00  0.00     0.012 A 
ENDBRANCH  25  26
ENDBRANCH   4  25
BRANCH  11  35
HETATM   35  C   UNL     1      25.912  40.540  50.179  1.00  0.00     0.252 C 
HETATM   36  N   UNL     1      26.052  39.449  49.343  1.00  0.00    -0.352 N 
HETATM   37  H   UNL     1      25.750  39.509  48.383  1.00  0.00     0.163 HD
HETATM   38  O   UNL     1      26.415  40.595  51.296  1.00  0.00    -0.268 OA
BRANCH  36  39
HETATM   39  C   UNL     1      26.920  38.323  49.686  1.00  0.00     0.084 C 
HETATM   40  C   UNL     1      26.462  37.044  48.975  1.00  0.00     0.025 C 
HETATM   41  C   UNL     1      26.760  37.051  47.477  1.00  0.00     0.002 C 
HETATM   42  C   UNL     1      28.227  37.355  47.196  1.00  0.00     0.000 C 
HETATM   43  C   UNL     1      28.669  38.658  47.857  1.00  0.00     0.002 C 
HETATM   44  C   UNL     1      28.384  38.654  49.359  1.00  0.00     0.025 C 
ENDBRANCH  36  39
ENDBRANCH  11  35
TORSDOF 7
ENDMDL
MODEL 5
REMARK VINA RESULT:      -9.6      2.220      4.893
REMARK  7 active torsions:
REMARK  status: ('A' for Active; 'I' for Inactive)
REMARK    1  A    between atoms: C_3  and  N_4 
REMARK       I    between atoms: N_4  and  C_5 
REMARK    2  A    between atoms: C_5  and  C_6 
REMARK    3  A    between atoms: C_6  and  N_7 
REMARK    4  A    between atoms: N_10  and  C_11 
REMARK    5  A    between atoms: C_11  and  C_12 
REMARK    6  A    between atoms: C_27  and  C_28 
REMARK       I    between atoms: C_28  and  N_29 
REMARK    7  A    between atoms: N_29  and  C_30 
ROOT
HETATM    1  N   UNL     1      22.700  46.548  48.616  1.00  0.00    -0.290 N 
HETATM    2  C   UNL     1      22.156  47.752  48.197  1.00  0.00     0.332 C 
HETATM    3  O   UNL     1      20.963  47.798  47.886  1.00  0.00    -0.246 OA
HETATM    4  N   UNL     1      22.996  48.853  48.193  1.00  0.00    -0.261 N 
HETATM    5  C   UNL     1      24.179  48.905  48.919  1.00  0.00     0.264 C 
HETATM    6  O   UNL     1      24.857  49.920  49.062  1.00  0.00    -0.267 OA
HETATM    7  C   UNL     1      24.603  47.667  49.600  1.00  0.00     0.059 A 
HETATM    8  C   UNL     1      23.855  46.504  49.432  1.00  0.00     0.056 A 
HETATM    9  C   UNL     1      25.750  47.673  50.406  1.00  0.00     0.020 A 
HETATM   10  C   UNL     1      26.135  46.519  51.091  1.00  0.00     0.018 A 
HETATM   11  C   UNL     1      25.365  45.356  50.984  1.00  0.00     0.034 A 
HETATM   12  C   UNL     1      24.243  45.352  50.130  1.00  0.00     0.048 A 
ENDROOT
BRANCH   1  13
HETATM   13  C   UNL     1      22.085  45.319  48.103  1.00  0.00     0.237 C 
BRANCH  13  14
HETATM   14  C   UNL     1      21.800  45.205  46.602  1.00  0.00     0.240 C 
HETATM   15  N   UNL     1      20.462  45.247  46.271  1.00  0.00    -0.325 N 
HETATM   16  H   UNL     1      19.880  45.654  47.000  1.00  0.00     0.169 HD
HETATM   17  O   UNL     1      22.743  45.254  45.816  1.00  0.00    -0.271 OA
BRANCH  15  18
HETATM   18  C   UNL     1      19.867  45.190  44.989  1.00  0.00     0.040 A 
HETATM   19  C   UNL     1      19.596  44.034  44.233  1.00  0.00    -0.035 A 
HETATM   20  C   UNL     1      19.812  42.621  44.696  1.00  0.00     0.050 C 
HETATM   21  C   UNL     1      19.059  44.184  42.934  1.00  0.00     0.009 A 
HETATM   22  C   UNL     1      18.732  45.436  42.419  1.00  0.00     0.001 A 
HETATM   23  C   UNL     1      18.933  46.568  43.193  1.00  0.00     0.002 A 
HETATM   24  C   UNL     1      19.493  46.443  44.465  1.00  0.00     0.030 A 
ENDBRANCH  15  18
ENDBRANCH  13  14
ENDBRANCH   1  13
BRANCH   4  25
HETATM   25  C   UNL     1      22.485  50.120  47.670  1.00  0.00     0.175 C 
BRANCH  25  26
HETATM   26  C   UNL     1      21.262  50.666  48.381  1.00  0.00    -0.037 A 
HETATM   27  C   UNL     1      20.117  51.056  47.664  1.00  0.00     0.048 A 
HETATM   28  C   UNL     1      19.025  51.498  48.383  1.00  0.00     0.105 A 
HETATM   29  C   UNL     1      19.041  51.584  49.756  1.00  0.00     0.105 A 
HETATM   30  O   UNL     1      17.829  51.884  47.857  1.00  0.00    -0.323 OA
HETATM   31  O   UNL     1      17.863  52.033  50.266  1.00  0.00    -0.323 OA
HETATM   32  C   UNL     1      20.151  51.238  50.491  1.00  0.00     0.040 A 
HETATM   33  C   UNL     1      17.090  52.191  49.059  1.00  0.00     0.352 A 
HETATM   34  C   UNL     1      21.270  50.775  49.793  1.00  0.00     0.012 A 
ENDBRANCH  25  26
ENDBRANCH   4  25
BRANCH  11  35
HETATM   35  C   UNL     1      25.658  44.105  51.753  1.00  0.00     0.252 C 
HETATM   36  N   UNL     1      26.981  43.819  52.036  1.00  0.00    -0.352 N 
HETATM   37  H   UNL     1      27.696  44.500  51.836  1.00  0.00     0.163 HD
HETATM   38  O   UNL     1      24.727  43.402  52.130  1.00  0.00    -0.268 OA
BRANCH  36  39
HETATM   39  C   UNL     1      27.357  42.714  52.917  1.00  0.00     0.084 C 
HETATM   40  C   UNL     1      28.690  42.096  52.477  1.00  0.00     0.025 C 
HETATM   41  C   UNL     1      29.893  42.986  52.782  1.00  0.00     0.002 C 
HETATM   42  C   UNL     1      29.924  43.409  54.246  1.00  0.00     0.000 C 
HETATM   43  C   UNL     1      28.618  44.076  54.668  1.00  0.00     0.002 C 
HETATM   44  C   UNL     1      27.410  43.185  54.377  1.00  0.00     0.025 C 
ENDBRANCH  36  39
ENDBRANCH  11  35
TORSDOF 7
ENDMDL
MODEL 6
REMARK VINA RESULT:      -9.4      2.616      5.699
REMARK  7 active torsions:
REMARK  status: ('A' for Active; 'I' for Inactive)
REMARK    1  A    between atoms: C_3  and  N_4 
REMARK       I    between atoms: N_4  and  C_5 
REMARK    2  A    between atoms: C_5  and  C_6 
REMARK    3  A    between atoms: C_6  and  N_7 
REMARK    4  A    between atoms: N_10  and  C_11 
REMARK    5  A    between atoms: C_11  and  C_12 
REMARK    6  A    between atoms: C_27  and  C_28 
REMARK       I    between atoms: C_28  and  N_29 
REMARK    7  A    between atoms: N_29  and  C_30 
ROOT
HETATM    1  N   UNL     1      19.660  48.173  48.889  1.00  0.00    -0.290 N 
HETATM    2  C   UNL     1      18.376  48.665  49.068  1.00  0.00     0.332 C 
HETATM    3  O   UNL     1      17.519  47.940  49.579  1.00  0.00    -0.246 OA
HETATM    4  N   UNL     1      18.149  49.978  48.690  1.00  0.00    -0.261 N 
HETATM    5  C   UNL     1      19.169  50.904  48.517  1.00  0.00     0.264 C 
HETATM    6  O   UNL     1      18.988  52.107  48.341  1.00  0.00    -0.267 OA
HETATM    7  C   UNL     1      20.554  50.401  48.610  1.00  0.00     0.059 A 
HETATM    8  C   UNL     1      20.775  49.039  48.791  1.00  0.00     0.056 A 
HETATM    9  C   UNL     1      21.628  51.298  48.515  1.00  0.00     0.020 A 
HETATM   10  C   UNL     1      22.940  50.840  48.647  1.00  0.00     0.018 A 
HETATM   11  C   UNL     1      23.184  49.484  48.888  1.00  0.00     0.034 A 
HETATM   12  C   UNL     1      22.095  48.587  48.930  1.00  0.00     0.048 A 
ENDROOT
BRANCH   1  13
HETATM   13  C   UNL     1      19.804  46.724  48.712  1.00  0.00     0.237 C 
BRANCH  13  14
HETATM   14  C   UNL     1      19.452  46.106  47.355  1.00  0.00     0.240 C 
HETATM   15  N   UNL     1      18.136  46.268  46.980  1.00  0.00    -0.325 N 
HETATM   16  H   UNL     1      17.665  47.022  47.476  1.00  0.00     0.169 HD
HETATM   17  O   UNL     1      20.360  45.676  46.648  1.00  0.00    -0.271 OA
BRANCH  15  18
HETATM   18  C   UNL     1      17.496  45.842  45.792  1.00  0.00     0.040 A 
HETATM   19  C   UNL     1      17.157  46.638  44.682  1.00  0.00    -0.035 A 
HETATM   20  C   UNL     1      17.500  48.092  44.516  1.00  0.00     0.050 C 
HETATM   21  C   UNL     1      16.451  46.043  43.611  1.00  0.00     0.009 A 
HETATM   22  C   UNL     1      16.148  44.684  43.602  1.00  0.00     0.001 A 
HETATM   23  C   UNL     1      16.547  43.887  44.665  1.00  0.00     0.002 A 
HETATM   24  C   UNL     1      17.214  44.463  45.746  1.00  0.00     0.030 A 
ENDBRANCH  15  18
ENDBRANCH  13  14
ENDBRANCH   1  13
BRANCH   4  25
HETATM   25  C   UNL     1      16.786  50.504  48.777  1.00  0.00     0.175 C 
BRANCH  25  26
HETATM   26  C   UNL     1      15.917  50.249  47.561  1.00  0.00    -0.037 A 
HETATM   27  C   UNL     1      15.241  49.028  47.392  1.00  0.00     0.048 A 
HETATM   28  C   UNL     1      14.431  48.886  46.284  1.00  0.00     0.105 A 
HETATM   29  C   UNL     1      14.291  49.886  45.349  1.00  0.00     0.105 A 
HETATM   30  O   UNL     1      13.682  47.790  45.980  1.00  0.00    -0.323 OA
HETATM   31  O   UNL     1      13.440  49.548  44.344  1.00  0.00    -0.323 OA
HETATM   32  C   UNL     1      14.957  51.085  45.465  1.00  0.00     0.040 A 
HETATM   33  C   UNL     1      13.034  48.231  44.767  1.00  0.00     0.352 A 
HETATM   34  C   UNL     1      15.777  51.264  46.582  1.00  0.00     0.012 A 
ENDBRANCH  25  26
ENDBRANCH   4  25
BRANCH  11  35
HETATM   35  C   UNL     1      24.552  48.926  49.128  1.00  0.00     0.252 C 
HETATM   36  N   UNL     1      24.664  47.839  49.974  1.00  0.00    -0.352 N 
HETATM   37  H   UNL     1      23.834  47.373  50.307  1.00  0.00     0.163 HD
HETATM   38  O   UNL     1      25.511  49.424  48.550  1.00  0.00    -0.268 OA
BRANCH  36  39
HETATM   39  C   UNL     1      25.928  47.123  50.144  1.00  0.00     0.084 C 
HETATM   40  C   UNL     1      26.409  47.203  51.598  1.00  0.00     0.025 C 
HETATM   41  C   UNL     1      25.584  46.339  52.551  1.00  0.00     0.002 C 
HETATM   42  C   UNL     1      25.493  44.896  52.066  1.00  0.00     0.000 C 
HETATM   43  C   UNL     1      24.960  44.814  50.638  1.00  0.00     0.002 C 
HETATM   44  C   UNL     1      25.788  45.667  49.677  1.00  0.00     0.025 C 
ENDBRANCH  36  39
ENDBRANCH  11  35
TORSDOF 7
ENDMDL
MODEL 7
REMARK VINA RESULT:      -9.3      2.831     10.084
REMARK  7 active torsions:
REMARK  status: ('A' for Active; 'I' for Inactive)
REMARK    1  A    between atoms: C_3  and  N_4 
REMARK       I    between atoms: N_4  and  C_5 
REMARK    2  A    between atoms: C_5  and  C_6 
REMARK    3  A    between atoms: C_6  and  N_7 
REMARK    4  A    between atoms: N_10  and  C_11 
REMARK    5  A    between atoms: C_11  and  C_12 
REMARK    6  A    between atoms: C_27  and  C_28 
REMARK       I    between atoms: C_28  and  N_29 
REMARK    7  A    between atoms: N_29  and  C_30 
ROOT
HETATM    1  N   UNL     1      23.742  45.752  50.015  1.00  0.00    -0.290 N 
HETATM    2  C   UNL     1      23.735  44.396  50.304  1.00  0.00     0.332 C 
HETATM    3  O   UNL     1      24.091  44.016  51.422  1.00  0.00    -0.246 OA
HETATM    4  N   UNL     1      23.282  43.545  49.309  1.00  0.00    -0.261 N 
HETATM    5  C   UNL     1      22.506  43.975  48.241  1.00  0.00     0.264 C 
HETATM    6  O   UNL     1      21.959  43.221  47.438  1.00  0.00    -0.267 OA
HETATM    7  C   UNL     1      22.290  45.429  48.110  1.00  0.00     0.059 A 
HETATM    8  C   UNL     1      22.918  46.295  49.001  1.00  0.00     0.056 A 
HETATM    9  C   UNL     1      21.458  45.921  47.095  1.00  0.00     0.020 A 
HETATM   10  C   UNL     1      21.210  47.291  46.991  1.00  0.00     0.018 A 
HETATM   11  C   UNL     1      21.783  48.174  47.911  1.00  0.00     0.034 A 
HETATM   12  C   UNL     1      22.658  47.669  48.895  1.00  0.00     0.048 A 
ENDROOT
BRANCH   1  13
HETATM   13  C   UNL     1      24.705  46.587  50.741  1.00  0.00     0.237 C 
BRANCH  13  14
HETATM   14  C   UNL     1      26.020  45.958  51.213  1.00  0.00     0.240 C 
HETATM   15  N   UNL     1      26.066  45.679  52.562  1.00  0.00    -0.325 N 
HETATM   16  H   UNL     1      25.146  45.628  52.994  1.00  0.00     0.169 HD
HETATM   17  O   UNL     1      26.842  45.605  50.371  1.00  0.00    -0.271 OA
BRANCH  15  18
HETATM   18  C   UNL     1      27.112  45.085  53.307  1.00  0.00     0.040 A 
HETATM   19  C   UNL     1      27.892  45.696  54.307  1.00  0.00    -0.035 A 
HETATM   20  C   UNL     1      27.691  47.088  54.836  1.00  0.00     0.050 C 
HETATM   21  C   UNL     1      28.945  44.958  54.891  1.00  0.00     0.009 A 
HETATM   22  C   UNL     1      29.182  43.628  54.550  1.00  0.00     0.001 A 
HETATM   23  C   UNL     1      28.367  43.006  53.617  1.00  0.00     0.002 A 
HETATM   24  C   UNL     1      27.343  43.729  53.005  1.00  0.00     0.030 A 
ENDBRANCH  15  18
ENDBRANCH  13  14
ENDBRANCH   1  13
BRANCH   4  25
HETATM   25  C   UNL     1      23.348  42.102  49.541  1.00  0.00     0.175 C 
BRANCH  25  26
HETATM   26  C   UNL     1      24.647  41.440  49.126  1.00  0.00    -0.037 A 
HETATM   27  C   UNL     1      24.948  41.211  47.772  1.00  0.00     0.048 A 
HETATM   28  C   UNL     1      26.170  40.647  47.468  1.00  0.00     0.105 A 
HETATM   29  C   UNL     1      27.073  40.292  48.444  1.00  0.00     0.105 A 
HETATM   30  O   UNL     1      26.636  40.385  46.216  1.00  0.00    -0.323 OA
HETATM   31  O   UNL     1      28.217  39.765  47.931  1.00  0.00    -0.323 OA
HETATM   32  C   UNL     1      26.805  40.475  49.781  1.00  0.00     0.040 A 
HETATM   33  C   UNL     1      27.946  39.856  46.519  1.00  0.00     0.352 A 
HETATM   34  C   UNL     1      25.579  41.054  50.121  1.00  0.00     0.012 A 
ENDBRANCH  25  26
ENDBRANCH   4  25
BRANCH  11  35
HETATM   35  C   UNL     1      21.499  49.644  47.923  1.00  0.00     0.252 C 
HETATM   36  N   UNL     1      20.228  50.050  48.284  1.00  0.00    -0.352 N 
HETATM   37  H   UNL     1      19.569  49.379  48.645  1.00  0.00     0.163 HD
HETATM   38  O   UNL     1      22.399  50.430  47.648  1.00  0.00    -0.268 OA
BRANCH  36  39
HETATM   39  C   UNL     1      19.899  51.462  48.484  1.00  0.00     0.084 C 
HETATM   40  C   UNL     1      18.981  51.972  47.367  1.00  0.00     0.025 C 
HETATM   41  C   UNL     1      17.554  51.438  47.474  1.00  0.00     0.002 C 
HETATM   42  C   UNL     1      16.958  51.695  48.854  1.00  0.00     0.000 C 
HETATM   43  C   UNL     1      17.844  51.137  49.963  1.00  0.00     0.002 C 
HETATM   44  C   UNL     1      19.272  51.676  49.870  1.00  0.00     0.025 C 
ENDBRANCH  36  39
ENDBRANCH  11  35
TORSDOF 7
ENDMDL
MODEL 8
REMARK VINA RESULT:      -9.2      2.524      5.419
REMARK  7 active torsions:
REMARK  status: ('A' for Active; 'I' for Inactive)
REMARK    1  A    between atoms: C_3  and  N_4 
REMARK       I    between atoms: N_4  and  C_5 
REMARK    2  A    between atoms: C_5  and  C_6 
REMARK    3  A    between atoms: C_6  and  N_7 
REMARK    4  A    between atoms: N_10  and  C_11 
REMARK    5  A    between atoms: C_11  and  C_12 
REMARK    6  A    between atoms: C_27  and  C_28 
REMARK       I    between atoms: C_28  and  N_29 
REMARK    7  A    between atoms: N_29  and  C_30 
ROOT
HETATM    1  N   UNL     1      19.974  48.243  49.160  1.00  0.00    -0.290 N 
HETATM    2  C   UNL     1      18.745  48.865  49.317  1.00  0.00     0.332 C 
HETATM    3  O   UNL     1      17.819  48.244  49.844  1.00  0.00    -0.246 OA
HETATM    4  N   UNL     1      18.651  50.182  48.900  1.00  0.00    -0.261 N 
HETATM    5  C   UNL     1      19.759  50.997  48.707  1.00  0.00     0.264 C 
HETATM    6  O   UNL     1      19.699  52.207  48.496  1.00  0.00    -0.267 OA
HETATM    7  C   UNL     1      21.086  50.363  48.823  1.00  0.00     0.059 A 
HETATM    8  C   UNL     1      21.170  48.991  49.044  1.00  0.00     0.056 A 
HETATM    9  C   UNL     1      22.244  51.144  48.710  1.00  0.00     0.020 A 
HETATM   10  C   UNL     1      23.504  50.562  48.863  1.00  0.00     0.018 A 
HETATM   11  C   UNL     1      23.611  49.196  49.144  1.00  0.00     0.034 A 
HETATM   12  C   UNL     1      22.439  48.414  49.205  1.00  0.00     0.048 A 
ENDROOT
BRANCH   1  13
HETATM   13  C   UNL     1      19.974  46.782  49.026  1.00  0.00     0.237 C 
BRANCH  13  14
HETATM   14  C   UNL     1      19.575  46.163  47.682  1.00  0.00     0.240 C 
HETATM   15  N   UNL     1      20.097  46.808  46.581  1.00  0.00    -0.325 N 
HETATM   16  H   UNL     1      20.905  47.388  46.799  1.00  0.00     0.169 HD
HETATM   17  O   UNL     1      18.985  45.086  47.680  1.00  0.00    -0.271 OA
BRANCH  15  18
HETATM   18  C   UNL     1      19.943  46.484  45.213  1.00  0.00     0.040 A 
HETATM   19  C   UNL     1      18.852  46.807  44.384  1.00  0.00    -0.035 A 
HETATM   20  C   UNL     1      17.673  47.647  44.788  1.00  0.00     0.050 C 
HETATM   21  C   UNL     1      18.846  46.332  43.054  1.00  0.00     0.009 A 
HETATM   22  C   UNL     1      19.919  45.615  42.530  1.00  0.00     0.001 A 
HETATM   23  C   UNL     1      21.025  45.359  43.326  1.00  0.00     0.002 A 
HETATM   24  C   UNL     1      21.035  45.792  44.652  1.00  0.00     0.030 A 
ENDBRANCH  15  18
ENDBRANCH  13  14
ENDBRANCH   1  13
BRANCH   4  25
HETATM   25  C   UNL     1      17.347  50.844  48.963  1.00  0.00     0.175 C 
BRANCH  25  26
HETATM   26  C   UNL     1      16.435  50.585  47.780  1.00  0.00    -0.037 A 
HETATM   27  C   UNL     1      15.662  49.413  47.700  1.00  0.00     0.048 A 
HETATM   28  C   UNL     1      14.819  49.269  46.616  1.00  0.00     0.105 A 
HETATM   29  C   UNL     1      14.737  50.219  45.624  1.00  0.00     0.105 A 
HETATM   30  O   UNL     1      13.980  48.219  46.395  1.00  0.00    -0.323 OA
HETATM   31  O   UNL     1      13.840  49.888  44.657  1.00  0.00    -0.323 OA
HETATM   32  C   UNL     1      15.496  51.366  45.653  1.00  0.00     0.040 A 
HETATM   33  C   UNL     1      13.342  48.635  45.168  1.00  0.00     0.352 A 
HETATM   34  C   UNL     1      16.352  51.546  46.743  1.00  0.00     0.012 A 
ENDBRANCH  25  26
ENDBRANCH   4  25
BRANCH  11  35
HETATM   35  C   UNL     1      24.916  48.513  49.409  1.00  0.00     0.252 C 
HETATM   36  N   UNL     1      24.911  47.426  50.263  1.00  0.00    -0.352 N 
HETATM   37  H   UNL     1      24.036  47.044  50.586  1.00  0.00     0.163 HD
HETATM   38  O   UNL     1      25.927  48.913  48.842  1.00  0.00    -0.268 OA
BRANCH  36  39
HETATM   39  C   UNL     1      26.099  46.595  50.457  1.00  0.00     0.084 C 
HETATM   40  C   UNL     1      26.254  46.200  51.931  1.00  0.00     0.025 C 
HETATM   41  C   UNL     1      25.231  45.160  52.383  1.00  0.00     0.002 C 
HETATM   42  C   UNL     1      25.227  43.939  51.471  1.00  0.00     0.000 C 
HETATM   43  C   UNL     1      25.016  44.327  50.010  1.00  0.00     0.002 C 
HETATM   44  C   UNL     1      26.044  45.360  49.546  1.00  0.00     0.025 C 
ENDBRANCH  36  39
ENDBRANCH  11  35
TORSDOF 7
ENDMDL
MODEL 9
REMARK VINA RESULT:      -9.1      3.163     10.782
REMARK  7 active torsions:
REMARK  status: ('A' for Active; 'I' for Inactive)
REMARK    1  A    between atoms: C_3  and  N_4 
REMARK       I    between atoms: N_4  and  C_5 
REMARK    2  A    between atoms: C_5  and  C_6 
REMARK    3  A    between atoms: C_6  and  N_7 
REMARK    4  A    between atoms: N_10  and  C_11 
REMARK    5  A    between atoms: C_11  and  C_12 
REMARK    6  A    between atoms: C_27  and  C_28 
REMARK       I    between atoms: C_28  and  N_29 
REMARK    7  A    between atoms: N_29  and  C_30 
ROOT
HETATM    1  N   UNL     1      24.018  44.215  49.919  1.00  0.00    -0.290 N 
HETATM    2  C   UNL     1      24.201  42.843  49.846  1.00  0.00     0.332 C 
HETATM    3  O   UNL     1      24.351  42.199  50.888  1.00  0.00    -0.246 OA
HETATM    4  N   UNL     1      24.163  42.270  48.586  1.00  0.00    -0.261 N 
HETATM    5  C   UNL     1      23.591  42.896  47.487  1.00  0.00     0.264 C 
HETATM    6  O   UNL     1      23.399  42.350  46.402  1.00  0.00    -0.267 OA
HETATM    7  C   UNL     1      23.139  44.290  47.668  1.00  0.00     0.059 A 
HETATM    8  C   UNL     1      23.366  44.928  48.885  1.00  0.00     0.056 A 
HETATM    9  C   UNL     1      22.490  44.954  46.618  1.00  0.00     0.020 A 
HETATM   10  C   UNL     1      22.018  46.256  46.794  1.00  0.00     0.018 A 
HETATM   11  C   UNL     1      22.182  46.896  48.027  1.00  0.00     0.034 A 
HETATM   12  C   UNL     1      22.882  46.233  49.057  1.00  0.00     0.048 A 
ENDROOT
BRANCH   1  13
HETATM   13  C   UNL     1      24.608  44.911  51.067  1.00  0.00     0.237 C 
BRANCH  13  14
HETATM   14  C   UNL     1      26.104  44.731  51.351  1.00  0.00     0.240 C 
HETATM   15  N   UNL     1      26.385  44.031  52.505  1.00  0.00    -0.325 N 
HETATM   16  H   UNL     1      25.602  43.469  52.835  1.00  0.00     0.169 HD
HETATM   17  O   UNL     1      26.913  45.059  50.486  1.00  0.00    -0.271 OA
BRANCH  15  18
HETATM   18  C   UNL     1      27.645  43.677  53.039  1.00  0.00     0.040 A 
HETATM   19  C   UNL     1      28.335  44.324  54.081  1.00  0.00    -0.035 A 
HETATM   20  C   UNL     1      27.807  45.475  54.890  1.00  0.00     0.050 C 
HETATM   21  C   UNL     1      29.625  43.864  54.429  1.00  0.00     0.009 A 
HETATM   22  C   UNL     1      30.194  42.751  53.815  1.00  0.00     0.001 A 
HETATM   23  C   UNL     1      29.483  42.071  52.838  1.00  0.00     0.002 A 
HETATM   24  C   UNL     1      28.222  42.530  52.457  1.00  0.00     0.030 A 
ENDBRANCH  15  18
ENDBRANCH  13  14
ENDBRANCH   1  13
BRANCH   4  25
HETATM   25  C   UNL     1      24.444  40.840  48.460  1.00  0.00     0.175 C 
BRANCH  25  26
HETATM   26  C   UNL     1      25.911  40.462  48.529  1.00  0.00    -0.037 A 
HETATM   27  C   UNL     1      26.352  39.399  49.336  1.00  0.00     0.048 A 
HETATM   28  C   UNL     1      27.695  39.083  49.312  1.00  0.00     0.105 A 
HETATM   29  C   UNL     1      28.596  39.787  48.546  1.00  0.00     0.105 A 
HETATM   30  O   UNL     1      28.287  38.070  50.002  1.00  0.00    -0.323 OA
HETATM   31  O   UNL     1      29.864  39.307  48.658  1.00  0.00    -0.323 OA
HETATM   32  C   UNL     1      28.209  40.851  47.764  1.00  0.00     0.040 A 
HETATM   33  C   UNL     1      29.655  38.201  49.557  1.00  0.00     0.352 A 
HETATM   34  C   UNL     1      26.853  41.189  47.759  1.00  0.00     0.012 A 
ENDBRANCH  25  26
ENDBRANCH   4  25
BRANCH  11  35
HETATM   35  C   UNL     1      21.630  48.254  48.326  1.00  0.00     0.252 C 
HETATM   36  N   UNL     1      20.326  48.515  47.951  1.00  0.00    -0.352 N 
HETATM   37  H   UNL     1      19.743  47.769  47.605  1.00  0.00     0.163 HD
HETATM   38  O   UNL     1      22.331  49.070  48.915  1.00  0.00    -0.268 OA
BRANCH  36  39
HETATM   39  C   UNL     1      19.644  49.750  48.342  1.00  0.00     0.084 C 
HETATM   40  C   UNL     1      19.710  50.789  47.216  1.00  0.00     0.025 C 
HETATM   41  C   UNL     1      18.803  50.450  46.034  1.00  0.00     0.002 C 
HETATM   42  C   UNL     1      17.368  50.193  46.480  1.00  0.00     0.000 C 
HETATM   43  C   UNL     1      17.298  49.117  47.560  1.00  0.00     0.002 C 
HETATM   44  C   UNL     1      18.194  49.455  48.752  1.00  0.00     0.025 C 
ENDBRANCH  36  39
ENDBRANCH  11  35
TORSDOF 7
ENDMDL
MODEL 10
REMARK VINA RESULT:      -9.1     10.311     12.614
REMARK  7 active torsions:
REMARK  status: ('A' for Active; 'I' for Inactive)
REMARK    1  A    between atoms: C_3  and  N_4 
REMARK       I    between atoms: N_4  and  C_5 
REMARK    2  A    between atoms: C_5  and  C_6 
REMARK    3  A    between atoms: C_6  and  N_7 
REMARK    4  A    between atoms: N_10  and  C_11 
REMARK    5  A    between atoms: C_11  and  C_12 
REMARK    6  A    between atoms: C_27  and  C_28 
REMARK       I    between atoms: C_28  and  N_29 
REMARK    7  A    between atoms: N_29  and  C_30 
ROOT
HETATM    1  N   UNL     1      28.634  46.800  39.484  1.00  0.00    -0.290 N 
HETATM    2  C   UNL     1      28.246  47.997  38.902  1.00  0.00     0.332 C 
HETATM    3  O   UNL     1      28.871  48.423  37.928  1.00  0.00    -0.246 OA
HETATM    4  N   UNL     1      27.135  48.625  39.440  1.00  0.00    -0.261 N 
HETATM    5  C   UNL     1      26.202  47.968  40.232  1.00  0.00     0.264 C 
HETATM    6  O   UNL     1      25.131  48.456  40.587  1.00  0.00    -0.267 OA
HETATM    7  C   UNL     1      26.509  46.576  40.615  1.00  0.00     0.059 A 
HETATM    8  C   UNL     1      27.727  46.017  40.236  1.00  0.00     0.056 A 
HETATM    9  C   UNL     1      25.576  45.835  41.353  1.00  0.00     0.020 A 
HETATM   10  C   UNL     1      25.837  44.503  41.682  1.00  0.00     0.018 A 
HETATM   11  C   UNL     1      27.028  43.902  41.261  1.00  0.00     0.034 A 
HETATM   12  C   UNL     1      27.978  44.676  40.563  1.00  0.00     0.048 A 
ENDROOT
BRANCH   1  13
HETATM   13  C   UNL     1      30.047  46.425  39.367  1.00  0.00     0.237 C 
BRANCH  13  14
HETATM   14  C   UNL     1      31.096  47.253  40.116  1.00  0.00     0.240 C 
HETATM   15  N   UNL     1      30.714  48.550  40.384  1.00  0.00    -0.325 N 
HETATM   16  H   UNL     1      29.706  48.689  40.340  1.00  0.00     0.169 HD
HETATM   17  O   UNL     1      32.093  46.686  40.557  1.00  0.00    -0.271 OA
BRANCH  15  18
HETATM   18  C   UNL     1      31.429  49.560  41.069  1.00  0.00     0.040 A 
HETATM   19  C   UNL     1      32.152  50.622  40.495  1.00  0.00    -0.035 A 
HETATM   20  C   UNL     1      32.221  50.934  39.027  1.00  0.00     0.050 C 
HETATM   21  C   UNL     1      32.867  51.494  41.347  1.00  0.00     0.009 A 
HETATM   22  C   UNL     1      32.815  51.367  42.733  1.00  0.00     0.001 A 
HETATM   23  C   UNL     1      32.044  50.363  43.299  1.00  0.00     0.002 A 
HETATM   24  C   UNL     1      31.359  49.472  42.474  1.00  0.00     0.030 A 
ENDBRANCH  15  18
ENDBRANCH  13  14
ENDBRANCH   1  13
BRANCH   4  25
HETATM   25  C   UNL     1      26.750  49.935  38.914  1.00  0.00     0.175 C 
BRANCH  25  26
HETATM   26  C   UNL     1      27.665  51.081  39.302  1.00  0.00    -0.037 A 
HETATM   27  C   UNL     1      28.082  51.261  40.632  1.00  0.00     0.048 A 
HETATM   28  C   UNL     1      28.953  52.298  40.901  1.00  0.00     0.105 A 
HETATM   29  C   UNL     1      29.394  53.153  39.919  1.00  0.00     0.105 A 
HETATM   30  O   UNL     1      29.481  52.597  42.120  1.00  0.00    -0.323 OA
HETATM   31  O   UNL     1      30.253  54.096  40.393  1.00  0.00    -0.323 OA
HETATM   32  C   UNL     1      28.988  53.026  38.610  1.00  0.00     0.040 A 
HETATM   33  C   UNL     1      30.327  53.718  41.782  1.00  0.00     0.352 A 
HETATM   34  C   UNL     1      28.115  51.980  38.303  1.00  0.00     0.012 A 
ENDBRANCH  25  26
ENDBRANCH   4  25
BRANCH  11  35
HETATM   35  C   UNL     1      27.345  42.458  41.495  1.00  0.00     0.252 C 
HETATM   36  N   UNL     1      27.426  42.022  42.804  1.00  0.00    -0.352 N 
HETATM   37  H   UNL     1      27.154  42.635  43.556  1.00  0.00     0.163 HD
HETATM   38  O   UNL     1      27.488  41.713  40.532  1.00  0.00    -0.268 OA
BRANCH  36  39
HETATM   39  C   UNL     1      27.568  40.604  43.135  1.00  0.00     0.084 C 
HETATM   40  C   UNL     1      28.631  40.401  44.221  1.00  0.00     0.025 C 
HETATM   41  C   UNL     1      28.174  40.863  45.603  1.00  0.00     0.002 C 
HETATM   42  C   UNL     1      26.842  40.233  45.995  1.00  0.00     0.000 C 
HETATM   43  C   UNL     1      25.767  40.484  44.940  1.00  0.00     0.002 C 
HETATM   44  C   UNL     1      26.214  40.013  43.556  1.00  0.00     0.025 C 
ENDBRANCH  36  39
ENDBRANCH  11  35
TORSDOF 7
ENDMDL
