MODEL 1
REMARK VINA RESULT:      -8.1      0.000      0.000
REMARK  6 active torsions:
REMARK  status: ('A' for Active; 'I' for Inactive)
REMARK    1  A    between atoms: C_2  and  C_3 
REMARK    2  A    between atoms: C_13  and  C_14 
REMARK       I    between atoms: C_14  and  N_15 
REMARK    3  A    between atoms: N_15  and  C_16 
REMARK    4  A    between atoms: C_16  and  C_17 
REMARK    5  A    between atoms: C_17  and  C_18 
REMARK    6  A    between atoms: C_18  and  C_19 
ROOT
HETATM    1  C   UNL     1      27.415  41.835  51.364  1.00  0.00     0.251 C 
HETATM    2  N   UNL     1      26.051  42.032  51.315  1.00  0.00    -0.357 N 
HETATM    3  O   UNL     1      28.036  41.175  50.539  1.00  0.00    -0.268 OA
HETATM    4  H   UNL     1      25.630  42.747  51.890  1.00  0.00     0.162 HD
ENDROOT
BRANCH   1   5
HETATM    5  C   UNL     1      28.152  42.503  52.476  1.00  0.00     0.032 A 
HETATM    6  C   UNL     1      27.524  43.341  53.401  1.00  0.00     0.017 A 
HETATM    7  C   UNL     1      28.268  43.936  54.428  1.00  0.00     0.008 A 
HETATM    8  C   UNL     1      29.646  43.696  54.555  1.00  0.00    -0.052 A 
HETATM    9  C   UNL     1      30.263  42.841  53.631  1.00  0.00     0.008 A 
HETATM   10  C   UNL     1      29.521  42.246  52.606  1.00  0.00     0.017 A 
BRANCH   8  11
HETATM   11  C   UNL     1      30.429  44.380  55.661  1.00  0.00     0.044 C 
HETATM   12  C   UNL     1      31.080  43.336  56.581  1.00  0.00     0.241 C 
HETATM   13  N   UNL     1      31.858  44.025  57.661  1.00  0.00    -0.074 N 
HETATM   14  H   UNL     1      32.649  44.537  57.247  1.00  0.00     0.277 HD
HETATM   15  H   UNL     1      32.283  43.312  58.271  1.00  0.00     0.277 HD
HETATM   16  C   UNL     1      31.042  44.955  58.496  1.00  0.00     0.232 C 
HETATM   17  C   UNL     1      30.409  46.009  57.601  1.00  0.00     0.028 C 
HETATM   18  C   UNL     1      29.585  45.377  56.478  1.00  0.00     0.013 C 
ENDBRANCH   8  11
ENDBRANCH   1   5
BRANCH   2  19
HETATM   19  C   UNL     1      25.247  41.505  50.227  1.00  0.00     0.123 C 
BRANCH  19  20
HETATM   20  C   UNL     1      24.649  42.582  49.326  1.00  0.00     0.026 C 
BRANCH  20  21
HETATM   21  C   UNL     1      23.593  43.423  50.043  1.00  0.00     0.061 C 
BRANCH  21  22
HETATM   22  C   UNL     1      24.082  44.805  50.337  1.00  0.00     0.044 A 
HETATM   23  N   UNL     1      24.745  45.032  51.532  1.00  0.00    -0.229 NA
HETATM   24  C   UNL     1      25.121  46.284  51.612  1.00  0.00     0.164 A 
HETATM   25  N   UNL     1      25.791  46.783  52.661  1.00  0.00    -0.378 N 
HETATM   26  S   UNL     1      24.675  47.273  50.282  1.00  0.00    -0.062 SA
HETATM   27  H   UNL     1      25.779  46.220  53.502  1.00  0.00     0.158 HD
HETATM   28  H   UNL     1      25.759  47.783  52.819  1.00  0.00     0.158 HD
HETATM   29  C   UNL     1      23.946  45.918  49.531  1.00  0.00     0.080 A 
ENDBRANCH  21  22
ENDBRANCH  20  21
ENDBRANCH  19  20
ENDBRANCH   2  19
TORSDOF 6
ENDMDL
MODEL 2
REMARK VINA RESULT:      -8.0      2.370      3.035
REMARK  6 active torsions:
REMARK  status: ('A' for Active; 'I' for Inactive)
REMARK    1  A    between atoms: C_2  and  C_3 
REMARK    2  A    between atoms: C_13  and  C_14 
REMARK       I    between atoms: C_14  and  N_15 
REMARK    3  A    between atoms: N_15  and  C_16 
REMARK    4  A    between atoms: C_16  and  C_17 
REMARK    5  A    between atoms: C_17  and  C_18 
REMARK    6  A    between atoms: C_18  and  C_19 
ROOT
HETATM    1  C   UNL     1      25.756  44.347  51.662  1.00  0.00     0.251 C 
HETATM    2  N   UNL     1      25.957  44.930  50.428  1.00  0.00    -0.357 N 
HETATM    3  O   UNL     1      24.765  43.684  51.945  1.00  0.00    -0.268 OA
HETATM    4  H   UNL     1      26.873  45.280  50.187  1.00  0.00     0.162 HD
ENDROOT
BRANCH   1   5
HETATM    5  C   UNL     1      26.837  44.524  52.674  1.00  0.00     0.032 A 
HETATM    6  C   UNL     1      28.012  43.768  52.664  1.00  0.00     0.017 A 
HETATM    7  C   UNL     1      28.995  43.984  53.638  1.00  0.00     0.008 A 
HETATM    8  C   UNL     1      28.826  44.962  54.631  1.00  0.00    -0.052 A 
HETATM    9  C   UNL     1      27.650  45.726  54.624  1.00  0.00     0.008 A 
HETATM   10  C   UNL     1      26.669  45.512  53.651  1.00  0.00     0.017 A 
BRANCH   8  11
HETATM   11  C   UNL     1      29.896  45.149  55.690  1.00  0.00     0.044 C 
HETATM   12  C   UNL     1      30.537  43.800  56.049  1.00  0.00     0.241 C 
HETATM   13  N   UNL     1      31.599  44.002  57.089  1.00  0.00    -0.074 N 
HETATM   14  H   UNL     1      32.369  44.560  56.694  1.00  0.00     0.277 HD
HETATM   15  H   UNL     1      32.014  43.089  57.321  1.00  0.00     0.277 HD
HETATM   16  C   UNL     1      31.105  44.645  58.342  1.00  0.00     0.232 C 
HETATM   17  C   UNL     1      30.488  45.994  58.005  1.00  0.00     0.028 C 
HETATM   18  C   UNL     1      29.384  45.864  56.955  1.00  0.00     0.013 C 
ENDBRANCH   8  11
ENDBRANCH   1   5
BRANCH   2  19
HETATM   19  C   UNL     1      25.015  44.748  49.340  1.00  0.00     0.123 C 
BRANCH  19  20
HETATM   20  C   UNL     1      23.911  45.802  49.297  1.00  0.00     0.026 C 
BRANCH  20  21
HETATM   21  C   UNL     1      24.209  46.995  50.205  1.00  0.00     0.061 C 
BRANCH  21  22
HETATM   22  C   UNL     1      24.894  48.101  49.470  1.00  0.00     0.044 A 
HETATM   23  N   UNL     1      26.265  48.241  49.611  1.00  0.00    -0.229 NA
HETATM   24  C   UNL     1      26.698  49.240  48.882  1.00  0.00     0.164 A 
HETATM   25  N   UNL     1      27.988  49.599  48.822  1.00  0.00    -0.378 N 
HETATM   26  S   UNL     1      25.489  50.094  48.013  1.00  0.00    -0.062 SA
HETATM   27  H   UNL     1      28.585  49.230  49.552  1.00  0.00     0.158 HD
HETATM   28  H   UNL     1      28.211  50.542  48.528  1.00  0.00     0.158 HD
HETATM   29  C   UNL     1      24.301  49.031  48.638  1.00  0.00     0.080 A 
ENDBRANCH  21  22
ENDBRANCH  20  21
ENDBRANCH  19  20
ENDBRANCH   2  19
TORSDOF 6
ENDMDL
MODEL 3
REMARK VINA RESULT:      -7.8      2.444      3.748
REMARK  6 active torsions:
REMARK  status: ('A' for Active; 'I' for Inactive)
REMARK    1  A    between atoms: C_2  and  C_3 
REMARK    2  A    between atoms: C_13  and  C_14 
REMARK       I    between atoms: C_14  and  N_15 
REMARK    3  A    between atoms: N_15  and  C_16 
REMARK    4  A    between atoms: C_16  and  C_17 
REMARK    5  A    between atoms: C_17  and  C_18 
REMARK    6  A    between atoms: C_18  and  C_19 
ROOT
HETATM    1  C   UNL     1      25.339  46.079  52.015  1.00  0.00     0.251 C 
HETATM    2  N   UNL     1      24.896  44.880  51.496  1.00  0.00    -0.357 N 
HETATM    3  O   UNL     1      24.855  47.165  51.721  1.00  0.00    -0.268 OA
HETATM    4  H   UNL     1      25.186  44.014  51.928  1.00  0.00     0.162 HD
ENDROOT
BRANCH   1   5
HETATM    5  C   UNL     1      26.446  46.013  53.012  1.00  0.00     0.032 A 
HETATM    6  C   UNL     1      26.740  47.063  53.885  1.00  0.00     0.017 A 
HETATM    7  C   UNL     1      27.789  46.940  54.805  1.00  0.00     0.008 A 
HETATM    8  C   UNL     1      28.555  45.766  54.875  1.00  0.00    -0.052 A 
HETATM    9  C   UNL     1      28.243  44.712  54.004  1.00  0.00     0.008 A 
HETATM   10  C   UNL     1      27.195  44.833  53.087  1.00  0.00     0.017 A 
BRANCH   8  11
HETATM   11  C   UNL     1      29.705  45.676  55.861  1.00  0.00     0.044 C 
HETATM   12  C   UNL     1      30.364  44.291  55.792  1.00  0.00     0.241 C 
HETATM   13  N   UNL     1      31.504  44.220  56.763  1.00  0.00    -0.074 N 
HETATM   14  H   UNL     1      32.244  44.876  56.478  1.00  0.00     0.277 HD
HETATM   15  H   UNL     1      31.930  43.284  56.708  1.00  0.00     0.277 HD
HETATM   16  C   UNL     1      31.112  44.493  58.178  1.00  0.00     0.232 C 
HETATM   17  C   UNL     1      30.478  45.873  58.266  1.00  0.00     0.028 C 
HETATM   18  C   UNL     1      29.295  46.014  57.308  1.00  0.00     0.013 C 
ENDBRANCH   8  11
ENDBRANCH   1   5
BRANCH   2  19
HETATM   19  C   UNL     1      23.766  44.817  50.589  1.00  0.00     0.123 C 
BRANCH  19  20
HETATM   20  C   UNL     1      23.472  43.413  50.066  1.00  0.00     0.026 C 
BRANCH  20  21
HETATM   21  C   UNL     1      24.395  43.013  48.916  1.00  0.00     0.061 C 
BRANCH  21  22
HETATM   22  C   UNL     1      25.554  42.195  49.385  1.00  0.00     0.044 A 
HETATM   23  N   UNL     1      25.625  41.853  50.726  1.00  0.00    -0.229 NA
HETATM   24  C   UNL     1      26.686  41.120  50.954  1.00  0.00     0.164 A 
HETATM   25  N   UNL     1      27.000  40.642  52.166  1.00  0.00    -0.378 N 
HETATM   26  S   UNL     1      27.681  40.822  49.588  1.00  0.00    -0.062 SA
HETATM   27  H   UNL     1      26.526  41.074  52.949  1.00  0.00     0.158 HD
HETATM   28  H   UNL     1      27.962  40.382  52.344  1.00  0.00     0.158 HD
HETATM   29  C   UNL     1      26.597  41.721  48.613  1.00  0.00     0.080 A 
ENDBRANCH  21  22
ENDBRANCH  20  21
ENDBRANCH  19  20
ENDBRANCH   2  19
TORSDOF 6
ENDMDL
MODEL 4
REMARK VINA RESULT:      -7.7      5.568     10.692
REMARK  6 active torsions:
REMARK  status: ('A' for Active; 'I' for Inactive)
REMARK    1  A    between atoms: C_2  and  C_3 
REMARK    2  A    between atoms: C_13  and  C_14 
REMARK       I    between atoms: C_14  and  N_15 
REMARK    3  A    between atoms: N_15  and  C_16 
REMARK    4  A    between atoms: C_16  and  C_17 
REMARK    5  A    between atoms: C_17  and  C_18 
REMARK    6  A    between atoms: C_18  and  C_19 
ROOT
HETATM    1  C   UNL     1      24.918  49.697  48.264  1.00  0.00     0.251 C 
HETATM    2  N   UNL     1      25.627  48.991  49.215  1.00  0.00    -0.357 N 
HETATM    3  O   UNL     1      25.411  50.114  47.223  1.00  0.00    -0.268 OA
HETATM    4  H   UNL     1      25.128  48.497  49.941  1.00  0.00     0.162 HD
ENDROOT
BRANCH   1   5
HETATM    5  C   UNL     1      23.468  49.918  48.532  1.00  0.00     0.032 A 
HETATM    6  C   UNL     1      22.859  51.169  48.406  1.00  0.00     0.017 A 
HETATM    7  C   UNL     1      21.490  51.314  48.665  1.00  0.00     0.008 A 
HETATM    8  C   UNL     1      20.706  50.213  49.045  1.00  0.00    -0.052 A 
HETATM    9  C   UNL     1      21.324  48.959  49.155  1.00  0.00     0.008 A 
HETATM   10  C   UNL     1      22.689  48.813  48.894  1.00  0.00     0.017 A 
BRANCH   8  11
HETATM   11  C   UNL     1      19.232  50.410  49.349  1.00  0.00     0.044 C 
HETATM   12  C   UNL     1      18.369  49.771  48.251  1.00  0.00     0.241 C 
HETATM   13  N   UNL     1      16.916  49.963  48.569  1.00  0.00    -0.074 N 
HETATM   14  H   UNL     1      16.677  49.444  49.426  1.00  0.00     0.277 HD
HETATM   15  H   UNL     1      16.353  49.534  47.822  1.00  0.00     0.277 HD
HETATM   16  C   UNL     1      16.514  51.393  48.723  1.00  0.00     0.232 C 
HETATM   17  C   UNL     1      17.346  52.033  49.823  1.00  0.00     0.028 C 
HETATM   18  C   UNL     1      18.845  51.886  49.558  1.00  0.00     0.013 C 
ENDBRANCH   8  11
ENDBRANCH   1   5
BRANCH   2  19
HETATM   19  C   UNL     1      27.021  48.639  49.016  1.00  0.00     0.123 C 
BRANCH  19  20
HETATM   20  C   UNL     1      27.357  47.205  49.417  1.00  0.00     0.026 C 
BRANCH  20  21
HETATM   21  C   UNL     1      26.123  46.416  49.852  1.00  0.00     0.061 C 
BRANCH  21  22
HETATM   22  C   UNL     1      26.067  46.235  51.335  1.00  0.00     0.044 A 
HETATM   23  N   UNL     1      26.014  47.362  52.139  1.00  0.00    -0.229 NA
HETATM   24  C   UNL     1      25.946  47.018  53.401  1.00  0.00     0.164 A 
HETATM   25  N   UNL     1      25.877  47.908  54.401  1.00  0.00    -0.378 N 
HETATM   26  S   UNL     1      25.977  45.329  53.706  1.00  0.00    -0.062 SA
HETATM   27  H   UNL     1      26.131  48.859  54.165  1.00  0.00     0.158 HD
HETATM   28  H   UNL     1      26.158  47.612  55.327  1.00  0.00     0.158 HD
HETATM   29  C   UNL     1      26.062  45.036  52.021  1.00  0.00     0.080 A 
ENDBRANCH  21  22
ENDBRANCH  20  21
ENDBRANCH  19  20
ENDBRANCH   2  19
TORSDOF 6
ENDMDL
MODEL 5
REMARK VINA RESULT:      -7.7      2.744      3.998
REMARK  6 active torsions:
REMARK  status: ('A' for Active; 'I' for Inactive)
REMARK    1  A    between atoms: C_2  and  C_3 
REMARK    2  A    between atoms: C_13  and  C_14 
REMARK       I    between atoms: C_14  and  N_15 
REMARK    3  A    between atoms: N_15  and  C_16 
REMARK    4  A    between atoms: C_16  and  C_17 
REMARK    5  A    between atoms: C_17  and  C_18 
REMARK    6  A    between atoms: C_18  and  C_19 
ROOT
HETATM    1  C   UNL     1      25.580  44.175  51.847  1.00  0.00     0.251 C 
HETATM    2  N   UNL     1      25.993  43.934  50.553  1.00  0.00    -0.357 N 
HETATM    3  O   UNL     1      24.408  44.138  52.203  1.00  0.00    -0.268 OA
HETATM    4  H   UNL     1      26.972  43.772  50.366  1.00  0.00     0.162 HD
ENDROOT
BRANCH   1   5
HETATM    5  C   UNL     1      26.645  44.459  52.851  1.00  0.00     0.032 A 
HETATM    6  C   UNL     1      26.697  45.650  53.580  1.00  0.00     0.017 A 
HETATM    7  C   UNL     1      27.719  45.857  54.516  1.00  0.00     0.008 A 
HETATM    8  C   UNL     1      28.698  44.878  54.746  1.00  0.00    -0.052 A 
HETATM    9  C   UNL     1      28.628  43.680  54.020  1.00  0.00     0.008 A 
HETATM   10  C   UNL     1      27.608  43.471  53.087  1.00  0.00     0.017 A 
BRANCH   8  11
HETATM   11  C   UNL     1      29.809  45.146  55.743  1.00  0.00     0.044 C 
HETATM   12  C   UNL     1      30.576  43.852  56.053  1.00  0.00     0.241 C 
HETATM   13  N   UNL     1      31.677  44.133  57.031  1.00  0.00    -0.074 N 
HETATM   14  H   UNL     1      32.376  44.753  56.598  1.00  0.00     0.277 HD
HETATM   15  H   UNL     1      32.176  43.256  57.232  1.00  0.00     0.277 HD
HETATM   16  C   UNL     1      31.207  44.731  58.317  1.00  0.00     0.232 C 
HETATM   17  C   UNL     1      30.465  46.027  58.027  1.00  0.00     0.028 C 
HETATM   18  C   UNL     1      29.315  45.812  57.042  1.00  0.00     0.013 C 
ENDBRANCH   8  11
ENDBRANCH   1   5
BRANCH   2  19
HETATM   19  C   UNL     1      25.052  43.558  49.514  1.00  0.00     0.123 C 
BRANCH  19  20
HETATM   20  C   UNL     1      24.986  42.055  49.257  1.00  0.00     0.026 C 
BRANCH  20  21
HETATM   21  C   UNL     1      26.091  41.574  48.317  1.00  0.00     0.061 C 
BRANCH  21  22
HETATM   22  C   UNL     1      27.075  40.691  49.013  1.00  0.00     0.044 A 
HETATM   23  N   UNL     1      27.527  41.063  50.269  1.00  0.00    -0.229 NA
HETATM   24  C   UNL     1      28.359  40.166  50.737  1.00  0.00     0.164 A 
HETATM   25  N   UNL     1      28.947  40.267  51.938  1.00  0.00    -0.378 N 
HETATM   26  S   UNL     1      28.678  38.842  49.692  1.00  0.00    -0.062 SA
HETATM   27  H   UNL     1      28.920  41.182  52.368  1.00  0.00     0.158 HD
HETATM   28  H   UNL     1      29.800  39.747  52.099  1.00  0.00     0.158 HD
HETATM   29  C   UNL     1      27.603  39.506  48.537  1.00  0.00     0.080 A 
ENDBRANCH  21  22
ENDBRANCH  20  21
ENDBRANCH  19  20
ENDBRANCH   2  19
TORSDOF 6
ENDMDL
MODEL 6
REMARK VINA RESULT:      -7.5      1.925      2.383
REMARK  6 active torsions:
REMARK  status: ('A' for Active; 'I' for Inactive)
REMARK    1  A    between atoms: C_2  and  C_3 
REMARK    2  A    between atoms: C_13  and  C_14 
REMARK       I    between atoms: C_14  and  N_15 
REMARK    3  A    between atoms: N_15  and  C_16 
REMARK    4  A    between atoms: C_16  and  C_17 
REMARK    5  A    between atoms: C_17  and  C_18 
REMARK    6  A    between atoms: C_18  and  C_19 
ROOT
HETATM    1  C   UNL     1      25.320  43.920  52.472  1.00  0.00     0.251 C 
HETATM    2  N   UNL     1      25.421  42.881  51.570  1.00  0.00    -0.357 N 
HETATM    3  O   UNL     1      24.312  44.603  52.612  1.00  0.00    -0.268 OA
HETATM    4  H   UNL     1      26.188  42.229  51.647  1.00  0.00     0.162 HD
ENDROOT
BRANCH   1   5
HETATM    5  C   UNL     1      26.509  44.181  53.334  1.00  0.00     0.032 A 
HETATM    6  C   UNL     1      27.651  43.377  53.308  1.00  0.00     0.017 A 
HETATM    7  C   UNL     1      28.741  43.676  54.137  1.00  0.00     0.008 A 
HETATM    8  C   UNL     1      28.712  44.786  54.996  1.00  0.00    -0.052 A 
HETATM    9  C   UNL     1      27.566  45.596  55.003  1.00  0.00     0.008 A 
HETATM   10  C   UNL     1      26.480  45.299  54.175  1.00  0.00     0.017 A 
BRANCH   8  11
HETATM   11  C   UNL     1      29.895  45.065  55.903  1.00  0.00     0.044 C 
HETATM   12  C   UNL     1      30.645  43.762  56.221  1.00  0.00     0.241 C 
HETATM   13  N   UNL     1      31.818  44.053  57.109  1.00  0.00    -0.074 N 
HETATM   14  H   UNL     1      32.502  44.632  56.602  1.00  0.00     0.277 HD
HETATM   15  H   UNL     1      32.305  43.171  57.316  1.00  0.00     0.277 HD
HETATM   16  C   UNL     1      31.453  44.721  58.394  1.00  0.00     0.232 C 
HETATM   17  C   UNL     1      30.730  46.025  58.095  1.00  0.00     0.028 C 
HETATM   18  C   UNL     1      29.510  45.802  57.200  1.00  0.00     0.013 C 
ENDBRANCH   8  11
ENDBRANCH   1   5
BRANCH   2  19
HETATM   19  C   UNL     1      24.295  42.481  50.746  1.00  0.00     0.123 C 
BRANCH  19  20
HETATM   20  C   UNL     1      24.250  43.175  49.386  1.00  0.00     0.026 C 
BRANCH  20  21
HETATM   21  C   UNL     1      25.557  43.895  49.055  1.00  0.00     0.061 C 
BRANCH  21  22
HETATM   22  C   UNL     1      25.498  45.349  49.398  1.00  0.00     0.044 A 
HETATM   23  N   UNL     1      24.261  45.974  49.422  1.00  0.00    -0.229 NA
HETATM   24  C   UNL     1      24.395  47.232  49.763  1.00  0.00     0.164 A 
HETATM   25  N   UNL     1      23.358  48.076  49.873  1.00  0.00    -0.378 N 
HETATM   26  S   UNL     1      26.006  47.752  50.042  1.00  0.00    -0.062 SA
HETATM   27  H   UNL     1      22.494  47.774  49.441  1.00  0.00     0.158 HD
HETATM   28  H   UNL     1      23.540  49.070  49.808  1.00  0.00     0.158 HD
HETATM   29  C   UNL     1      26.566  46.169  49.706  1.00  0.00     0.080 A 
ENDBRANCH  21  22
ENDBRANCH  20  21
ENDBRANCH  19  20
ENDBRANCH   2  19
TORSDOF 6
ENDMDL
MODEL 7
REMARK VINA RESULT:      -7.5      4.158      5.561
REMARK  6 active torsions:
REMARK  status: ('A' for Active; 'I' for Inactive)
REMARK    1  A    between atoms: C_2  and  C_3 
REMARK    2  A    between atoms: C_13  and  C_14 
REMARK       I    between atoms: C_14  and  N_15 
REMARK    3  A    between atoms: N_15  and  C_16 
REMARK    4  A    between atoms: C_16  and  C_17 
REMARK    5  A    between atoms: C_17  and  C_18 
REMARK    6  A    between atoms: C_18  and  C_19 
ROOT
HETATM    1  C   UNL     1      24.594  46.500  50.302  1.00  0.00     0.251 C 
HETATM    2  N   UNL     1      24.000  47.744  50.368  1.00  0.00    -0.357 N 
HETATM    3  O   UNL     1      24.451  45.729  49.361  1.00  0.00    -0.268 OA
HETATM    4  H   UNL     1      24.318  48.411  51.056  1.00  0.00     0.162 HD
ENDROOT
BRANCH   1   5
HETATM    5  C   UNL     1      25.481  46.117  51.438  1.00  0.00     0.032 A 
HETATM    6  C   UNL     1      25.715  46.957  52.530  1.00  0.00     0.017 A 
HETATM    7  C   UNL     1      26.554  46.539  53.571  1.00  0.00     0.008 A 
HETATM    8  C   UNL     1      27.163  45.275  53.545  1.00  0.00    -0.052 A 
HETATM    9  C   UNL     1      26.909  44.433  52.453  1.00  0.00     0.008 A 
HETATM   10  C   UNL     1      26.072  44.849  51.413  1.00  0.00     0.017 A 
BRANCH   8  11
HETATM   11  C   UNL     1      28.090  44.864  54.674  1.00  0.00     0.044 C 
HETATM   12  C   UNL     1      28.621  46.104  55.409  1.00  0.00     0.241 C 
HETATM   13  N   UNL     1      29.527  45.684  56.528  1.00  0.00    -0.074 N 
HETATM   14  H   UNL     1      28.986  45.171  57.238  1.00  0.00     0.277 HD
HETATM   15  H   UNL     1      29.877  46.526  57.006  1.00  0.00     0.277 HD
HETATM   16  C   UNL     1      30.688  44.855  56.088  1.00  0.00     0.232 C 
HETATM   17  C   UNL     1      30.177  43.611  55.378  1.00  0.00     0.028 C 
HETATM   18  C   UNL     1      29.253  43.965  54.212  1.00  0.00     0.013 C 
ENDBRANCH   8  11
ENDBRANCH   1   5
BRANCH   2  19
HETATM   19  C   UNL     1      23.191  48.256  49.277  1.00  0.00     0.123 C 
BRANCH  19  20
HETATM   20  C   UNL     1      23.807  49.458  48.566  1.00  0.00     0.026 C 
BRANCH  20  21
HETATM   21  C   UNL     1      23.236  50.786  49.062  1.00  0.00     0.061 C 
BRANCH  21  22
HETATM   22  C   UNL     1      21.742  50.805  49.019  1.00  0.00     0.044 A 
HETATM   23  N   UNL     1      21.112  50.675  47.792  1.00  0.00    -0.229 NA
HETATM   24  C   UNL     1      19.812  50.688  47.945  1.00  0.00     0.164 A 
HETATM   25  N   UNL     1      18.952  50.572  46.923  1.00  0.00    -0.378 N 
HETATM   26  S   UNL     1      19.263  50.891  49.558  1.00  0.00    -0.062 SA
HETATM   27  H   UNL     1      19.339  50.725  46.000  1.00  0.00     0.158 HD
HETATM   28  H   UNL     1      18.008  50.915  47.049  1.00  0.00     0.158 HD
HETATM   29  C   UNL     1      20.887  50.939  50.096  1.00  0.00     0.080 A 
ENDBRANCH  21  22
ENDBRANCH  20  21
ENDBRANCH  19  20
ENDBRANCH   2  19
TORSDOF 6
ENDMDL
MODEL 8
REMARK VINA RESULT:      -7.4      2.643      4.164
REMARK  6 active torsions:
REMARK  status: ('A' for Active; 'I' for Inactive)
REMARK    1  A    between atoms: C_2  and  C_3 
REMARK    2  A    between atoms: C_13  and  C_14 
REMARK       I    between atoms: C_14  and  N_15 
REMARK    3  A    between atoms: N_15  and  C_16 
REMARK    4  A    between atoms: C_16  and  C_17 
REMARK    5  A    between atoms: C_17  and  C_18 
REMARK    6  A    between atoms: C_18  and  C_19 
ROOT
HETATM    1  C   UNL     1      24.764  46.783  50.868  1.00  0.00     0.251 C 
HETATM    2  N   UNL     1      24.048  45.830  50.173  1.00  0.00    -0.357 N 
HETATM    3  O   UNL     1      24.651  47.988  50.678  1.00  0.00    -0.268 OA
HETATM    4  H   UNL     1      24.025  44.880  50.513  1.00  0.00     0.162 HD
ENDROOT
BRANCH   1   5
HETATM    5  C   UNL     1      25.693  46.289  51.925  1.00  0.00     0.032 A 
HETATM    6  C   UNL     1      25.925  46.986  53.113  1.00  0.00     0.017 A 
HETATM    7  C   UNL     1      26.805  46.468  54.072  1.00  0.00     0.008 A 
HETATM    8  C   UNL     1      27.459  45.243  53.866  1.00  0.00    -0.052 A 
HETATM    9  C   UNL     1      27.207  44.543  52.677  1.00  0.00     0.008 A 
HETATM   10  C   UNL     1      26.328  45.059  51.720  1.00  0.00     0.017 A 
BRANCH   8  11
HETATM   11  C   UNL     1      28.429  44.724  54.911  1.00  0.00     0.044 C 
HETATM   12  C   UNL     1      29.140  45.893  55.609  1.00  0.00     0.241 C 
HETATM   13  N   UNL     1      30.087  45.367  56.645  1.00  0.00    -0.074 N 
HETATM   14  H   UNL     1      29.558  44.899  57.394  1.00  0.00     0.277 HD
HETATM   15  H   UNL     1      30.559  46.162  57.099  1.00  0.00     0.277 HD
HETATM   16  C   UNL     1      31.120  44.434  56.104  1.00  0.00     0.232 C 
HETATM   17  C   UNL     1      30.430  43.258  55.429  1.00  0.00     0.028 C 
HETATM   18  C   UNL     1      29.453  43.721  54.347  1.00  0.00     0.013 C 
ENDBRANCH   8  11
ENDBRANCH   1   5
BRANCH   2  19
HETATM   19  C   UNL     1      23.050  46.201  49.187  1.00  0.00     0.123 C 
BRANCH  19  20
HETATM   20  C   UNL     1      22.901  45.191  48.052  1.00  0.00     0.026 C 
BRANCH  20  21
HETATM   21  C   UNL     1      22.362  43.845  48.534  1.00  0.00     0.061 C 
BRANCH  21  22
HETATM   22  C   UNL     1      23.450  42.837  48.714  1.00  0.00     0.044 A 
HETATM   23  N   UNL     1      24.072  42.746  49.949  1.00  0.00    -0.229 NA
HETATM   24  C   UNL     1      24.978  41.800  49.933  1.00  0.00     0.164 A 
HETATM   25  N   UNL     1      25.731  41.487  50.998  1.00  0.00    -0.378 N 
HETATM   26  S   UNL     1      25.166  40.986  48.434  1.00  0.00    -0.062 SA
HETATM   27  H   UNL     1      25.751  42.173  51.742  1.00  0.00     0.158 HD
HETATM   28  H   UNL     1      26.607  41.006  50.841  1.00  0.00     0.158 HD
HETATM   29  C   UNL     1      23.925  41.955  47.762  1.00  0.00     0.080 A 
ENDBRANCH  21  22
ENDBRANCH  20  21
ENDBRANCH  19  20
ENDBRANCH   2  19
TORSDOF 6
ENDMDL
MODEL 9
REMARK VINA RESULT:      -7.3     10.980     14.570
REMARK  6 active torsions:
REMARK  status: ('A' for Active; 'I' for Inactive)
REMARK    1  A    between atoms: C_2  and  C_3 
REMARK    2  A    between atoms: C_13  and  C_14 
REMARK       I    between atoms: C_14  and  N_15 
REMARK    3  A    between atoms: N_15  and  C_16 
REMARK    4  A    between atoms: C_16  and  C_17 
REMARK    5  A    between atoms: C_17  and  C_18 
REMARK    6  A    between atoms: C_18  and  C_19 
ROOT
HETATM    1  C   UNL     1      16.320  52.452  49.298  1.00  0.00     0.251 C 
HETATM    2  N   UNL     1      16.252  53.217  50.443  1.00  0.00    -0.357 N 
HETATM    3  O   UNL     1      15.360  52.234  48.568  1.00  0.00    -0.268 OA
HETATM    4  H   UNL     1      17.104  53.533  50.882  1.00  0.00     0.162 HD
ENDROOT
BRANCH   1   5
HETATM    5  C   UNL     1      17.658  51.902  48.935  1.00  0.00     0.032 A 
HETATM    6  C   UNL     1      17.968  51.455  47.648  1.00  0.00     0.017 A 
HETATM    7  C   UNL     1      19.245  50.954  47.366  1.00  0.00     0.008 A 
HETATM    8  C   UNL     1      20.236  50.899  48.359  1.00  0.00    -0.052 A 
HETATM    9  C   UNL     1      19.920  51.364  49.644  1.00  0.00     0.008 A 
HETATM   10  C   UNL     1      18.646  51.866  49.926  1.00  0.00     0.017 A 
BRANCH   8  11
HETATM   11  C   UNL     1      21.600  50.322  48.029  1.00  0.00     0.044 C 
HETATM   12  C   UNL     1      21.751  48.921  48.641  1.00  0.00     0.241 C 
HETATM   13  N   UNL     1      23.098  48.359  48.298  1.00  0.00    -0.074 N 
HETATM   14  H   UNL     1      23.163  48.208  47.282  1.00  0.00     0.277 HD
HETATM   15  H   UNL     1      23.185  47.424  48.720  1.00  0.00     0.277 HD
HETATM   16  C   UNL     1      24.241  49.206  48.752  1.00  0.00     0.232 C 
HETATM   17  C   UNL     1      24.117  50.590  48.135  1.00  0.00     0.028 C 
HETATM   18  C   UNL     1      22.767  51.233  48.455  1.00  0.00     0.013 C 
ENDBRANCH   8  11
ENDBRANCH   1   5
BRANCH   2  19
HETATM   19  C   UNL     1      15.022  53.876  50.843  1.00  0.00     0.123 C 
BRANCH  19  20
HETATM   20  C   UNL     1      15.209  55.337  51.245  1.00  0.00     0.026 C 
BRANCH  20  21
HETATM   21  C   UNL     1      13.980  55.911  51.949  1.00  0.00     0.061 C 
BRANCH  21  22
HETATM   22  C   UNL     1      14.347  56.692  53.170  1.00  0.00     0.044 A 
HETATM   23  N   UNL     1      15.676  57.032  53.364  1.00  0.00    -0.229 NA
HETATM   24  C   UNL     1      15.811  57.731  54.463  1.00  0.00     0.164 A 
HETATM   25  N   UNL     1      16.991  58.200  54.894  1.00  0.00    -0.378 N 
HETATM   26  S   UNL     1      14.365  57.995  55.349  1.00  0.00    -0.062 SA
HETATM   27  H   UNL     1      17.812  57.785  54.473  1.00  0.00     0.158 HD
HETATM   28  H   UNL     1      17.086  58.430  55.875  1.00  0.00     0.158 HD
HETATM   29  C   UNL     1      13.489  57.130  54.159  1.00  0.00     0.080 A 
ENDBRANCH  21  22
ENDBRANCH  20  21
ENDBRANCH  19  20
ENDBRANCH   2  19
TORSDOF 6
ENDMDL
MODEL 10
REMARK VINA RESULT:      -7.2      6.155     11.409
REMARK  6 active torsions:
REMARK  status: ('A' for Active; 'I' for Inactive)
REMARK    1  A    between atoms: C_2  and  C_3 
REMARK    2  A    between atoms: C_13  and  C_14 
REMARK       I    between atoms: C_14  and  N_15 
REMARK    3  A    between atoms: N_15  and  C_16 
REMARK    4  A    between atoms: C_16  and  C_17 
REMARK    5  A    between atoms: C_17  and  C_18 
REMARK    6  A    between atoms: C_18  and  C_19 
ROOT
HETATM    1  C   UNL     1      23.434  48.887  49.380  1.00  0.00     0.251 C 
HETATM    2  N   UNL     1      23.406  47.595  49.862  1.00  0.00    -0.357 N 
HETATM    3  O   UNL     1      24.467  49.493  49.122  1.00  0.00    -0.268 OA
HETATM    4  H   UNL     1      22.537  47.080  49.855  1.00  0.00     0.162 HD
ENDROOT
BRANCH   1   5
HETATM    5  C   UNL     1      22.117  49.543  49.138  1.00  0.00     0.032 A 
HETATM    6  C   UNL     1      21.983  50.921  48.948  1.00  0.00     0.017 A 
HETATM    7  C   UNL     1      20.719  51.480  48.717  1.00  0.00     0.008 A 
HETATM    8  C   UNL     1      19.571  50.673  48.663  1.00  0.00    -0.052 A 
HETATM    9  C   UNL     1      19.718  49.289  48.840  1.00  0.00     0.008 A 
HETATM   10  C   UNL     1      20.979  48.731  49.068  1.00  0.00     0.017 A 
BRANCH   8  11
HETATM   11  C   UNL     1      18.213  51.313  48.443  1.00  0.00     0.044 C 
HETATM   12  C   UNL     1      18.054  52.553  49.335  1.00  0.00     0.241 C 
HETATM   13  N   UNL     1      16.713  53.181  49.100  1.00  0.00    -0.074 N 
HETATM   14  H   UNL     1      16.664  53.543  48.137  1.00  0.00     0.277 HD
HETATM   15  H   UNL     1      16.621  54.006  49.708  1.00  0.00     0.277 HD
HETATM   16  C   UNL     1      15.562  52.262  49.347  1.00  0.00     0.232 C 
HETATM   17  C   UNL     1      15.694  51.039  48.453  1.00  0.00     0.028 C 
HETATM   18  C   UNL     1      17.039  50.337  48.649  1.00  0.00     0.013 C 
ENDBRANCH   8  11
ENDBRANCH   1   5
BRANCH   2  19
HETATM   19  C   UNL     1      24.624  46.828  50.049  1.00  0.00     0.123 C 
BRANCH  19  20
HETATM   20  C   UNL     1      25.355  47.142  51.352  1.00  0.00     0.026 C 
BRANCH  20  21
HETATM   21  C   UNL     1      25.404  45.942  52.298  1.00  0.00     0.061 C 
BRANCH  21  22
HETATM   22  C   UNL     1      26.405  46.130  53.391  1.00  0.00     0.044 A 
HETATM   23  N   UNL     1      27.320  45.118  53.634  1.00  0.00    -0.229 NA
HETATM   24  C   UNL     1      28.131  45.461  54.604  1.00  0.00     0.164 A 
HETATM   25  N   UNL     1      29.121  44.672  55.045  1.00  0.00    -0.378 N 
HETATM   26  S   UNL     1      27.829  46.997  55.307  1.00  0.00    -0.062 SA
HETATM   27  H   UNL     1      29.066  43.698  54.772  1.00  0.00     0.158 HD
HETATM   28  H   UNL     1      29.483  44.832  55.976  1.00  0.00     0.158 HD
HETATM   29  C   UNL     1      26.532  47.232  54.215  1.00  0.00     0.080 A 
ENDBRANCH  21  22
ENDBRANCH  20  21
ENDBRANCH  19  20
ENDBRANCH   2  19
TORSDOF 6
ENDMDL
