MODEL 1
REMARK VINA RESULT:     -10.0      0.000      0.000
REMARK  8 active torsions:
REMARK  status: ('A' for Active; 'I' for Inactive)
REMARK    1  A    between atoms: C_5  and  C_6 
REMARK    2  A    between atoms: C_6  and  N_7 
REMARK       I    between atoms: N_7  and  C_8 
REMARK    3  A    between atoms: N_7  and  C_20 
REMARK    4  A    between atoms: C_8  and  C_9 
REMARK    5  A    between atoms: C_9  and  N_10 
REMARK    6  A    between atoms: C_20  and  C_21 
REMARK       I    between atoms: C_21  and  N_22 
REMARK    7  A    between atoms: N_22  and  C_23 
REMARK    8  A    between atoms: C_26  and  O_27 
ROOT
HETATM    1  N   UNL     1      26.411  45.444  51.520  1.00  0.00    -0.338 N 
HETATM    2  C   UNL     1      26.263  46.768  51.092  1.00  0.00     0.239 C 
HETATM    3  O   UNL     1      25.831  47.638  51.859  1.00  0.00    -0.271 OA
ENDROOT
BRANCH   1   4
HETATM    4  C   UNL     1      26.209  45.224  52.956  1.00  0.00     0.165 C 
BRANCH   4   5
HETATM    5  C   UNL     1      27.485  44.923  53.712  1.00  0.00    -0.040 A 
HETATM    6  C   UNL     1      27.922  45.777  54.733  1.00  0.00     0.009 A 
HETATM    7  C   UNL     1      29.073  45.478  55.464  1.00  0.00     0.007 A 
HETATM    8  C   UNL     1      29.814  44.323  55.182  1.00  0.00    -0.062 A 
HETATM    9  C   UNL     1      31.039  44.005  55.986  1.00  0.00     0.048 C 
HETATM   10  C   UNL     1      29.398  43.486  54.143  1.00  0.00     0.007 A 
HETATM   11  C   UNL     1      28.248  43.786  53.410  1.00  0.00     0.009 A 
ENDBRANCH   4   5
ENDBRANCH   1   4
BRANCH   1  12
HETATM   12  C   UNL     1      26.044  44.320  50.633  1.00  0.00     0.229 C 
BRANCH  12  13
HETATM   13  C   UNL     1      24.937  43.405  51.150  1.00  0.00     0.240 C 
HETATM   14  N   UNL     1      25.105  42.048  51.183  1.00  0.00    -0.326 N 
HETATM   15  H   UNL     1      24.351  41.610  51.701  1.00  0.00     0.169 HD
HETATM   16  O   UNL     1      23.883  43.863  51.608  1.00  0.00    -0.271 OA
BRANCH  14  17
HETATM   17  C   UNL     1      26.108  41.181  50.710  1.00  0.00     0.034 A 
HETATM   18  C   UNL     1      27.291  41.133  51.460  1.00  0.00     0.032 A 
HETATM   19  C   UNL     1      28.356  40.309  51.076  1.00  0.00     0.039 A 
HETATM   20  C   UNL     1      28.259  39.510  49.940  1.00  0.00     0.068 A 
HETATM   21  C   UNL     1      27.074  39.519  49.213  1.00  0.00     0.039 A 
HETATM   22  C   UNL     1      26.008  40.348  49.597  1.00  0.00     0.032 A 
BRANCH  20  23
HETATM   23  O   UNL     1      29.366  38.759  49.658  1.00  0.00    -0.356 OA
HETATM   24  C   UNL     1      29.759  37.816  50.648  1.00  0.00     0.210 C 
ENDBRANCH  20  23
ENDBRANCH  14  17
ENDBRANCH  12  13
ENDBRANCH   1  12
BRANCH   2  25
HETATM   25  C   UNL     1      26.850  47.188  49.762  1.00  0.00     0.250 C 
BRANCH  25  26
HETATM   26  N   UNL     1      26.315  48.384  49.155  1.00  0.00    -0.263 N 
HETATM   27  N   UNL     1      27.113  49.356  48.673  1.00  0.00     0.006 NA
HETATM   28  N   UNL     1      26.333  50.307  48.177  1.00  0.00    -0.158 NA
HETATM   29  C   UNL     1      25.031  49.897  48.295  1.00  0.00     0.102 A 
HETATM   30  C   UNL     1      24.990  48.654  48.912  1.00  0.00     0.079 A 
HETATM   31  C   UNL     1      23.834  50.511  47.897  1.00  0.00     0.035 A 
HETATM   32  C   UNL     1      23.798  47.963  49.157  1.00  0.00     0.033 A 
HETATM   33  C   UNL     1      22.614  48.582  48.744  1.00  0.00     0.002 A 
HETATM   34  C   UNL     1      22.628  49.834  48.126  1.00  0.00     0.002 A 
ENDBRANCH  25  26
ENDBRANCH   2  25
TORSDOF 8
ENDMDL
MODEL 2
REMARK VINA RESULT:      -9.5      2.667      7.463
REMARK  8 active torsions:
REMARK  status: ('A' for Active; 'I' for Inactive)
REMARK    1  A    between atoms: C_5  and  C_6 
REMARK    2  A    between atoms: C_6  and  N_7 
REMARK       I    between atoms: N_7  and  C_8 
REMARK    3  A    between atoms: N_7  and  C_20 
REMARK    4  A    between atoms: C_8  and  C_9 
REMARK    5  A    between atoms: C_9  and  N_10 
REMARK    6  A    between atoms: C_20  and  C_21 
REMARK       I    between atoms: C_21  and  N_22 
REMARK    7  A    between atoms: N_22  and  C_23 
REMARK    8  A    between atoms: C_26  and  O_27 
ROOT
HETATM    1  N   UNL     1      23.267  48.123  48.720  1.00  0.00    -0.338 N 
HETATM    2  C   UNL     1      24.403  48.040  49.533  1.00  0.00     0.239 C 
HETATM    3  O   UNL     1      25.255  48.937  49.526  1.00  0.00    -0.271 OA
ENDROOT
BRANCH   1   4
HETATM    4  C   UNL     1      23.080  49.406  48.035  1.00  0.00     0.165 C 
BRANCH   4   5
HETATM    5  C   UNL     1      21.810  50.129  48.430  1.00  0.00    -0.040 A 
HETATM    6  C   UNL     1      21.597  50.511  49.761  1.00  0.00     0.009 A 
HETATM    7  C   UNL     1      20.448  51.218  50.120  1.00  0.00     0.007 A 
HETATM    8  C   UNL     1      19.488  51.551  49.157  1.00  0.00    -0.062 A 
HETATM    9  C   UNL     1      18.267  52.327  49.554  1.00  0.00     0.048 C 
HETATM   10  C   UNL     1      19.683  51.145  47.834  1.00  0.00     0.007 A 
HETATM   11  C   UNL     1      20.831  50.434  47.474  1.00  0.00     0.009 A 
ENDBRANCH   4   5
ENDBRANCH   1   4
BRANCH   1  12
HETATM   12  C   UNL     1      22.757  46.929  48.013  1.00  0.00     0.229 C 
BRANCH  12  13
HETATM   13  C   UNL     1      21.564  46.235  48.664  1.00  0.00     0.240 C 
HETATM   14  N   UNL     1      21.666  44.956  49.136  1.00  0.00    -0.326 N 
HETATM   15  H   UNL     1      20.845  44.712  49.679  1.00  0.00     0.169 HD
HETATM   16  O   UNL     1      20.491  46.826  48.836  1.00  0.00    -0.271 OA
BRANCH  14  17
HETATM   17  C   UNL     1      22.672  43.973  49.071  1.00  0.00     0.034 A 
HETATM   18  C   UNL     1      23.178  43.522  50.298  1.00  0.00     0.032 A 
HETATM   19  C   UNL     1      24.185  42.551  50.349  1.00  0.00     0.039 A 
HETATM   20  C   UNL     1      24.703  42.005  49.177  1.00  0.00     0.068 A 
HETATM   21  C   UNL     1      24.178  42.415  47.957  1.00  0.00     0.039 A 
HETATM   22  C   UNL     1      23.170  43.391  47.907  1.00  0.00     0.032 A 
BRANCH  20  23
HETATM   23  O   UNL     1      25.691  41.077  49.352  1.00  0.00    -0.356 OA
HETATM   24  C   UNL     1      26.097  40.830  50.694  1.00  0.00     0.210 C 
ENDBRANCH  20  23
ENDBRANCH  14  17
ENDBRANCH  12  13
ENDBRANCH   1  12
BRANCH   2  25
HETATM   25  C   UNL     1      24.478  46.966  50.597  1.00  0.00     0.250 C 
BRANCH  25  26
HETATM   26  N   UNL     1      25.549  46.004  50.486  1.00  0.00    -0.263 N 
HETATM   27  N   UNL     1      26.062  45.646  49.294  1.00  0.00     0.006 NA
HETATM   28  N   UNL     1      27.026  44.762  49.521  1.00  0.00    -0.158 NA
HETATM   29  C   UNL     1      27.158  44.612  50.876  1.00  0.00     0.102 A 
HETATM   30  C   UNL     1      26.224  45.410  51.525  1.00  0.00     0.079 A 
HETATM   31  C   UNL     1      28.045  43.833  51.633  1.00  0.00     0.035 A 
HETATM   32  C   UNL     1      26.123  45.488  52.918  1.00  0.00     0.033 A 
HETATM   33  C   UNL     1      27.022  44.714  53.660  1.00  0.00     0.002 A 
HETATM   34  C   UNL     1      27.966  43.899  53.032  1.00  0.00     0.002 A 
ENDBRANCH  25  26
ENDBRANCH   2  25
TORSDOF 8
ENDMDL
MODEL 3
REMARK VINA RESULT:      -9.5      1.638      6.583
REMARK  8 active torsions:
REMARK  status: ('A' for Active; 'I' for Inactive)
REMARK    1  A    between atoms: C_5  and  C_6 
REMARK    2  A    between atoms: C_6  and  N_7 
REMARK       I    between atoms: N_7  and  C_8 
REMARK    3  A    between atoms: N_7  and  C_20 
REMARK    4  A    between atoms: C_8  and  C_9 
REMARK    5  A    between atoms: C_9  and  N_10 
REMARK    6  A    between atoms: C_20  and  C_21 
REMARK       I    between atoms: C_21  and  N_22 
REMARK    7  A    between atoms: N_22  and  C_23 
REMARK    8  A    between atoms: C_26  and  O_27 
ROOT
HETATM    1  N   UNL     1      25.589  45.752  50.897  1.00  0.00    -0.338 N 
HETATM    2  C   UNL     1      26.015  46.529  51.980  1.00  0.00     0.239 C 
HETATM    3  O   UNL     1      26.399  47.694  51.815  1.00  0.00    -0.271 OA
ENDROOT
BRANCH   1   4
HETATM    4  C   UNL     1      25.452  46.472  49.626  1.00  0.00     0.165 C 
BRANCH   4   5
HETATM    5  C   UNL     1      24.034  46.899  49.317  1.00  0.00    -0.040 A 
HETATM    6  C   UNL     1      23.631  48.224  49.524  1.00  0.00     0.009 A 
HETATM    7  C   UNL     1      22.336  48.632  49.197  1.00  0.00     0.007 A 
HETATM    8  C   UNL     1      21.418  47.720  48.662  1.00  0.00    -0.062 A 
HETATM    9  C   UNL     1      20.036  48.176  48.298  1.00  0.00     0.048 C 
HETATM   10  C   UNL     1      21.807  46.389  48.483  1.00  0.00     0.007 A 
HETATM   11  C   UNL     1      23.102  45.980  48.814  1.00  0.00     0.009 A 
ENDBRANCH   4   5
ENDBRANCH   1   4
BRANCH   1  12
HETATM   12  C   UNL     1      25.965  44.327  50.798  1.00  0.00     0.229 C 
BRANCH  12  13
HETATM   13  C   UNL     1      24.851  43.327  51.094  1.00  0.00     0.240 C 
HETATM   14  N   UNL     1      25.106  41.985  51.145  1.00  0.00    -0.326 N 
HETATM   15  H   UNL     1      24.303  41.485  51.512  1.00  0.00     0.169 HD
HETATM   16  O   UNL     1      23.701  43.702  51.355  1.00  0.00    -0.271 OA
BRANCH  14  17
HETATM   17  C   UNL     1      26.238  41.198  50.856  1.00  0.00     0.034 A 
HETATM   18  C   UNL     1      26.145  40.367  49.732  1.00  0.00     0.032 A 
HETATM   19  C   UNL     1      27.210  39.538  49.359  1.00  0.00     0.039 A 
HETATM   20  C   UNL     1      28.391  39.527  50.096  1.00  0.00     0.068 A 
HETATM   21  C   UNL     1      28.508  40.380  51.188  1.00  0.00     0.039 A 
HETATM   22  C   UNL     1      27.439  41.208  51.563  1.00  0.00     0.032 A 
BRANCH  20  23
HETATM   23  O   UNL     1      29.354  38.669  49.644  1.00  0.00    -0.356 OA
HETATM   24  C   UNL     1      29.930  37.799  50.613  1.00  0.00     0.210 C 
ENDBRANCH  20  23
ENDBRANCH  14  17
ENDBRANCH  12  13
ENDBRANCH   1  12
BRANCH   2  25
HETATM   25  C   UNL     1      25.786  46.026  53.390  1.00  0.00     0.250 C 
BRANCH  25  26
HETATM   26  N   UNL     1      26.905  46.088  54.300  1.00  0.00    -0.263 N 
HETATM   27  N   UNL     1      27.022  47.066  55.218  1.00  0.00     0.006 NA
HETATM   28  N   UNL     1      28.139  46.845  55.900  1.00  0.00    -0.158 NA
HETATM   29  C   UNL     1      28.696  45.680  55.443  1.00  0.00     0.102 A 
HETATM   30  C   UNL     1      27.915  45.164  54.417  1.00  0.00     0.079 A 
HETATM   31  C   UNL     1      29.848  44.991  55.848  1.00  0.00     0.035 A 
HETATM   32  C   UNL     1      28.216  43.966  53.758  1.00  0.00     0.033 A 
HETATM   33  C   UNL     1      29.362  43.285  54.181  1.00  0.00     0.002 A 
HETATM   34  C   UNL     1      30.167  43.786  55.206  1.00  0.00     0.002 A 
ENDBRANCH  25  26
ENDBRANCH   2  25
TORSDOF 8
ENDMDL
MODEL 4
REMARK VINA RESULT:      -9.4      2.320      8.791
REMARK  8 active torsions:
REMARK  status: ('A' for Active; 'I' for Inactive)
REMARK    1  A    between atoms: C_5  and  C_6 
REMARK    2  A    between atoms: C_6  and  N_7 
REMARK       I    between atoms: N_7  and  C_8 
REMARK    3  A    between atoms: N_7  and  C_20 
REMARK    4  A    between atoms: C_8  and  C_9 
REMARK    5  A    between atoms: C_9  and  N_10 
REMARK    6  A    between atoms: C_20  and  C_21 
REMARK       I    between atoms: C_21  and  N_22 
REMARK    7  A    between atoms: N_22  and  C_23 
REMARK    8  A    between atoms: C_26  and  O_27 
ROOT
HETATM    1  N   UNL     1      25.280  45.766  51.497  1.00  0.00    -0.338 N 
HETATM    2  C   UNL     1      25.468  45.350  52.820  1.00  0.00     0.239 C 
HETATM    3  O   UNL     1      24.720  44.508  53.333  1.00  0.00    -0.271 OA
ENDROOT
BRANCH   1   4
HETATM    4  C   UNL     1      24.284  45.003  50.737  1.00  0.00     0.165 C 
BRANCH   4   5
HETATM    5  C   UNL     1      24.845  43.771  50.061  1.00  0.00    -0.040 A 
HETATM    6  C   UNL     1      26.210  43.689  49.758  1.00  0.00     0.009 A 
HETATM    7  C   UNL     1      26.740  42.536  49.176  1.00  0.00     0.007 A 
HETATM    8  C   UNL     1      25.913  41.446  48.879  1.00  0.00    -0.062 A 
HETATM    9  C   UNL     1      26.498  40.206  48.270  1.00  0.00     0.048 C 
HETATM   10  C   UNL     1      24.545  41.536  49.151  1.00  0.00     0.007 A 
HETATM   11  C   UNL     1      24.014  42.691  49.731  1.00  0.00     0.009 A 
ENDBRANCH   4   5
ENDBRANCH   1   4
BRANCH   1  12
HETATM   12  C   UNL     1      25.429  47.188  51.126  1.00  0.00     0.229 C 
BRANCH  12  13
HETATM   13  C   UNL     1      25.969  47.452  49.723  1.00  0.00     0.240 C 
HETATM   14  N   UNL     1      25.320  48.297  48.867  1.00  0.00    -0.326 N 
HETATM   15  H   UNL     1      25.894  48.487  48.052  1.00  0.00     0.169 HD
HETATM   16  O   UNL     1      27.037  46.958  49.340  1.00  0.00    -0.271 OA
BRANCH  14  17
HETATM   17  C   UNL     1      24.088  48.978  48.920  1.00  0.00     0.034 A 
HETATM   18  C   UNL     1      24.124  50.348  48.631  1.00  0.00     0.032 A 
HETATM   19  C   UNL     1      22.957  51.122  48.662  1.00  0.00     0.039 A 
HETATM   20  C   UNL     1      21.731  50.542  48.973  1.00  0.00     0.068 A 
HETATM   21  C   UNL     1      21.678  49.174  49.220  1.00  0.00     0.039 A 
HETATM   22  C   UNL     1      22.849  48.400  49.192  1.00  0.00     0.032 A 
BRANCH  20  23
HETATM   23  O   UNL     1      20.665  51.398  48.985  1.00  0.00    -0.356 OA
HETATM   24  C   UNL     1      19.628  51.103  49.915  1.00  0.00     0.210 C 
ENDBRANCH  20  23
ENDBRANCH  14  17
ENDBRANCH  12  13
ENDBRANCH   1  12
BRANCH   2  25
HETATM   25  C   UNL     1      26.729  45.754  53.552  1.00  0.00     0.250 C 
BRANCH  25  26
HETATM   26  N   UNL     1      27.730  44.733  53.752  1.00  0.00    -0.263 N 
HETATM   27  N   UNL     1      27.785  43.631  52.980  1.00  0.00     0.006 NA
HETATM   28  N   UNL     1      28.808  42.897  53.401  1.00  0.00    -0.158 NA
HETATM   29  C   UNL     1      29.437  43.578  54.409  1.00  0.00     0.102 A 
HETATM   30  C   UNL     1      28.770  44.772  54.649  1.00  0.00     0.079 A 
HETATM   31  C   UNL     1      30.578  43.261  55.160  1.00  0.00     0.035 A 
HETATM   32  C   UNL     1      29.185  45.698  55.613  1.00  0.00     0.033 A 
HETATM   33  C   UNL     1      30.332  45.373  56.346  1.00  0.00     0.002 A 
HETATM   34  C   UNL     1      31.017  44.176  56.127  1.00  0.00     0.002 A 
ENDBRANCH  25  26
ENDBRANCH   2  25
TORSDOF 8
ENDMDL
MODEL 5
REMARK VINA RESULT:      -9.4      2.524      4.007
REMARK  8 active torsions:
REMARK  status: ('A' for Active; 'I' for Inactive)
REMARK    1  A    between atoms: C_5  and  C_6 
REMARK    2  A    between atoms: C_6  and  N_7 
REMARK       I    between atoms: N_7  and  C_8 
REMARK    3  A    between atoms: N_7  and  C_20 
REMARK    4  A    between atoms: C_8  and  C_9 
REMARK    5  A    between atoms: C_9  and  N_10 
REMARK    6  A    between atoms: C_20  and  C_21 
REMARK       I    between atoms: C_21  and  N_22 
REMARK    7  A    between atoms: N_22  and  C_23 
REMARK    8  A    between atoms: C_26  and  O_27 
ROOT
HETATM    1  N   UNL     1      25.894  45.276  51.994  1.00  0.00    -0.338 N 
HETATM    2  C   UNL     1      25.950  46.576  51.479  1.00  0.00     0.239 C 
HETATM    3  O   UNL     1      25.805  47.558  52.218  1.00  0.00    -0.271 OA
ENDROOT
BRANCH   1   4
HETATM    4  C   UNL     1      25.850  45.184  53.457  1.00  0.00     0.165 C 
BRANCH   4   5
HETATM    5  C   UNL     1      27.176  44.814  54.085  1.00  0.00    -0.040 A 
HETATM    6  C   UNL     1      27.728  43.543  53.880  1.00  0.00     0.009 A 
HETATM    7  C   UNL     1      28.973  43.215  54.420  1.00  0.00     0.007 A 
HETATM    8  C   UNL     1      29.686  44.149  55.181  1.00  0.00    -0.062 A 
HETATM    9  C   UNL     1      31.031  43.789  55.740  1.00  0.00     0.048 C 
HETATM   10  C   UNL     1      29.124  45.408  55.413  1.00  0.00     0.007 A 
HETATM   11  C   UNL     1      27.877  45.736  54.876  1.00  0.00     0.009 A 
ENDBRANCH   4   5
ENDBRANCH   1   4
BRANCH   1  12
HETATM   12  C   UNL     1      25.198  44.202  51.255  1.00  0.00     0.229 C 
BRANCH  12  13
HETATM   13  C   UNL     1      26.043  43.450  50.231  1.00  0.00     0.240 C 
HETATM   14  N   UNL     1      25.567  43.200  48.974  1.00  0.00    -0.326 N 
HETATM   15  H   UNL     1      26.308  42.844  48.378  1.00  0.00     0.169 HD
HETATM   16  O   UNL     1      27.201  43.097  50.486  1.00  0.00    -0.271 OA
BRANCH  14  17
HETATM   17  C   UNL     1      24.319  43.388  48.351  1.00  0.00     0.034 A 
HETATM   18  C   UNL     1      23.712  42.243  47.819  1.00  0.00     0.032 A 
HETATM   19  C   UNL     1      22.472  42.318  47.173  1.00  0.00     0.039 A 
HETATM   20  C   UNL     1      21.810  43.536  47.051  1.00  0.00     0.068 A 
HETATM   21  C   UNL     1      22.384  44.671  47.613  1.00  0.00     0.039 A 
HETATM   22  C   UNL     1      23.628  44.595  48.258  1.00  0.00     0.032 A 
BRANCH  20  23
HETATM   23  O   UNL     1      20.615  43.488  46.389  1.00  0.00    -0.356 OA
HETATM   24  C   UNL     1      20.286  42.251  45.766  1.00  0.00     0.210 C 
ENDBRANCH  20  23
ENDBRANCH  14  17
ENDBRANCH  12  13
ENDBRANCH   1  12
BRANCH   2  25
HETATM   25  C   UNL     1      26.422  46.791  50.057  1.00  0.00     0.250 C 
BRANCH  25  26
HETATM   26  N   UNL     1      26.071  48.044  49.431  1.00  0.00    -0.263 N 
HETATM   27  N   UNL     1      27.007  48.895  48.969  1.00  0.00     0.006 NA
HETATM   28  N   UNL     1      26.378  49.940  48.447  1.00  0.00    -0.158 NA
HETATM   29  C   UNL     1      25.029  49.711  48.528  1.00  0.00     0.102 A 
HETATM   30  C   UNL     1      24.803  48.490  49.148  1.00  0.00     0.079 A 
HETATM   31  C   UNL     1      23.939  50.478  48.093  1.00  0.00     0.035 A 
HETATM   32  C   UNL     1      23.521  47.968  49.360  1.00  0.00     0.033 A 
HETATM   33  C   UNL     1      22.444  48.739  48.910  1.00  0.00     0.002 A 
HETATM   34  C   UNL     1      22.646  49.973  48.289  1.00  0.00     0.002 A 
ENDBRANCH  25  26
ENDBRANCH   2  25
TORSDOF 8
ENDMDL
MODEL 6
REMARK VINA RESULT:      -9.2      2.185      6.853
REMARK  8 active torsions:
REMARK  status: ('A' for Active; 'I' for Inactive)
REMARK    1  A    between atoms: C_5  and  C_6 
REMARK    2  A    between atoms: C_6  and  N_7 
REMARK       I    between atoms: N_7  and  C_8 
REMARK    3  A    between atoms: N_7  and  C_20 
REMARK    4  A    between atoms: C_8  and  C_9 
REMARK    5  A    between atoms: C_9  and  N_10 
REMARK    6  A    between atoms: C_20  and  C_21 
REMARK       I    between atoms: C_21  and  N_22 
REMARK    7  A    between atoms: N_22  and  C_23 
REMARK    8  A    between atoms: C_26  and  O_27 
ROOT
HETATM    1  N   UNL     1      24.389  46.706  50.307  1.00  0.00    -0.338 N 
HETATM    2  C   UNL     1      25.321  46.955  51.320  1.00  0.00     0.239 C 
HETATM    3  O   UNL     1      26.295  47.692  51.120  1.00  0.00    -0.271 OA
ENDROOT
BRANCH   1   4
HETATM    4  C   UNL     1      24.546  47.520  49.098  1.00  0.00     0.165 C 
BRANCH   4   5
HETATM    5  C   UNL     1      23.490  48.593  48.942  1.00  0.00    -0.040 A 
HETATM    6  C   UNL     1      22.131  48.260  48.986  1.00  0.00     0.009 A 
HETATM    7  C   UNL     1      21.154  49.253  48.889  1.00  0.00     0.007 A 
HETATM    8  C   UNL     1      21.518  50.596  48.739  1.00  0.00    -0.062 A 
HETATM    9  C   UNL     1      20.459  51.655  48.654  1.00  0.00     0.048 C 
HETATM   10  C   UNL     1      22.875  50.928  48.664  1.00  0.00     0.007 A 
HETATM   11  C   UNL     1      23.852  49.934  48.758  1.00  0.00     0.009 A 
ENDBRANCH   4   5
ENDBRANCH   1   4
BRANCH   1  12
HETATM   12  C   UNL     1      23.834  45.351  50.110  1.00  0.00     0.229 C 
BRANCH  12  13
HETATM   13  C   UNL     1      24.027  44.754  48.719  1.00  0.00     0.240 C 
HETATM   14  N   UNL     1      24.775  43.623  48.536  1.00  0.00    -0.326 N 
HETATM   15  H   UNL     1      24.663  43.274  47.590  1.00  0.00     0.169 HD
HETATM   16  O   UNL     1      23.468  45.237  47.727  1.00  0.00    -0.271 OA
BRANCH  14  17
HETATM   17  C   UNL     1      25.587  42.847  49.385  1.00  0.00     0.034 A 
HETATM   18  C   UNL     1      26.727  43.478  49.900  1.00  0.00     0.032 A 
HETATM   19  C   UNL     1      27.607  42.795  50.748  1.00  0.00     0.039 A 
HETATM   20  C   UNL     1      27.364  41.472  51.105  1.00  0.00     0.068 A 
HETATM   21  C   UNL     1      26.213  40.850  50.633  1.00  0.00     0.039 A 
HETATM   22  C   UNL     1      25.332  41.534  49.780  1.00  0.00     0.032 A 
BRANCH  20  23
HETATM   23  O   UNL     1      28.298  40.906  51.927  1.00  0.00    -0.356 OA
HETATM   24  C   UNL     1      28.138  41.140  53.322  1.00  0.00     0.210 C 
ENDBRANCH  20  23
ENDBRANCH  14  17
ENDBRANCH  12  13
ENDBRANCH   1  12
BRANCH   2  25
HETATM   25  C   UNL     1      25.018  46.510  52.735  1.00  0.00     0.250 C 
BRANCH  25  26
HETATM   26  N   UNL     1      25.959  46.892  53.761  1.00  0.00    -0.263 N 
HETATM   27  N   UNL     1      25.802  48.015  54.488  1.00  0.00     0.006 NA
HETATM   28  N   UNL     1      26.814  48.083  55.344  1.00  0.00    -0.158 NA
HETATM   29  C   UNL     1      27.579  46.957  55.193  1.00  0.00     0.102 A 
HETATM   30  C   UNL     1      27.045  46.165  54.185  1.00  0.00     0.079 A 
HETATM   31  C   UNL     1      28.729  46.529  55.872  1.00  0.00     0.035 A 
HETATM   32  C   UNL     1      27.596  44.936  53.807  1.00  0.00     0.033 A 
HETATM   33  C   UNL     1      28.736  44.516  54.502  1.00  0.00     0.002 A 
HETATM   34  C   UNL     1      29.296  45.297  55.515  1.00  0.00     0.002 A 
ENDBRANCH  25  26
ENDBRANCH   2  25
TORSDOF 8
ENDMDL
MODEL 7
REMARK VINA RESULT:      -9.1      2.259      3.060
REMARK  8 active torsions:
REMARK  status: ('A' for Active; 'I' for Inactive)
REMARK    1  A    between atoms: C_5  and  C_6 
REMARK    2  A    between atoms: C_6  and  N_7 
REMARK       I    between atoms: N_7  and  C_8 
REMARK    3  A    between atoms: N_7  and  C_20 
REMARK    4  A    between atoms: C_8  and  C_9 
REMARK    5  A    between atoms: C_9  and  N_10 
REMARK    6  A    between atoms: C_20  and  C_21 
REMARK       I    between atoms: C_21  and  N_22 
REMARK    7  A    between atoms: N_22  and  C_23 
REMARK    8  A    between atoms: C_26  and  O_27 
ROOT
HETATM    1  N   UNL     1      24.945  46.002  49.438  1.00  0.00    -0.338 N 
HETATM    2  C   UNL     1      24.194  47.145  49.733  1.00  0.00     0.239 C 
HETATM    3  O   UNL     1      24.690  48.085  50.367  1.00  0.00    -0.271 OA
ENDROOT
BRANCH   1   4
HETATM    4  C   UNL     1      26.374  46.093  49.756  1.00  0.00     0.165 C 
BRANCH   4   5
HETATM    5  C   UNL     1      26.786  45.267  50.955  1.00  0.00    -0.040 A 
HETATM    6  C   UNL     1      26.305  45.584  52.232  1.00  0.00     0.009 A 
HETATM    7  C   UNL     1      26.646  44.796  53.334  1.00  0.00     0.007 A 
HETATM    8  C   UNL     1      27.480  43.682  53.180  1.00  0.00    -0.062 A 
HETATM    9  C   UNL     1      27.824  42.834  54.369  1.00  0.00     0.048 C 
HETATM   10  C   UNL     1      27.986  43.382  51.912  1.00  0.00     0.007 A 
HETATM   11  C   UNL     1      27.648  44.172  50.811  1.00  0.00     0.009 A 
ENDBRANCH   4   5
ENDBRANCH   1   4
BRANCH   1  12
HETATM   12  C   UNL     1      24.343  44.657  49.538  1.00  0.00     0.229 C 
BRANCH  12  13
HETATM   13  C   UNL     1      24.142  43.922  48.216  1.00  0.00     0.240 C 
HETATM   14  N   UNL     1      24.688  42.685  48.010  1.00  0.00    -0.326 N 
HETATM   15  H   UNL     1      24.324  42.275  47.156  1.00  0.00     0.169 HD
HETATM   16  O   UNL     1      23.435  44.393  47.317  1.00  0.00    -0.271 OA
BRANCH  14  17
HETATM   17  C   UNL     1      25.572  41.877  48.749  1.00  0.00     0.034 A 
HETATM   18  C   UNL     1      26.836  41.662  48.184  1.00  0.00     0.032 A 
HETATM   19  C   UNL     1      27.790  40.868  48.831  1.00  0.00     0.039 A 
HETATM   20  C   UNL     1      27.505  40.278  50.060  1.00  0.00     0.068 A 
HETATM   21  C   UNL     1      26.269  40.520  50.649  1.00  0.00     0.039 A 
HETATM   22  C   UNL     1      25.312  41.314  49.997  1.00  0.00     0.032 A 
BRANCH  20  23
HETATM   23  O   UNL     1      28.508  39.515  50.589  1.00  0.00    -0.356 OA
HETATM   24  C   UNL     1      29.155  38.615  49.697  1.00  0.00     0.210 C 
ENDBRANCH  20  23
ENDBRANCH  14  17
ENDBRANCH  12  13
ENDBRANCH   1  12
BRANCH   2  25
HETATM   25  C   UNL     1      22.844  47.336  49.077  1.00  0.00     0.250 C 
BRANCH  25  26
HETATM   26  N   UNL     1      22.523  48.663  48.605  1.00  0.00    -0.263 N 
HETATM   27  N   UNL     1      23.266  49.283  47.669  1.00  0.00     0.006 NA
HETATM   28  N   UNL     1      22.718  50.471  47.444  1.00  0.00    -0.158 NA
HETATM   29  C   UNL     1      21.582  50.569  48.205  1.00  0.00     0.102 A 
HETATM   30  C   UNL     1      21.426  49.411  48.956  1.00  0.00     0.079 A 
HETATM   31  C   UNL     1      20.630  51.593  48.308  1.00  0.00     0.035 A 
HETATM   32  C   UNL     1      20.345  49.203  49.821  1.00  0.00     0.033 A 
HETATM   33  C   UNL     1      19.398  50.229  49.904  1.00  0.00     0.002 A 
HETATM   34  C   UNL     1      19.535  51.405  49.163  1.00  0.00     0.002 A 
ENDBRANCH  25  26
ENDBRANCH   2  25
TORSDOF 8
ENDMDL
MODEL 8
REMARK VINA RESULT:      -8.9      9.824     12.726
REMARK  8 active torsions:
REMARK  status: ('A' for Active; 'I' for Inactive)
REMARK    1  A    between atoms: C_5  and  C_6 
REMARK    2  A    between atoms: C_6  and  N_7 
REMARK       I    between atoms: N_7  and  C_8 
REMARK    3  A    between atoms: N_7  and  C_20 
REMARK    4  A    between atoms: C_8  and  C_9 
REMARK    5  A    between atoms: C_9  and  N_10 
REMARK    6  A    between atoms: C_20  and  C_21 
REMARK       I    between atoms: C_21  and  N_22 
REMARK    7  A    between atoms: N_22  and  C_23 
REMARK    8  A    between atoms: C_26  and  O_27 
ROOT
HETATM    1  N   UNL     1      28.024  46.899  40.053  1.00  0.00    -0.338 N 
HETATM    2  C   UNL     1      27.103  47.654  39.317  1.00  0.00     0.239 C 
HETATM    3  O   UNL     1      26.456  47.142  38.394  1.00  0.00    -0.271 OA
ENDROOT
BRANCH   1   4
HETATM    4  C   UNL     1      28.011  45.458  39.780  1.00  0.00     0.165 C 
BRANCH   4   5
HETATM    5  C   UNL     1      27.298  44.644  40.837  1.00  0.00    -0.040 A 
HETATM    6  C   UNL     1      26.432  45.265  41.746  1.00  0.00     0.009 A 
HETATM    7  C   UNL     1      25.736  44.510  42.693  1.00  0.00     0.007 A 
HETATM    8  C   UNL     1      25.900  43.121  42.754  1.00  0.00    -0.062 A 
HETATM    9  C   UNL     1      25.134  42.320  43.764  1.00  0.00     0.048 C 
HETATM   10  C   UNL     1      26.788  42.502  41.869  1.00  0.00     0.007 A 
HETATM   11  C   UNL     1      27.486  43.257  40.924  1.00  0.00     0.009 A 
ENDBRANCH   4   5
ENDBRANCH   1   4
BRANCH   1  12
HETATM   12  C   UNL     1      29.327  47.474  40.445  1.00  0.00     0.229 C 
BRANCH  12  13
HETATM   13  C   UNL     1      30.262  47.838  39.295  1.00  0.00     0.240 C 
HETATM   14  N   UNL     1      31.335  48.662  39.495  1.00  0.00    -0.326 N 
HETATM   15  H   UNL     1      31.937  48.665  38.678  1.00  0.00     0.169 HD
HETATM   16  O   UNL     1      30.113  47.354  38.166  1.00  0.00    -0.271 OA
BRANCH  14  17
HETATM   17  C   UNL     1      31.783  49.427  40.588  1.00  0.00     0.034 A 
HETATM   18  C   UNL     1      32.441  50.625  40.279  1.00  0.00     0.032 A 
HETATM   19  C   UNL     1      32.933  51.459  41.289  1.00  0.00     0.039 A 
HETATM   20  C   UNL     1      32.773  51.119  42.630  1.00  0.00     0.068 A 
HETATM   21  C   UNL     1      32.084  49.953  42.948  1.00  0.00     0.039 A 
HETATM   22  C   UNL     1      31.594  49.116  41.934  1.00  0.00     0.032 A 
BRANCH  20  23
HETATM   23  O   UNL     1      33.306  52.003  43.526  1.00  0.00    -0.356 OA
HETATM   24  C   UNL     1      32.702  52.038  44.814  1.00  0.00     0.210 C 
ENDBRANCH  20  23
ENDBRANCH  14  17
ENDBRANCH  12  13
ENDBRANCH   1  12
BRANCH   2  25
HETATM   25  C   UNL     1      26.725  49.038  39.799  1.00  0.00     0.250 C 
BRANCH  25  26
HETATM   26  N   UNL     1      27.504  50.145  39.297  1.00  0.00    -0.263 N 
HETATM   27  N   UNL     1      27.530  50.462  37.989  1.00  0.00     0.006 NA
HETATM   28  N   UNL     1      28.321  51.519  37.847  1.00  0.00    -0.158 NA
HETATM   29  C   UNL     1      28.745  51.905  39.091  1.00  0.00     0.102 A 
HETATM   30  C   UNL     1      28.225  51.043  40.047  1.00  0.00     0.079 A 
HETATM   31  C   UNL     1      29.559  52.974  39.494  1.00  0.00     0.035 A 
HETATM   32  C   UNL     1      28.465  51.189  41.418  1.00  0.00     0.033 A 
HETATM   33  C   UNL     1      29.269  52.267  41.806  1.00  0.00     0.002 A 
HETATM   34  C   UNL     1      29.809  53.144  40.863  1.00  0.00     0.002 A 
ENDBRANCH  25  26
ENDBRANCH   2  25
TORSDOF 8
ENDMDL
MODEL 9
REMARK VINA RESULT:      -8.8     11.845     13.379
REMARK  8 active torsions:
REMARK  status: ('A' for Active; 'I' for Inactive)
REMARK    1  A    between atoms: C_5  and  C_6 
REMARK    2  A    between atoms: C_6  and  N_7 
REMARK       I    between atoms: N_7  and  C_8 
REMARK    3  A    between atoms: N_7  and  C_20 
REMARK    4  A    between atoms: C_8  and  C_9 
REMARK    5  A    between atoms: C_9  and  N_10 
REMARK    6  A    between atoms: C_20  and  C_21 
REMARK       I    between atoms: C_21  and  N_22 
REMARK    7  A    between atoms: N_22  and  C_23 
REMARK    8  A    between atoms: C_26  and  O_27 
ROOT
HETATM    1  N   UNL     1      32.885  50.694  41.957  1.00  0.00    -0.338 N 
HETATM    2  C   UNL     1      32.525  51.614  40.965  1.00  0.00     0.239 C 
HETATM    3  O   UNL     1      32.499  52.828  41.204  1.00  0.00    -0.271 OA
ENDROOT
BRANCH   1   4
HETATM    4  C   UNL     1      33.401  51.282  43.198  1.00  0.00     0.165 C 
BRANCH   4   5
HETATM    5  C   UNL     1      34.900  51.489  43.197  1.00  0.00    -0.040 A 
HETATM    6  C   UNL     1      35.721  50.723  42.360  1.00  0.00     0.009 A 
HETATM    7  C   UNL     1      37.099  50.942  42.323  1.00  0.00     0.007 A 
HETATM    8  C   UNL     1      37.683  51.927  43.129  1.00  0.00    -0.062 A 
HETATM    9  C   UNL     1      39.163  52.164  43.066  1.00  0.00     0.048 C 
HETATM   10  C   UNL     1      36.871  52.672  43.989  1.00  0.00     0.007 A 
HETATM   11  C   UNL     1      35.492  52.450  44.028  1.00  0.00     0.009 A 
ENDBRANCH   4   5
ENDBRANCH   1   4
BRANCH   1  12
HETATM   12  C   UNL     1      32.158  49.415  42.098  1.00  0.00     0.229 C 
BRANCH  12  13
HETATM   13  C   UNL     1      32.716  48.246  41.292  1.00  0.00     0.240 C 
HETATM   14  N   UNL     1      31.927  47.559  40.411  1.00  0.00    -0.326 N 
HETATM   15  H   UNL     1      32.489  46.932  39.845  1.00  0.00     0.169 HD
HETATM   16  O   UNL     1      33.908  47.923  41.365  1.00  0.00    -0.271 OA
BRANCH  14  17
HETATM   17  C   UNL     1      30.553  47.594  40.105  1.00  0.00     0.034 A 
HETATM   18  C   UNL     1      30.222  47.678  38.746  1.00  0.00     0.032 A 
HETATM   19  C   UNL     1      28.886  47.726  38.331  1.00  0.00     0.039 A 
HETATM   20  C   UNL     1      27.853  47.683  39.263  1.00  0.00     0.068 A 
HETATM   21  C   UNL     1      28.170  47.558  40.611  1.00  0.00     0.039 A 
HETATM   22  C   UNL     1      29.510  47.513  41.026  1.00  0.00     0.032 A 
BRANCH  20  23
HETATM   23  O   UNL     1      26.591  47.750  38.741  1.00  0.00    -0.356 OA
HETATM   24  C   UNL     1      26.486  48.215  37.399  1.00  0.00     0.210 C 
ENDBRANCH  20  23
ENDBRANCH  14  17
ENDBRANCH  12  13
ENDBRANCH   1  12
BRANCH   2  25
HETATM   25  C   UNL     1      32.394  51.146  39.532  1.00  0.00     0.250 C 
BRANCH  25  26
HETATM   26  N   UNL     1      31.093  51.264  38.918  1.00  0.00    -0.263 N 
HETATM   27  N   UNL     1      30.941  51.339  37.582  1.00  0.00     0.006 NA
HETATM   28  N   UNL     1      29.642  51.431  37.330  1.00  0.00    -0.158 NA
HETATM   29  C   UNL     1      28.968  51.351  38.520  1.00  0.00     0.102 A 
HETATM   30  C   UNL     1      29.880  51.232  39.561  1.00  0.00     0.079 A 
HETATM   31  C   UNL     1      27.595  51.361  38.802  1.00  0.00     0.035 A 
HETATM   32  C   UNL     1      29.496  51.110  40.902  1.00  0.00     0.033 A 
HETATM   33  C   UNL     1      28.122  51.110  41.166  1.00  0.00     0.002 A 
HETATM   34  C   UNL     1      27.185  51.235  40.137  1.00  0.00     0.002 A 
ENDBRANCH  25  26
ENDBRANCH   2  25
TORSDOF 8
ENDMDL
MODEL 10
REMARK VINA RESULT:      -8.8      3.157      8.351
REMARK  8 active torsions:
REMARK  status: ('A' for Active; 'I' for Inactive)
REMARK    1  A    between atoms: C_5  and  C_6 
REMARK    2  A    between atoms: C_6  and  N_7 
REMARK       I    between atoms: N_7  and  C_8 
REMARK    3  A    between atoms: N_7  and  C_20 
REMARK    4  A    between atoms: C_8  and  C_9 
REMARK    5  A    between atoms: C_9  and  N_10 
REMARK    6  A    between atoms: C_20  and  C_21 
REMARK       I    between atoms: C_21  and  N_22 
REMARK    7  A    between atoms: N_22  and  C_23 
REMARK    8  A    between atoms: C_26  and  O_27 
ROOT
HETATM    1  N   UNL     1      24.749  46.615  50.539  1.00  0.00    -0.338 N 
HETATM    2  C   UNL     1      25.619  47.028  51.555  1.00  0.00     0.239 C 
HETATM    3  O   UNL     1      26.542  47.818  51.319  1.00  0.00    -0.271 OA
ENDROOT
BRANCH   1   4
HETATM    4  C   UNL     1      24.895  47.326  49.264  1.00  0.00     0.165 C 
BRANCH   4   5
HETATM    5  C   UNL     1      23.846  48.393  49.037  1.00  0.00    -0.040 A 
HETATM    6  C   UNL     1      22.484  48.078  49.127  1.00  0.00     0.009 A 
HETATM    7  C   UNL     1      21.514  49.069  48.964  1.00  0.00     0.007 A 
HETATM    8  C   UNL     1      21.888  50.392  48.700  1.00  0.00    -0.062 A 
HETATM    9  C   UNL     1      20.836  51.450  48.545  1.00  0.00     0.048 C 
HETATM   10  C   UNL     1      23.245  50.704  48.579  1.00  0.00     0.007 A 
HETATM   11  C   UNL     1      24.215  49.712  48.739  1.00  0.00     0.009 A 
ENDBRANCH   4   5
ENDBRANCH   1   4
BRANCH   1  12
HETATM   12  C   UNL     1      24.307  45.209  50.451  1.00  0.00     0.229 C 
BRANCH  12  13
HETATM   13  C   UNL     1      24.773  44.445  49.215  1.00  0.00     0.240 C 
HETATM   14  N   UNL     1      23.991  44.373  48.096  1.00  0.00    -0.326 N 
HETATM   15  H   UNL     1      24.514  43.977  47.322  1.00  0.00     0.169 HD
HETATM   16  O   UNL     1      25.893  43.921  49.165  1.00  0.00    -0.271 OA
BRANCH  14  17
HETATM   17  C   UNL     1      22.675  44.778  47.801  1.00  0.00     0.034 A 
HETATM   18  C   UNL     1      22.473  45.362  46.544  1.00  0.00     0.032 A 
HETATM   19  C   UNL     1      21.205  45.808  46.151  1.00  0.00     0.039 A 
HETATM   20  C   UNL     1      20.111  45.673  47.003  1.00  0.00     0.068 A 
HETATM   21  C   UNL     1      20.294  45.057  48.236  1.00  0.00     0.039 A 
HETATM   22  C   UNL     1      21.566  44.613  48.630  1.00  0.00     0.032 A 
BRANCH  20  23
HETATM   23  O   UNL     1      18.929  46.156  46.517  1.00  0.00    -0.356 OA
HETATM   24  C   UNL     1      18.417  47.325  47.148  1.00  0.00     0.210 C 
ENDBRANCH  20  23
ENDBRANCH  14  17
ENDBRANCH  12  13
ENDBRANCH   1  12
BRANCH   2  25
HETATM   25  C   UNL     1      25.292  46.691  52.994  1.00  0.00     0.250 C 
BRANCH  25  26
HETATM   26  N   UNL     1      26.375  46.757  53.947  1.00  0.00    -0.263 N 
HETATM   27  N   UNL     1      26.481  47.766  54.833  1.00  0.00     0.006 NA
HETATM   28  N   UNL     1      27.563  47.541  55.569  1.00  0.00    -0.158 NA
HETATM   29  C   UNL     1      28.105  46.345  55.178  1.00  0.00     0.102 A 
HETATM   30  C   UNL     1      27.352  45.811  54.140  1.00  0.00     0.079 A 
HETATM   31  C   UNL     1      29.220  45.641  55.656  1.00  0.00     0.035 A 
HETATM   32  C   UNL     1      27.645  44.582  53.538  1.00  0.00     0.033 A 
HETATM   33  C   UNL     1      28.754  43.887  54.033  1.00  0.00     0.002 A 
HETATM   34  C   UNL     1      29.530  44.405  55.072  1.00  0.00     0.002 A 
ENDBRANCH  25  26
ENDBRANCH   2  25
TORSDOF 8
ENDMDL
