MODEL 1
REMARK VINA RESULT:      -8.6      0.000      0.000
REMARK  6 active torsions:
REMARK  status: ('A' for Active; 'I' for Inactive)
REMARK    1  A    between atoms: C_2  and  C_3 
REMARK    2  A    between atoms: C_3  and  N_4 
REMARK    3  A    between atoms: C_3  and  C_11 
REMARK    4  A    between atoms: N_4  and  C_5 
REMARK       I    between atoms: C_11  and  N_12 
REMARK    5  A    between atoms: N_12  and  N_13 
REMARK    6  A    between atoms: C_14  and  C_15 
ROOT
HETATM    1  C   UNL     1      27.258  43.980  50.428  1.00  0.00     0.260 C 
HETATM    2  N   UNL     1      26.906  45.291  50.764  1.00  0.00    -0.246 N 
HETATM    3  O   UNL     1      27.097  43.473  49.320  1.00  0.00    -0.269 OA
HETATM    4  H   UNL     1      27.307  45.679  51.615  1.00  0.00     0.192 HD
ENDROOT
BRANCH   2   5
HETATM    5  N   UNL     1      26.458  46.230  49.867  1.00  0.00    -0.184 NA
HETATM    6  C   UNL     1      26.525  47.472  50.230  1.00  0.00     0.152 C 
BRANCH   6   7
HETATM    7  C   UNL     1      26.021  48.508  49.351  1.00  0.00     0.011 A 
HETATM    8  C   UNL     1      24.647  48.807  49.075  1.00  0.00     0.004 A 
HETATM    9  C   UNL     1      24.624  49.869  48.170  1.00  0.00     0.043 A 
HETATM   10  C   UNL     1      23.416  48.275  49.517  1.00  0.00     0.014 A 
HETATM   11  C   UNL     1      23.435  50.424  47.682  1.00  0.00     0.030 A 
HETATM   12  N   UNL     1      25.932  50.200  47.901  1.00  0.00    -0.364 N 
HETATM   13  C   UNL     1      22.230  49.880  48.139  1.00  0.00     0.002 A 
HETATM   14  C   UNL     1      22.219  48.822  49.043  1.00  0.00     0.001 A 
HETATM   15  H   UNL     1      26.218  50.935  47.269  1.00  0.00     0.165 HD
HETATM   16  C   UNL     1      26.780  49.395  48.610  1.00  0.00     0.102 A 
ENDBRANCH   6   7
ENDBRANCH   2   5
BRANCH   1  17
HETATM   17  C   UNL     1      27.870  43.227  51.638  1.00  0.00     0.175 C 
BRANCH  17  18
HETATM   18  C   UNL     1      27.345  41.787  51.737  1.00  0.00     0.030 C 
HETATM   19  C   UNL     1      28.469  40.781  51.957  1.00  0.00     0.007 C 
ENDBRANCH  17  18
BRANCH  17  20
HETATM   20  N   UNL     1      27.534  43.972  52.860  1.00  0.00    -0.377 N 
HETATM   21  H   UNL     1      26.636  44.446  52.867  1.00  0.00     0.160 HD
BRANCH  20  22
HETATM   22  C   UNL     1      28.408  44.263  53.889  1.00  0.00     0.028 A 
HETATM   23  C   UNL     1      29.441  43.356  54.172  1.00  0.00     0.029 A 
HETATM   24  C   UNL     1      30.368  43.599  55.189  1.00  0.00     0.002 A 
HETATM   25  C   UNL     1      30.286  44.767  55.938  1.00  0.00     0.000 A 
HETATM   26  C   UNL     1      29.280  45.688  55.666  1.00  0.00     0.002 A 
HETATM   27  C   UNL     1      28.351  45.435  54.649  1.00  0.00     0.029 A 
ENDBRANCH  20  22
ENDBRANCH  17  20
ENDBRANCH   1  17
TORSDOF 6
ENDMDL
MODEL 2
REMARK VINA RESULT:      -8.5      2.242      8.576
REMARK  6 active torsions:
REMARK  status: ('A' for Active; 'I' for Inactive)
REMARK    1  A    between atoms: C_2  and  C_3 
REMARK    2  A    between atoms: C_3  and  N_4 
REMARK    3  A    between atoms: C_3  and  C_11 
REMARK    4  A    between atoms: N_4  and  C_5 
REMARK       I    between atoms: C_11  and  N_12 
REMARK    5  A    between atoms: N_12  and  N_13 
REMARK    6  A    between atoms: C_14  and  C_15 
ROOT
HETATM    1  C   UNL     1      25.384  45.196  52.524  1.00  0.00     0.260 C 
HETATM    2  N   UNL     1      26.576  45.758  52.991  1.00  0.00    -0.246 N 
HETATM    3  O   UNL     1      24.765  44.295  53.087  1.00  0.00    -0.269 OA
HETATM    4  H   UNL     1      26.861  46.649  52.590  1.00  0.00     0.192 HD
ENDROOT
BRANCH   2   5
HETATM    5  N   UNL     1      27.145  45.473  54.208  1.00  0.00    -0.184 NA
HETATM    6  C   UNL     1      28.064  46.282  54.634  1.00  0.00     0.152 C 
BRANCH   6   7
HETATM    7  C   UNL     1      28.740  46.010  55.886  1.00  0.00     0.011 A 
HETATM    8  C   UNL     1      29.786  45.057  56.107  1.00  0.00     0.004 A 
HETATM    9  C   UNL     1      30.133  45.123  57.458  1.00  0.00     0.043 A 
HETATM   10  C   UNL     1      30.478  44.145  55.281  1.00  0.00     0.014 A 
HETATM   11  C   UNL     1      31.132  44.322  58.024  1.00  0.00     0.030 A 
HETATM   12  N   UNL     1      29.325  46.074  58.037  1.00  0.00    -0.364 N 
HETATM   13  C   UNL     1      31.804  43.430  57.182  1.00  0.00     0.002 A 
HETATM   14  C   UNL     1      31.483  43.341  55.830  1.00  0.00     0.001 A 
HETATM   15  H   UNL     1      29.351  46.329  59.015  1.00  0.00     0.165 HD
HETATM   16  C   UNL     1      28.490  46.619  57.102  1.00  0.00     0.102 A 
ENDBRANCH   6   7
ENDBRANCH   2   5
BRANCH   1  17
HETATM   17  C   UNL     1      24.936  45.842  51.187  1.00  0.00     0.175 C 
BRANCH  17  18
HETATM   18  C   UNL     1      24.733  44.790  50.086  1.00  0.00     0.030 C 
HETATM   19  C   UNL     1      26.054  44.189  49.618  1.00  0.00     0.007 C 
ENDBRANCH  17  18
BRANCH  17  20
HETATM   20  N   UNL     1      25.964  46.809  50.776  1.00  0.00    -0.377 N 
HETATM   21  H   UNL     1      26.832  46.796  51.303  1.00  0.00     0.160 HD
BRANCH  20  22
HETATM   22  C   UNL     1      25.772  47.863  49.905  1.00  0.00     0.028 A 
HETATM   23  C   UNL     1      26.897  48.539  49.408  1.00  0.00     0.029 A 
HETATM   24  C   UNL     1      26.774  49.603  48.510  1.00  0.00     0.002 A 
HETATM   25  C   UNL     1      25.514  50.005  48.081  1.00  0.00     0.000 A 
HETATM   26  C   UNL     1      24.385  49.342  48.549  1.00  0.00     0.002 A 
HETATM   27  C   UNL     1      24.517  48.279  49.451  1.00  0.00     0.029 A 
ENDBRANCH  20  22
ENDBRANCH  17  20
ENDBRANCH   1  17
TORSDOF 6
ENDMDL
MODEL 3
REMARK VINA RESULT:      -8.5      1.587      1.858
REMARK  6 active torsions:
REMARK  status: ('A' for Active; 'I' for Inactive)
REMARK    1  A    between atoms: C_2  and  C_3 
REMARK    2  A    between atoms: C_3  and  N_4 
REMARK    3  A    between atoms: C_3  and  C_11 
REMARK    4  A    between atoms: N_4  and  C_5 
REMARK       I    between atoms: C_11  and  N_12 
REMARK    5  A    between atoms: N_12  and  N_13 
REMARK    6  A    between atoms: C_14  and  C_15 
ROOT
HETATM    1  C   UNL     1      26.243  45.155  52.243  1.00  0.00     0.260 C 
HETATM    2  N   UNL     1      26.459  46.529  52.395  1.00  0.00    -0.246 N 
HETATM    3  O   UNL     1      25.492  44.652  51.411  1.00  0.00    -0.269 OA
HETATM    4  H   UNL     1      27.274  46.817  52.933  1.00  0.00     0.192 HD
ENDROOT
BRANCH   2   5
HETATM    5  N   UNL     1      25.965  47.492  51.550  1.00  0.00    -0.184 NA
HETATM    6  C   UNL     1      26.406  47.490  50.331  1.00  0.00     0.152 C 
BRANCH   6   7
HETATM    7  C   UNL     1      25.962  48.510  49.403  1.00  0.00     0.011 A 
HETATM    8  C   UNL     1      24.608  48.837  49.069  1.00  0.00     0.004 A 
HETATM    9  C   UNL     1      24.647  49.871  48.132  1.00  0.00     0.043 A 
HETATM   10  C   UNL     1      23.348  48.352  49.482  1.00  0.00     0.014 A 
HETATM   11  C   UNL     1      23.491  50.441  47.584  1.00  0.00     0.030 A 
HETATM   12  N   UNL     1      25.971  50.157  47.900  1.00  0.00    -0.364 N 
HETATM   13  C   UNL     1      22.256  49.945  48.013  1.00  0.00     0.002 A 
HETATM   14  C   UNL     1      22.183  48.916  48.949  1.00  0.00     0.001 A 
HETATM   15  H   UNL     1      26.300  50.864  47.256  1.00  0.00     0.165 HD
HETATM   16  C   UNL     1      26.771  49.353  48.664  1.00  0.00     0.102 A 
ENDBRANCH   6   7
ENDBRANCH   2   5
BRANCH   1  17
HETATM   17  C   UNL     1      27.064  44.333  53.271  1.00  0.00     0.175 C 
BRANCH  17  18
HETATM   18  C   UNL     1      26.158  43.478  54.169  1.00  0.00     0.030 C 
HETATM   19  C   UNL     1      25.067  44.307  54.838  1.00  0.00     0.007 C 
ENDBRANCH  17  18
BRANCH  17  20
HETATM   20  N   UNL     1      27.846  45.271  54.090  1.00  0.00    -0.377 N 
HETATM   21  H   UNL     1      27.706  46.259  53.903  1.00  0.00     0.160 HD
BRANCH  20  22
HETATM   22  C   UNL     1      28.897  44.929  54.919  1.00  0.00     0.028 A 
HETATM   23  C   UNL     1      29.616  43.757  54.645  1.00  0.00     0.029 A 
HETATM   24  C   UNL     1      30.700  43.363  55.434  1.00  0.00     0.002 A 
HETATM   25  C   UNL     1      31.094  44.147  56.513  1.00  0.00     0.000 A 
HETATM   26  C   UNL     1      30.404  45.321  56.796  1.00  0.00     0.002 A 
HETATM   27  C   UNL     1      29.317  45.707  56.003  1.00  0.00     0.029 A 
ENDBRANCH  20  22
ENDBRANCH  17  20
ENDBRANCH   1  17
TORSDOF 6
ENDMDL
MODEL 4
REMARK VINA RESULT:      -8.4      2.298      8.817
REMARK  6 active torsions:
REMARK  status: ('A' for Active; 'I' for Inactive)
REMARK    1  A    between atoms: C_2  and  C_3 
REMARK    2  A    between atoms: C_3  and  N_4 
REMARK    3  A    between atoms: C_3  and  C_11 
REMARK    4  A    between atoms: N_4  and  C_5 
REMARK       I    between atoms: C_11  and  N_12 
REMARK    5  A    between atoms: N_12  and  N_13 
REMARK    6  A    between atoms: C_14  and  C_15 
ROOT
HETATM    1  C   UNL     1      25.458  47.247  50.843  1.00  0.00     0.260 C 
HETATM    2  N   UNL     1      25.281  46.921  52.192  1.00  0.00    -0.246 N 
HETATM    3  O   UNL     1      26.482  47.731  50.366  1.00  0.00    -0.269 OA
HETATM    4  H   UNL     1      24.506  46.305  52.426  1.00  0.00     0.192 HD
ENDROOT
BRANCH   2   5
HETATM    5  N   UNL     1      26.273  46.974  53.140  1.00  0.00    -0.184 NA
HETATM    6  C   UNL     1      26.741  45.843  53.568  1.00  0.00     0.152 C 
BRANCH   6   7
HETATM    7  C   UNL     1      27.752  45.829  54.605  1.00  0.00     0.011 A 
HETATM    8  C   UNL     1      28.796  44.862  54.773  1.00  0.00     0.004 A 
HETATM    9  C   UNL     1      29.530  45.231  55.902  1.00  0.00     0.043 A 
HETATM   10  C   UNL     1      29.191  43.706  54.065  1.00  0.00     0.014 A 
HETATM   11  C   UNL     1      30.635  44.502  56.359  1.00  0.00     0.030 A 
HETATM   12  N   UNL     1      28.953  46.373  56.404  1.00  0.00    -0.364 N 
HETATM   13  C   UNL     1      31.006  43.364  55.637  1.00  0.00     0.002 A 
HETATM   14  C   UNL     1      30.296  42.970  54.506  1.00  0.00     0.001 A 
HETATM   15  H   UNL     1      29.274  46.863  57.229  1.00  0.00     0.165 HD
HETATM   16  C   UNL     1      27.889  46.747  55.630  1.00  0.00     0.102 A 
ENDBRANCH   6   7
ENDBRANCH   2   5
BRANCH   1  17
HETATM   17  C   UNL     1      24.187  46.933  50.011  1.00  0.00     0.175 C 
BRANCH  17  18
HETATM   18  C   UNL     1      24.181  45.483  49.505  1.00  0.00     0.030 C 
HETATM   19  C   UNL     1      22.910  45.150  48.732  1.00  0.00     0.007 C 
ENDBRANCH  17  18
BRANCH  17  20
HETATM   20  N   UNL     1      24.140  47.864  48.874  1.00  0.00    -0.377 N 
HETATM   21  H   UNL     1      24.902  47.798  48.205  1.00  0.00     0.160 HD
BRANCH  20  22
HETATM   22  C   UNL     1      23.292  48.948  48.757  1.00  0.00     0.028 A 
HETATM   23  C   UNL     1      21.936  48.779  49.077  1.00  0.00     0.029 A 
HETATM   24  C   UNL     1      21.029  49.839  48.995  1.00  0.00     0.002 A 
HETATM   25  C   UNL     1      21.467  51.098  48.602  1.00  0.00     0.000 A 
HETATM   26  C   UNL     1      22.808  51.293  48.294  1.00  0.00     0.002 A 
HETATM   27  C   UNL     1      23.711  50.225  48.373  1.00  0.00     0.029 A 
ENDBRANCH  20  22
ENDBRANCH  17  20
ENDBRANCH   1  17
TORSDOF 6
ENDMDL
MODEL 5
REMARK VINA RESULT:      -8.2      2.410      7.900
REMARK  6 active torsions:
REMARK  status: ('A' for Active; 'I' for Inactive)
REMARK    1  A    between atoms: C_2  and  C_3 
REMARK    2  A    between atoms: C_3  and  N_4 
REMARK    3  A    between atoms: C_3  and  C_11 
REMARK    4  A    between atoms: N_4  and  C_5 
REMARK       I    between atoms: C_11  and  N_12 
REMARK    5  A    between atoms: N_12  and  N_13 
REMARK    6  A    between atoms: C_14  and  C_15 
ROOT
HETATM    1  C   UNL     1      25.810  43.263  51.678  1.00  0.00     0.260 C 
HETATM    2  N   UNL     1      27.092  43.149  52.225  1.00  0.00    -0.246 N 
HETATM    3  O   UNL     1      24.820  43.663  52.287  1.00  0.00    -0.269 OA
HETATM    4  H   UNL     1      27.870  43.051  51.577  1.00  0.00     0.192 HD
ENDROOT
BRANCH   2   5
HETATM    5  N   UNL     1      27.446  43.592  53.476  1.00  0.00    -0.184 NA
HETATM    6  C   UNL     1      28.133  44.690  53.540  1.00  0.00     0.152 C 
BRANCH   6   7
HETATM    7  C   UNL     1      28.581  45.185  54.826  1.00  0.00     0.011 A 
HETATM    8  C   UNL     1      29.627  44.639  55.639  1.00  0.00     0.004 A 
HETATM    9  C   UNL     1      29.713  45.422  56.791  1.00  0.00     0.043 A 
HETATM   10  C   UNL     1      30.516  43.551  55.500  1.00  0.00     0.014 A 
HETATM   11  C   UNL     1      30.639  45.172  57.811  1.00  0.00     0.030 A 
HETATM   12  N   UNL     1      28.753  46.402  56.686  1.00  0.00    -0.364 N 
HETATM   13  C   UNL     1      31.510  44.090  57.646  1.00  0.00     0.002 A 
HETATM   14  C   UNL     1      31.451  43.291  56.508  1.00  0.00     0.001 A 
HETATM   15  H   UNL     1      28.581  47.113  57.385  1.00  0.00     0.165 HD
HETATM   16  C   UNL     1      28.073  46.275  55.507  1.00  0.00     0.102 A 
ENDBRANCH   6   7
ENDBRANCH   2   5
BRANCH   1  17
HETATM   17  C   UNL     1      25.782  42.807  50.196  1.00  0.00     0.175 C 
BRANCH  17  18
HETATM   18  C   UNL     1      26.738  41.632  49.944  1.00  0.00     0.030 C 
HETATM   19  C   UNL     1      26.121  40.295  50.338  1.00  0.00     0.007 C 
ENDBRANCH  17  18
BRANCH  17  20
HETATM   20  N   UNL     1      26.157  43.953  49.355  1.00  0.00    -0.377 N 
HETATM   21  H   UNL     1      26.945  43.814  48.728  1.00  0.00     0.160 HD
BRANCH  20  22
HETATM   22  C   UNL     1      25.689  45.244  49.501  1.00  0.00     0.028 A 
HETATM   23  C   UNL     1      26.609  46.266  49.777  1.00  0.00     0.029 A 
HETATM   24  C   UNL     1      26.203  47.596  49.920  1.00  0.00     0.002 A 
HETATM   25  C   UNL     1      24.861  47.930  49.777  1.00  0.00     0.000 A 
HETATM   26  C   UNL     1      23.933  46.936  49.489  1.00  0.00     0.002 A 
HETATM   27  C   UNL     1      24.347  45.605  49.351  1.00  0.00     0.029 A 
ENDBRANCH  20  22
ENDBRANCH  17  20
ENDBRANCH   1  17
TORSDOF 6
ENDMDL
MODEL 6
REMARK VINA RESULT:      -8.2      2.174      8.511
REMARK  6 active torsions:
REMARK  status: ('A' for Active; 'I' for Inactive)
REMARK    1  A    between atoms: C_2  and  C_3 
REMARK    2  A    between atoms: C_3  and  N_4 
REMARK    3  A    between atoms: C_3  and  C_11 
REMARK    4  A    between atoms: N_4  and  C_5 
REMARK       I    between atoms: C_11  and  N_12 
REMARK    5  A    between atoms: N_12  and  N_13 
REMARK    6  A    between atoms: C_14  and  C_15 
ROOT
HETATM    1  C   UNL     1      25.484  44.772  52.475  1.00  0.00     0.260 C 
HETATM    2  N   UNL     1      26.842  44.575  52.206  1.00  0.00    -0.246 N 
HETATM    3  O   UNL     1      24.897  44.350  53.469  1.00  0.00    -0.269 OA
HETATM    4  H   UNL     1      27.270  45.169  51.500  1.00  0.00     0.192 HD
ENDROOT
BRANCH   2   5
HETATM    5  N   UNL     1      27.732  43.998  53.079  1.00  0.00    -0.184 NA
HETATM    6  C   UNL     1      28.439  44.797  53.815  1.00  0.00     0.152 C 
BRANCH   6   7
HETATM    7  C   UNL     1      29.431  44.254  54.720  1.00  0.00     0.011 A 
HETATM    8  C   UNL     1      29.811  44.784  55.996  1.00  0.00     0.004 A 
HETATM    9  C   UNL     1      30.803  43.952  56.516  1.00  0.00     0.043 A 
HETATM   10  C   UNL     1      29.398  45.895  56.763  1.00  0.00     0.014 A 
HETATM   11  C   UNL     1      31.406  44.175  57.760  1.00  0.00     0.030 A 
HETATM   12  N   UNL     1      31.023  42.958  55.591  1.00  0.00    -0.364 N 
HETATM   13  C   UNL     1      30.975  45.281  58.500  1.00  0.00     0.002 A 
HETATM   14  C   UNL     1      29.986  46.129  58.011  1.00  0.00     0.001 A 
HETATM   15  H   UNL     1      31.699  42.214  55.699  1.00  0.00     0.165 HD
HETATM   16  C   UNL     1      30.200  43.124  54.512  1.00  0.00     0.102 A 
ENDBRANCH   6   7
ENDBRANCH   2   5
BRANCH   1  17
HETATM   17  C   UNL     1      24.794  45.586  51.349  1.00  0.00     0.175 C 
BRANCH  17  18
HETATM   18  C   UNL     1      23.870  44.705  50.495  1.00  0.00     0.030 C 
HETATM   19  C   UNL     1      24.654  43.795  49.556  1.00  0.00     0.007 C 
ENDBRANCH  17  18
BRANCH  17  20
HETATM   20  N   UNL     1      25.839  46.185  50.507  1.00  0.00    -0.377 N 
HETATM   21  H   UNL     1      26.763  45.766  50.568  1.00  0.00     0.160 HD
BRANCH  20  22
HETATM   22  C   UNL     1      25.734  47.381  49.826  1.00  0.00     0.028 A 
HETATM   23  C   UNL     1      24.456  47.899  49.568  1.00  0.00     0.029 A 
HETATM   24  C   UNL     1      24.281  49.113  48.898  1.00  0.00     0.002 A 
HETATM   25  C   UNL     1      25.389  49.841  48.480  1.00  0.00     0.000 A 
HETATM   26  C   UNL     1      26.666  49.354  48.737  1.00  0.00     0.002 A 
HETATM   27  C   UNL     1      26.834  48.136  49.405  1.00  0.00     0.029 A 
ENDBRANCH  20  22
ENDBRANCH  17  20
ENDBRANCH   1  17
TORSDOF 6
ENDMDL
MODEL 7
REMARK VINA RESULT:      -8.1      2.607      9.236
REMARK  6 active torsions:
REMARK  status: ('A' for Active; 'I' for Inactive)
REMARK    1  A    between atoms: C_2  and  C_3 
REMARK    2  A    between atoms: C_3  and  N_4 
REMARK    3  A    between atoms: C_3  and  C_11 
REMARK    4  A    between atoms: N_4  and  C_5 
REMARK       I    between atoms: C_11  and  N_12 
REMARK    5  A    between atoms: N_12  and  N_13 
REMARK    6  A    between atoms: C_14  and  C_15 
ROOT
HETATM    1  C   UNL     1      23.794  47.931  49.765  1.00  0.00     0.260 C 
HETATM    2  N   UNL     1      23.783  46.621  50.254  1.00  0.00    -0.246 N 
HETATM    3  O   UNL     1      24.776  48.672  49.765  1.00  0.00    -0.269 OA
HETATM    4  H   UNL     1      23.005  46.026  49.980  1.00  0.00     0.192 HD
ENDROOT
BRANCH   2   5
HETATM    5  N   UNL     1      24.898  45.940  50.678  1.00  0.00    -0.184 NA
HETATM    6  C   UNL     1      24.911  45.539  51.911  1.00  0.00     0.152 C 
BRANCH   6   7
HETATM    7  C   UNL     1      26.078  44.860  52.435  1.00  0.00     0.011 A 
HETATM    8  C   UNL     1      26.952  45.327  53.470  1.00  0.00     0.004 A 
HETATM    9  C   UNL     1      27.944  44.362  53.647  1.00  0.00     0.043 A 
HETATM   10  C   UNL     1      26.987  46.482  54.281  1.00  0.00     0.014 A 
HETATM   11  C   UNL     1      28.972  44.495  54.589  1.00  0.00     0.030 A 
HETATM   12  N   UNL     1      27.689  43.351  52.751  1.00  0.00    -0.364 N 
HETATM   13  C   UNL     1      28.981  45.647  55.382  1.00  0.00     0.002 A 
HETATM   14  C   UNL     1      28.004  46.628  55.232  1.00  0.00     0.001 A 
HETATM   15  H   UNL     1      28.255  42.518  52.650  1.00  0.00     0.165 HD
HETATM   16  C   UNL     1      26.567  43.634  52.023  1.00  0.00     0.102 A 
ENDBRANCH   6   7
ENDBRANCH   2   5
BRANCH   1  17
HETATM   17  C   UNL     1      22.401  48.350  49.227  1.00  0.00     0.175 C 
BRANCH  17  18
HETATM   18  C   UNL     1      22.310  48.194  47.702  1.00  0.00     0.030 C 
HETATM   19  C   UNL     1      21.028  47.489  47.273  1.00  0.00     0.007 C 
ENDBRANCH  17  18
BRANCH  17  20
HETATM   20  N   UNL     1      22.164  49.750  49.606  1.00  0.00    -0.377 N 
HETATM   21  H   UNL     1      22.884  50.194  50.169  1.00  0.00     0.160 HD
BRANCH  20  22
HETATM   22  C   UNL     1      20.971  50.430  49.460  1.00  0.00     0.028 A 
HETATM   23  C   UNL     1      19.870  50.035  50.236  1.00  0.00     0.029 A 
HETATM   24  C   UNL     1      18.640  50.692  50.147  1.00  0.00     0.002 A 
HETATM   25  C   UNL     1      18.490  51.770  49.283  1.00  0.00     0.000 A 
HETATM   26  C   UNL     1      19.570  52.190  48.515  1.00  0.00     0.002 A 
HETATM   27  C   UNL     1      20.799  51.524  48.606  1.00  0.00     0.029 A 
ENDBRANCH  20  22
ENDBRANCH  17  20
ENDBRANCH   1  17
TORSDOF 6
ENDMDL
MODEL 8
REMARK VINA RESULT:      -8.0      4.777      7.356
REMARK  6 active torsions:
REMARK  status: ('A' for Active; 'I' for Inactive)
REMARK    1  A    between atoms: C_2  and  C_3 
REMARK    2  A    between atoms: C_3  and  N_4 
REMARK    3  A    between atoms: C_3  and  C_11 
REMARK    4  A    between atoms: N_4  and  C_5 
REMARK       I    between atoms: C_11  and  N_12 
REMARK    5  A    between atoms: N_12  and  N_13 
REMARK    6  A    between atoms: C_14  and  C_15 
ROOT
HETATM    1  C   UNL     1      26.686  44.263  54.050  1.00  0.00     0.260 C 
HETATM    2  N   UNL     1      27.572  43.586  53.207  1.00  0.00    -0.246 N 
HETATM    3  O   UNL     1      25.494  43.991  54.179  1.00  0.00    -0.269 OA
HETATM    4  H   UNL     1      28.568  43.728  53.364  1.00  0.00     0.192 HD
ENDROOT
BRANCH   2   5
HETATM    5  N   UNL     1      27.263  42.443  52.510  1.00  0.00    -0.184 NA
HETATM    6  C   UNL     1      26.989  42.575  51.250  1.00  0.00     0.152 C 
BRANCH   6   7
HETATM    7  C   UNL     1      26.606  41.416  50.471  1.00  0.00     0.011 A 
HETATM    8  C   UNL     1      27.388  40.237  50.244  1.00  0.00     0.004 A 
HETATM    9  C   UNL     1      26.636  39.386  49.433  1.00  0.00     0.043 A 
HETATM   10  C   UNL     1      28.668  39.810  50.659  1.00  0.00     0.014 A 
HETATM   11  C   UNL     1      27.099  38.133  49.013  1.00  0.00     0.030 A 
HETATM   12  N   UNL     1      25.446  40.024  49.172  1.00  0.00    -0.364 N 
HETATM   13  C   UNL     1      28.368  37.734  49.441  1.00  0.00     0.002 A 
HETATM   14  C   UNL     1      29.143  38.558  50.253  1.00  0.00     0.001 A 
HETATM   15  H   UNL     1      24.705  39.642  48.599  1.00  0.00     0.165 HD
HETATM   16  C   UNL     1      25.413  41.240  49.796  1.00  0.00     0.102 A 
ENDBRANCH   6   7
ENDBRANCH   2   5
BRANCH   1  17
HETATM   17  C   UNL     1      27.390  45.422  54.803  1.00  0.00     0.175 C 
BRANCH  17  18
HETATM   18  C   UNL     1      26.972  46.794  54.253  1.00  0.00     0.030 C 
HETATM   19  C   UNL     1      27.298  47.924  55.223  1.00  0.00     0.007 C 
ENDBRANCH  17  18
BRANCH  17  20
HETATM   20  N   UNL     1      28.842  45.245  54.664  1.00  0.00    -0.377 N 
HETATM   21  H   UNL     1      29.207  45.228  53.716  1.00  0.00     0.160 HD
BRANCH  20  22
HETATM   22  C   UNL     1      29.707  44.881  55.678  1.00  0.00     0.028 A 
HETATM   23  C   UNL     1      29.738  45.655  56.847  1.00  0.00     0.029 A 
HETATM   24  C   UNL     1      30.578  45.332  57.916  1.00  0.00     0.002 A 
HETATM   25  C   UNL     1      31.400  44.214  57.839  1.00  0.00     0.000 A 
HETATM   26  C   UNL     1      31.377  43.423  56.695  1.00  0.00     0.002 A 
HETATM   27  C   UNL     1      30.535  43.755  55.626  1.00  0.00     0.029 A 
ENDBRANCH  20  22
ENDBRANCH  17  20
ENDBRANCH   1  17
TORSDOF 6
ENDMDL
MODEL 9
REMARK VINA RESULT:      -7.9      4.596      8.046
REMARK  6 active torsions:
REMARK  status: ('A' for Active; 'I' for Inactive)
REMARK    1  A    between atoms: C_2  and  C_3 
REMARK    2  A    between atoms: C_3  and  N_4 
REMARK    3  A    between atoms: C_3  and  C_11 
REMARK    4  A    between atoms: N_4  and  C_5 
REMARK       I    between atoms: C_11  and  N_12 
REMARK    5  A    between atoms: N_12  and  N_13 
REMARK    6  A    between atoms: C_14  and  C_15 
ROOT
HETATM    1  C   UNL     1      24.992  43.662  51.830  1.00  0.00     0.260 C 
HETATM    2  N   UNL     1      26.196  43.347  52.468  1.00  0.00    -0.246 N 
HETATM    3  O   UNL     1      24.150  44.444  52.267  1.00  0.00    -0.269 OA
HETATM    4  H   UNL     1      26.916  42.894  51.910  1.00  0.00     0.192 HD
ENDROOT
BRANCH   2   5
HETATM    5  N   UNL     1      26.661  43.967  53.602  1.00  0.00    -0.184 NA
HETATM    6  C   UNL     1      27.901  44.344  53.602  1.00  0.00     0.152 C 
BRANCH   6   7
HETATM    7  C   UNL     1      28.466  44.958  54.786  1.00  0.00     0.011 A 
HETATM    8  C   UNL     1      29.560  44.466  55.570  1.00  0.00     0.004 A 
HETATM    9  C   UNL     1      29.762  45.365  56.617  1.00  0.00     0.043 A 
HETATM   10  C   UNL     1      30.404  43.337  55.482  1.00  0.00     0.014 A 
HETATM   11  C   UNL     1      30.761  45.192  57.583  1.00  0.00     0.030 A 
HETATM   12  N   UNL     1      28.824  46.362  56.481  1.00  0.00    -0.364 N 
HETATM   13  C   UNL     1      31.585  44.068  57.471  1.00  0.00     0.002 A 
HETATM   14  C   UNL     1      31.411  43.153  56.436  1.00  0.00     0.001 A 
HETATM   15  H   UNL     1      28.730  47.150  57.108  1.00  0.00     0.165 HD
HETATM   16  C   UNL     1      28.046  46.134  55.380  1.00  0.00     0.102 A 
ENDBRANCH   6   7
ENDBRANCH   2   5
BRANCH   1  17
HETATM   17  C   UNL     1      24.836  42.889  50.494  1.00  0.00     0.175 C 
BRANCH  17  18
HETATM   18  C   UNL     1      23.361  42.739  50.093  1.00  0.00     0.030 C 
HETATM   19  C   UNL     1      23.205  42.215  48.669  1.00  0.00     0.007 C 
ENDBRANCH  17  18
BRANCH  17  20
HETATM   20  N   UNL     1      25.452  41.564  50.655  1.00  0.00    -0.377 N 
HETATM   21  H   UNL     1      25.151  41.021  51.459  1.00  0.00     0.160 HD
BRANCH  20  22
HETATM   22  C   UNL     1      26.546  41.096  49.953  1.00  0.00     0.028 A 
HETATM   23  C   UNL     1      27.413  40.191  50.583  1.00  0.00     0.029 A 
HETATM   24  C   UNL     1      28.528  39.668  49.922  1.00  0.00     0.002 A 
HETATM   25  C   UNL     1      28.790  40.034  48.607  1.00  0.00     0.000 A 
HETATM   26  C   UNL     1      27.936  40.918  47.957  1.00  0.00     0.002 A 
HETATM   27  C   UNL     1      26.824  41.442  48.627  1.00  0.00     0.029 A 
ENDBRANCH  20  22
ENDBRANCH  17  20
ENDBRANCH   1  17
TORSDOF 6
ENDMDL
MODEL 10
REMARK VINA RESULT:      -7.9      5.141      7.544
REMARK  6 active torsions:
REMARK  status: ('A' for Active; 'I' for Inactive)
REMARK    1  A    between atoms: C_2  and  C_3 
REMARK    2  A    between atoms: C_3  and  N_4 
REMARK    3  A    between atoms: C_3  and  C_11 
REMARK    4  A    between atoms: N_4  and  C_5 
REMARK       I    between atoms: C_11  and  N_12 
REMARK    5  A    between atoms: N_12  and  N_13 
REMARK    6  A    between atoms: C_14  and  C_15 
ROOT
HETATM    1  C   UNL     1      27.899  41.894  53.270  1.00  0.00     0.260 C 
HETATM    2  N   UNL     1      27.123  41.769  52.113  1.00  0.00    -0.246 N 
HETATM    3  O   UNL     1      28.643  41.021  53.713  1.00  0.00    -0.269 OA
HETATM    4  H   UNL     1      26.748  42.624  51.708  1.00  0.00     0.192 HD
ENDROOT
BRANCH   2   5
HETATM    5  N   UNL     1      27.187  40.708  51.244  1.00  0.00    -0.184 NA
HETATM    6  C   UNL     1      28.191  40.676  50.425  1.00  0.00     0.152 C 
BRANCH   6   7
HETATM    7  C   UNL     1      28.291  39.611  49.449  1.00  0.00     0.011 A 
HETATM    8  C   UNL     1      28.195  39.739  48.025  1.00  0.00     0.004 A 
HETATM    9  C   UNL     1      28.339  38.463  47.479  1.00  0.00     0.043 A 
HETATM   10  C   UNL     1      28.006  40.827  47.145  1.00  0.00     0.014 A 
HETATM   11  C   UNL     1      28.299  38.218  46.101  1.00  0.00     0.030 A 
HETATM   12  N   UNL     1      28.509  37.591  48.530  1.00  0.00    -0.364 N 
HETATM   13  C   UNL     1      28.114  39.314  45.253  1.00  0.00     0.002 A 
HETATM   14  C   UNL     1      27.969  40.600  45.765  1.00  0.00     0.001 A 
HETATM   15  H   UNL     1      28.631  36.592  48.431  1.00  0.00     0.165 HD
HETATM   16  C   UNL     1      28.490  38.269  49.716  1.00  0.00     0.102 A 
ENDBRANCH   6   7
ENDBRANCH   2   5
BRANCH   1  17
HETATM   17  C   UNL     1      27.698  43.276  53.945  1.00  0.00     0.175 C 
BRANCH  17  18
HETATM   18  C   UNL     1      26.705  44.150  53.165  1.00  0.00     0.030 C 
HETATM   19  C   UNL     1      25.453  44.460  53.977  1.00  0.00     0.007 C 
ENDBRANCH  17  18
BRANCH  17  20
HETATM   20  N   UNL     1      29.005  43.944  54.023  1.00  0.00    -0.377 N 
HETATM   21  H   UNL     1      29.461  44.149  53.138  1.00  0.00     0.160 HD
BRANCH  20  22
HETATM   22  C   UNL     1      29.754  44.112  55.171  1.00  0.00     0.028 A 
HETATM   23  C   UNL     1      29.536  45.254  55.956  1.00  0.00     0.029 A 
HETATM   24  C   UNL     1      30.248  45.476  57.137  1.00  0.00     0.002 A 
HETATM   25  C   UNL     1      31.190  44.547  57.564  1.00  0.00     0.000 A 
HETATM   26  C   UNL     1      31.413  43.400  56.810  1.00  0.00     0.002 A 
HETATM   27  C   UNL     1      30.699  43.187  55.625  1.00  0.00     0.029 A 
ENDBRANCH  20  22
ENDBRANCH  17  20
ENDBRANCH   1  17
TORSDOF 6
ENDMDL
