MODEL 1
REMARK VINA RESULT:      -8.2      0.000      0.000
REMARK  6 active torsions:
REMARK  status: ('A' for Active; 'I' for Inactive)
REMARK    1  A    between atoms: C_3  and  N_4 
REMARK    2  A    between atoms: N_4  and  C_5 
REMARK    3  A    between atoms: C_5  and  C_6 
REMARK    4  A    between atoms: N_8  and  C_10 
REMARK    5  A    between atoms: C_10  and  C_11 
REMARK    6  A    between atoms: C_16  and  O_17 
ROOT
HETATM    1  C   UNL     1      26.424  45.435  54.147  1.00  0.00     0.031 C 
HETATM    2  C   UNL     1      26.123  46.712  53.358  1.00  0.00     0.241 C 
HETATM    3  N   UNL     1      25.475  46.255  52.068  1.00  0.00    -0.067 N 
HETATM    4  H   UNL     1      24.538  46.689  52.034  1.00  0.00     0.280 HD
HETATM    5  C   UNL     1      25.261  44.763  52.148  1.00  0.00     0.235 C 
HETATM    6  C   UNL     1      25.357  44.468  53.634  1.00  0.00     0.035 C 
ENDROOT
BRANCH   3   7
HETATM    7  C   UNL     1      26.167  46.738  50.816  1.00  0.00     0.274 C 
BRANCH   7   8
HETATM    8  C   UNL     1      25.344  47.698  50.004  1.00  0.00    -0.013 A 
HETATM    9  C   UNL     1      25.909  48.723  49.227  1.00  0.00     0.019 A 
HETATM   10 BR   UNL     1      27.787  49.002  49.159  1.00  0.00    -0.051 Br
HETATM   11  C   UNL     1      25.098  49.589  48.486  1.00  0.00     0.022 A 
HETATM   12  C   UNL     1      23.710  49.453  48.518  1.00  0.00     0.038 A 
HETATM   13  C   UNL     1      23.147  48.449  49.292  1.00  0.00     0.066 A 
HETATM   14  C   UNL     1      23.945  47.577  50.026  1.00  0.00     0.046 A 
BRANCH  13  15
HETATM   15  O   UNL     1      21.800  48.272  49.375  1.00  0.00    -0.361 OA
HETATM   16  H   UNL     1      21.351  48.943  48.829  1.00  0.00     0.217 HD
ENDBRANCH  13  15
ENDBRANCH   7   8
ENDBRANCH   3   7
BRANCH   1  17
HETATM   17  C   UNL     1      27.856  44.905  53.934  1.00  0.00     0.127 C 
BRANCH  17  18
HETATM   18  N   UNL     1      28.789  45.643  54.779  1.00  0.00    -0.376 N 
HETATM   19  H   UNL     1      29.296  46.374  54.268  1.00  0.00     0.161 HD
BRANCH  18  20
HETATM   20  C   UNL     1      29.630  45.097  55.746  1.00  0.00     0.100 A 
HETATM   21  C   UNL     1      30.335  43.921  55.437  1.00  0.00     0.048 A 
HETATM   22  C   UNL     1      31.211  43.357  56.362  1.00  0.00     0.005 A 
HETATM   23  C   UNL     1      31.390  43.971  57.591  1.00  0.00     0.017 A 
HETATM   24  C   UNL     1      30.699  45.141  57.857  1.00  0.00     0.089 A 
HETATM   25  N   UNL     1      29.866  45.665  56.941  1.00  0.00    -0.353 N 
HETATM   26  H   UNL     1      29.391  46.525  57.187  1.00  0.00     0.166 HD
ENDBRANCH  18  20
ENDBRANCH  17  18
ENDBRANCH   1  17
TORSDOF 6
ENDMDL
MODEL 2
REMARK VINA RESULT:      -8.1      3.551      8.381
REMARK  6 active torsions:
REMARK  status: ('A' for Active; 'I' for Inactive)
REMARK    1  A    between atoms: C_3  and  N_4 
REMARK    2  A    between atoms: N_4  and  C_5 
REMARK    3  A    between atoms: C_5  and  C_6 
REMARK    4  A    between atoms: N_8  and  C_10 
REMARK    5  A    between atoms: C_10  and  C_11 
REMARK    6  A    between atoms: C_16  and  O_17 
ROOT
HETATM    1  C   UNL     1      25.666  44.039  53.495  1.00  0.00     0.031 C 
HETATM    2  C   UNL     1      26.877  43.783  54.395  1.00  0.00     0.241 C 
HETATM    3  N   UNL     1      27.273  45.138  54.944  1.00  0.00    -0.067 N 
HETATM    4  H   UNL     1      27.207  45.074  55.973  1.00  0.00     0.280 HD
HETATM    5  C   UNL     1      26.242  46.148  54.505  1.00  0.00     0.235 C 
HETATM    6  C   UNL     1      25.050  45.293  54.114  1.00  0.00     0.035 C 
ENDROOT
BRANCH   3   7
HETATM    7  C   UNL     1      28.708  45.526  54.675  1.00  0.00     0.274 C 
BRANCH   7   8
HETATM    8  C   UNL     1      29.690  44.906  55.629  1.00  0.00    -0.013 A 
HETATM    9  C   UNL     1      30.411  43.738  55.333  1.00  0.00     0.019 A 
HETATM   10 BR   UNL     1      30.180  42.814  53.689  1.00  0.00    -0.051 Br
HETATM   11  C   UNL     1      31.316  43.202  56.256  1.00  0.00     0.022 A 
HETATM   12  C   UNL     1      31.507  43.820  57.492  1.00  0.00     0.038 A 
HETATM   13  C   UNL     1      30.790  44.968  57.794  1.00  0.00     0.066 A 
HETATM   14  C   UNL     1      29.893  45.513  56.880  1.00  0.00     0.046 A 
BRANCH  13  15
HETATM   15  O   UNL     1      30.923  45.609  58.987  1.00  0.00    -0.361 OA
HETATM   16  H   UNL     1      30.051  45.932  59.280  1.00  0.00     0.217 HD
ENDBRANCH  13  15
ENDBRANCH   7   8
ENDBRANCH   3   7
BRANCH   1  17
HETATM   17  C   UNL     1      26.033  44.231  52.010  1.00  0.00     0.127 C 
BRANCH  17  18
HETATM   18  N   UNL     1      24.927  44.865  51.303  1.00  0.00    -0.376 N 
HETATM   19  H   UNL     1      24.387  44.204  50.734  1.00  0.00     0.161 HD
BRANCH  18  20
HETATM   20  C   UNL     1      24.964  46.098  50.654  1.00  0.00     0.100 A 
HETATM   21  C   UNL     1      26.203  46.748  50.518  1.00  0.00     0.048 A 
HETATM   22  C   UNL     1      26.293  47.967  49.850  1.00  0.00     0.005 A 
HETATM   23  C   UNL     1      25.149  48.533  49.310  1.00  0.00     0.017 A 
HETATM   24  C   UNL     1      23.947  47.858  49.441  1.00  0.00     0.089 A 
HETATM   25  N   UNL     1      23.894  46.679  50.086  1.00  0.00    -0.353 N 
HETATM   26  H   UNL     1      22.990  46.226  50.148  1.00  0.00     0.166 HD
ENDBRANCH  18  20
ENDBRANCH  17  18
ENDBRANCH   1  17
TORSDOF 6
ENDMDL
MODEL 3
REMARK VINA RESULT:      -8.0      3.305      7.064
REMARK  6 active torsions:
REMARK  status: ('A' for Active; 'I' for Inactive)
REMARK    1  A    between atoms: C_3  and  N_4 
REMARK    2  A    between atoms: N_4  and  C_5 
REMARK    3  A    between atoms: C_5  and  C_6 
REMARK    4  A    between atoms: N_8  and  C_10 
REMARK    5  A    between atoms: C_10  and  C_11 
REMARK    6  A    between atoms: C_16  and  O_17 
ROOT
HETATM    1  C   UNL     1      26.799  44.504  49.975  1.00  0.00     0.031 C 
HETATM    2  C   UNL     1      27.516  44.546  51.327  1.00  0.00     0.241 C 
HETATM    3  N   UNL     1      26.993  43.357  52.106  1.00  0.00    -0.067 N 
HETATM    4  H   UNL     1      27.809  42.764  52.330  1.00  0.00     0.280 HD
HETATM    5  C   UNL     1      26.104  42.547  51.195  1.00  0.00     0.235 C 
HETATM    6  C   UNL     1      26.496  43.015  49.805  1.00  0.00     0.035 C 
ENDROOT
BRANCH   3   7
HETATM    7  C   UNL     1      26.393  43.705  53.447  1.00  0.00     0.274 C 
BRANCH   7   8
HETATM    8  C   UNL     1      26.864  45.021  53.997  1.00  0.00    -0.013 A 
HETATM    9  C   UNL     1      28.147  45.209  54.539  1.00  0.00     0.019 A 
HETATM   10 BR   UNL     1      29.401  43.785  54.647  1.00  0.00    -0.051 Br
HETATM   11  C   UNL     1      28.538  46.456  55.036  1.00  0.00     0.022 A 
HETATM   12  C   UNL     1      27.651  47.533  55.011  1.00  0.00     0.038 A 
HETATM   13  C   UNL     1      26.380  47.350  54.487  1.00  0.00     0.066 A 
HETATM   14  C   UNL     1      25.984  46.115  53.982  1.00  0.00     0.046 A 
BRANCH  13  15
HETATM   15  O   UNL     1      25.466  48.357  54.445  1.00  0.00    -0.361 OA
HETATM   16  H   UNL     1      25.082  48.484  55.332  1.00  0.00     0.217 HD
ENDBRANCH  13  15
ENDBRANCH   7   8
ENDBRANCH   3   7
BRANCH   1  17
HETATM   17  C   UNL     1      25.528  45.377  49.927  1.00  0.00     0.127 C 
BRANCH  17  18
HETATM   18  N   UNL     1      25.808  46.692  50.491  1.00  0.00    -0.376 N 
HETATM   19  H   UNL     1      25.264  46.885  51.339  1.00  0.00     0.161 HD
BRANCH  18  20
HETATM   20  C   UNL     1      25.970  47.876  49.775  1.00  0.00     0.100 A 
HETATM   21  C   UNL     1      27.273  48.358  49.560  1.00  0.00     0.048 A 
HETATM   22  C   UNL     1      27.484  49.522  48.823  1.00  0.00     0.005 A 
HETATM   23  C   UNL     1      26.397  50.199  48.295  1.00  0.00     0.017 A 
HETATM   24  C   UNL     1      25.128  49.687  48.504  1.00  0.00     0.089 A 
HETATM   25  N   UNL     1      24.957  48.557  49.214  1.00  0.00    -0.353 N 
HETATM   26  H   UNL     1      24.007  48.226  49.332  1.00  0.00     0.166 HD
ENDBRANCH  18  20
ENDBRANCH  17  18
ENDBRANCH   1  17
TORSDOF 6
ENDMDL
MODEL 4
REMARK VINA RESULT:      -7.9      4.738      8.043
REMARK  6 active torsions:
REMARK  status: ('A' for Active; 'I' for Inactive)
REMARK    1  A    between atoms: C_3  and  N_4 
REMARK    2  A    between atoms: N_4  and  C_5 
REMARK    3  A    between atoms: C_5  and  C_6 
REMARK    4  A    between atoms: N_8  and  C_10 
REMARK    5  A    between atoms: C_10  and  C_11 
REMARK    6  A    between atoms: C_16  and  O_17 
ROOT
HETATM    1  C   UNL     1      25.687  44.052  53.962  1.00  0.00     0.031 C 
HETATM    2  C   UNL     1      26.869  44.040  54.934  1.00  0.00     0.241 C 
HETATM    3  N   UNL     1      27.367  45.469  54.993  1.00  0.00    -0.067 N 
HETATM    4  H   UNL     1      27.290  45.771  55.978  1.00  0.00     0.280 HD
HETATM    5  C   UNL     1      26.420  46.334  54.198  1.00  0.00     0.235 C 
HETATM    6  C   UNL     1      25.167  45.484  54.088  1.00  0.00     0.035 C 
ENDROOT
BRANCH   3   7
HETATM    7  C   UNL     1      28.828  45.637  54.654  1.00  0.00     0.274 C 
BRANCH   7   8
HETATM    8  C   UNL     1      29.755  44.963  55.626  1.00  0.00    -0.013 A 
HETATM    9  C   UNL     1      30.431  43.766  55.335  1.00  0.00     0.019 A 
HETATM   10 BR   UNL     1      30.204  42.872  53.674  1.00  0.00    -0.051 Br
HETATM   11  C   UNL     1      31.285  43.180  56.275  1.00  0.00     0.022 A 
HETATM   12  C   UNL     1      31.470  43.774  57.524  1.00  0.00     0.038 A 
HETATM   13  C   UNL     1      30.797  44.950  57.820  1.00  0.00     0.066 A 
HETATM   14  C   UNL     1      29.951  45.546  56.889  1.00  0.00     0.046 A 
BRANCH  13  15
HETATM   15  O   UNL     1      30.926  45.571  59.024  1.00  0.00    -0.361 OA
HETATM   16  H   UNL     1      31.846  45.491  59.333  1.00  0.00     0.217 HD
ENDBRANCH  13  15
ENDBRANCH   7   8
ENDBRANCH   3   7
BRANCH   1  17
HETATM   17  C   UNL     1      26.078  43.689  52.515  1.00  0.00     0.127 C 
BRANCH  17  18
HETATM   18  N   UNL     1      26.715  42.378  52.487  1.00  0.00    -0.376 N 
HETATM   19  H   UNL     1      27.427  42.266  53.217  1.00  0.00     0.161 HD
BRANCH  18  20
HETATM   20  C   UNL     1      27.118  41.683  51.348  1.00  0.00     0.100 A 
HETATM   21  C   UNL     1      26.885  42.264  50.090  1.00  0.00     0.048 A 
HETATM   22  C   UNL     1      27.298  41.620  48.926  1.00  0.00     0.005 A 
HETATM   23  C   UNL     1      27.952  40.402  49.018  1.00  0.00     0.017 A 
HETATM   24  C   UNL     1      28.188  39.866  50.273  1.00  0.00     0.089 A 
HETATM   25  N   UNL     1      27.783  40.516  51.379  1.00  0.00    -0.353 N 
HETATM   26  H   UNL     1      27.986  40.081  52.270  1.00  0.00     0.166 HD
ENDBRANCH  18  20
ENDBRANCH  17  18
ENDBRANCH   1  17
TORSDOF 6
ENDMDL
MODEL 5
REMARK VINA RESULT:      -7.9      3.556      7.768
REMARK  6 active torsions:
REMARK  status: ('A' for Active; 'I' for Inactive)
REMARK    1  A    between atoms: C_3  and  N_4 
REMARK    2  A    between atoms: N_4  and  C_5 
REMARK    3  A    between atoms: C_5  and  C_6 
REMARK    4  A    between atoms: N_8  and  C_10 
REMARK    5  A    between atoms: C_10  and  C_11 
REMARK    6  A    between atoms: C_16  and  O_17 
ROOT
HETATM    1  C   UNL     1      26.706  44.430  49.738  1.00  0.00     0.031 C 
HETATM    2  C   UNL     1      27.530  44.557  51.022  1.00  0.00     0.241 C 
HETATM    3  N   UNL     1      27.041  43.451  51.934  1.00  0.00    -0.067 N 
HETATM    4  H   UNL     1      27.857  42.852  52.141  1.00  0.00     0.280 HD
HETATM    5  C   UNL     1      26.061  42.599  51.164  1.00  0.00     0.235 C 
HETATM    6  C   UNL     1      26.353  42.943  49.714  1.00  0.00     0.035 C 
ENDROOT
BRANCH   3   7
HETATM    7  C   UNL     1      26.558  43.923  53.284  1.00  0.00     0.274 C 
BRANCH   7   8
HETATM    8  C   UNL     1      27.644  44.508  54.143  1.00  0.00    -0.013 A 
HETATM    9  C   UNL     1      27.630  45.839  54.594  1.00  0.00     0.019 A 
HETATM   10 BR   UNL     1      26.230  47.034  54.126  1.00  0.00    -0.051 Br
HETATM   11  C   UNL     1      28.665  46.334  55.393  1.00  0.00     0.022 A 
HETATM   12  C   UNL     1      29.736  45.512  55.747  1.00  0.00     0.038 A 
HETATM   13  C   UNL     1      29.760  44.201  55.296  1.00  0.00     0.066 A 
HETATM   14  C   UNL     1      28.731  43.696  54.506  1.00  0.00     0.046 A 
BRANCH  13  15
HETATM   15  O   UNL     1      30.781  43.354  55.596  1.00  0.00    -0.361 OA
HETATM   16  H   UNL     1      30.443  42.614  56.132  1.00  0.00     0.217 HD
ENDBRANCH  13  15
ENDBRANCH   7   8
ENDBRANCH   3   7
BRANCH   1  17
HETATM   17  C   UNL     1      25.459  45.336  49.716  1.00  0.00     0.127 C 
BRANCH  17  18
HETATM   18  N   UNL     1      25.766  46.617  50.342  1.00  0.00    -0.376 N 
HETATM   19  H   UNL     1      25.232  46.778  51.203  1.00  0.00     0.161 HD
BRANCH  18  20
HETATM   20  C   UNL     1      25.942  47.833  49.683  1.00  0.00     0.100 A 
HETATM   21  C   UNL     1      27.247  48.334  49.536  1.00  0.00     0.048 A 
HETATM   22  C   UNL     1      27.474  49.529  48.858  1.00  0.00     0.005 A 
HETATM   23  C   UNL     1      26.400  50.220  48.319  1.00  0.00     0.017 A 
HETATM   24  C   UNL     1      25.129  49.689  48.461  1.00  0.00     0.089 A 
HETATM   25  N   UNL     1      24.943  48.529  49.115  1.00  0.00    -0.353 N 
HETATM   26  H   UNL     1      23.993  48.185  49.185  1.00  0.00     0.166 HD
ENDBRANCH  18  20
ENDBRANCH  17  18
ENDBRANCH   1  17
TORSDOF 6
ENDMDL
MODEL 6
REMARK VINA RESULT:      -7.8      3.394      8.107
REMARK  6 active torsions:
REMARK  status: ('A' for Active; 'I' for Inactive)
REMARK    1  A    between atoms: C_3  and  N_4 
REMARK    2  A    between atoms: N_4  and  C_5 
REMARK    3  A    between atoms: C_5  and  C_6 
REMARK    4  A    between atoms: N_8  and  C_10 
REMARK    5  A    between atoms: C_10  and  C_11 
REMARK    6  A    between atoms: C_16  and  O_17 
ROOT
HETATM    1  C   UNL     1      25.662  45.995  49.973  1.00  0.00     0.031 C 
HETATM    2  C   UNL     1      26.627  45.454  51.031  1.00  0.00     0.241 C 
HETATM    3  N   UNL     1      25.995  44.179  51.549  1.00  0.00    -0.067 N 
HETATM    4  H   UNL     1      26.666  43.416  51.362  1.00  0.00     0.280 HD
HETATM    5  C   UNL     1      24.766  43.888  50.722  1.00  0.00     0.235 C 
HETATM    6  C   UNL     1      24.971  44.726  49.472  1.00  0.00     0.035 C 
ENDROOT
BRANCH   3   7
HETATM    7  C   UNL     1      25.785  44.148  53.044  1.00  0.00     0.274 C 
BRANCH   7   8
HETATM    8  C   UNL     1      26.471  45.268  53.773  1.00  0.00    -0.013 A 
HETATM    9  C   UNL     1      27.788  45.175  54.254  1.00  0.00     0.019 A 
HETATM   10 BR   UNL     1      28.815  43.592  54.043  1.00  0.00    -0.051 Br
HETATM   11  C   UNL     1      28.382  46.249  54.925  1.00  0.00     0.022 A 
HETATM   12  C   UNL     1      27.667  47.429  55.136  1.00  0.00     0.038 A 
HETATM   13  C   UNL     1      26.364  47.522  54.673  1.00  0.00     0.066 A 
HETATM   14  C   UNL     1      25.766  46.463  53.996  1.00  0.00     0.046 A 
BRANCH  13  15
HETATM   15  O   UNL     1      25.611  48.640  54.858  1.00  0.00    -0.361 OA
HETATM   16  H   UNL     1      25.808  49.284  54.153  1.00  0.00     0.217 HD
ENDBRANCH  13  15
ENDBRANCH   7   8
ENDBRANCH   3   7
BRANCH   1  17
HETATM   17  C   UNL     1      24.666  47.035  50.523  1.00  0.00     0.127 C 
BRANCH  17  18
HETATM   18  N   UNL     1      23.552  47.194  49.596  1.00  0.00    -0.376 N 
HETATM   19  H   UNL     1      23.626  46.582  48.776  1.00  0.00     0.161 HD
BRANCH  18  20
HETATM   20  C   UNL     1      22.967  48.399  49.213  1.00  0.00     0.100 A 
HETATM   21  C   UNL     1      23.677  49.243  48.341  1.00  0.00     0.048 A 
HETATM   22  C   UNL     1      23.119  50.443  47.907  1.00  0.00     0.005 A 
HETATM   23  C   UNL     1      21.849  50.797  48.335  1.00  0.00     0.017 A 
HETATM   24  C   UNL     1      21.165  49.934  49.175  1.00  0.00     0.089 A 
HETATM   25  N   UNL     1      21.729  48.779  49.571  1.00  0.00    -0.353 N 
HETATM   26  H   UNL     1      21.182  48.184  50.181  1.00  0.00     0.166 HD
ENDBRANCH  18  20
ENDBRANCH  17  18
ENDBRANCH   1  17
TORSDOF 6
ENDMDL
MODEL 7
REMARK VINA RESULT:      -7.8     12.282     13.873
REMARK  6 active torsions:
REMARK  status: ('A' for Active; 'I' for Inactive)
REMARK    1  A    between atoms: C_3  and  N_4 
REMARK    2  A    between atoms: N_4  and  C_5 
REMARK    3  A    between atoms: C_5  and  C_6 
REMARK    4  A    between atoms: N_8  and  C_10 
REMARK    5  A    between atoms: C_10  and  C_11 
REMARK    6  A    between atoms: C_16  and  O_17 
ROOT
HETATM    1  C   UNL     1      29.129  48.056  41.067  1.00  0.00     0.031 C 
HETATM    2  C   UNL     1      28.216  48.693  40.017  1.00  0.00     0.241 C 
HETATM    3  N   UNL     1      29.106  49.001  38.831  1.00  0.00    -0.067 N 
HETATM    4  H   UNL     1      28.723  48.479  38.026  1.00  0.00     0.280 HD
HETATM    5  C   UNL     1      30.476  48.430  39.106  1.00  0.00     0.235 C 
HETATM    6  C   UNL     1      30.226  47.422  40.213  1.00  0.00     0.035 C 
ENDROOT
BRANCH   3   7
HETATM    7  C   UNL     1      29.089  50.446  38.395  1.00  0.00     0.274 C 
BRANCH   7   8
HETATM    8  C   UNL     1      30.153  51.286  39.043  1.00  0.00    -0.013 A 
HETATM    9  C   UNL     1      29.901  52.128  40.139  1.00  0.00     0.019 A 
HETATM   10 BR   UNL     1      28.163  52.299  40.885  1.00  0.00    -0.051 Br
HETATM   11  C   UNL     1      30.929  52.888  40.708  1.00  0.00     0.022 A 
HETATM   12  C   UNL     1      32.221  52.827  40.185  1.00  0.00     0.038 A 
HETATM   13  C   UNL     1      32.473  52.005  39.096  1.00  0.00     0.066 A 
HETATM   14  C   UNL     1      31.459  51.238  38.528  1.00  0.00     0.046 A 
BRANCH  13  15
HETATM   15  O   UNL     1      33.708  51.911  38.534  1.00  0.00    -0.361 OA
HETATM   16  H   UNL     1      34.380  52.208  39.175  1.00  0.00     0.217 HD
ENDBRANCH  13  15
ENDBRANCH   7   8
ENDBRANCH   3   7
BRANCH   1  17
HETATM   17  C   UNL     1      29.684  49.065  42.093  1.00  0.00     0.127 C 
BRANCH  17  18
HETATM   18  N   UNL     1      31.051  48.706  42.452  1.00  0.00    -0.376 N 
HETATM   19  H   UNL     1      31.095  48.048  43.238  1.00  0.00     0.161 HD
BRANCH  18  20
HETATM   20  C   UNL     1      32.137  49.575  42.525  1.00  0.00     0.100 A 
HETATM   21  C   UNL     1      32.080  50.648  43.432  1.00  0.00     0.048 A 
HETATM   22  C   UNL     1      33.155  51.524  43.560  1.00  0.00     0.005 A 
HETATM   23  C   UNL     1      34.290  51.325  42.791  1.00  0.00     0.017 A 
HETATM   24  C   UNL     1      34.326  50.246  41.923  1.00  0.00     0.089 A 
HETATM   25  N   UNL     1      33.274  49.414  41.827  1.00  0.00    -0.353 N 
HETATM   26  H   UNL     1      33.356  48.639  41.181  1.00  0.00     0.166 HD
ENDBRANCH  18  20
ENDBRANCH  17  18
ENDBRANCH   1  17
TORSDOF 6
ENDMDL
MODEL 8
REMARK VINA RESULT:      -7.7      3.507      8.816
REMARK  6 active torsions:
REMARK  status: ('A' for Active; 'I' for Inactive)
REMARK    1  A    between atoms: C_3  and  N_4 
REMARK    2  A    between atoms: N_4  and  C_5 
REMARK    3  A    between atoms: C_5  and  C_6 
REMARK    4  A    between atoms: N_8  and  C_10 
REMARK    5  A    between atoms: C_10  and  C_11 
REMARK    6  A    between atoms: C_16  and  O_17 
ROOT
HETATM    1  C   UNL     1      25.234  45.948  50.038  1.00  0.00     0.031 C 
HETATM    2  C   UNL     1      26.576  45.578  50.673  1.00  0.00     0.241 C 
HETATM    3  N   UNL     1      26.238  44.759  51.901  1.00  0.00    -0.067 N 
HETATM    4  H   UNL     1      26.684  43.835  51.776  1.00  0.00     0.280 HD
HETATM    5  C   UNL     1      24.747  44.522  51.917  1.00  0.00     0.235 C 
HETATM    6  C   UNL     1      24.326  44.802  50.485  1.00  0.00     0.035 C 
ENDROOT
BRANCH   3   7
HETATM    7  C   UNL     1      26.817  45.294  53.188  1.00  0.00     0.274 C 
BRANCH   7   8
HETATM    8  C   UNL     1      28.032  44.548  53.660  1.00  0.00    -0.013 A 
HETATM    9  C   UNL     1      28.774  44.929  54.791  1.00  0.00     0.019 A 
HETATM   10 BR   UNL     1      28.311  46.460  55.816  1.00  0.00    -0.051 Br
HETATM   11  C   UNL     1      29.898  44.198  55.189  1.00  0.00     0.022 A 
HETATM   12  C   UNL     1      30.305  43.080  54.460  1.00  0.00     0.038 A 
HETATM   13  C   UNL     1      29.582  42.705  53.337  1.00  0.00     0.066 A 
HETATM   14  C   UNL     1      28.458  43.421  52.936  1.00  0.00     0.046 A 
BRANCH  13  15
HETATM   15  O   UNL     1      29.935  41.633  52.577  1.00  0.00    -0.361 OA
HETATM   16  H   UNL     1      29.958  41.895  51.638  1.00  0.00     0.217 HD
ENDBRANCH  13  15
ENDBRANCH   7   8
ENDBRANCH   3   7
BRANCH   1  17
HETATM   17  C   UNL     1      24.706  47.329  50.478  1.00  0.00     0.127 C 
BRANCH  17  18
HETATM   18  N   UNL     1      24.393  48.137  49.306  1.00  0.00    -0.376 N 
HETATM   19  H   UNL     1      25.227  48.545  48.869  1.00  0.00     0.161 HD
BRANCH  18  20
HETATM   20  C   UNL     1      23.332  49.032  49.184  1.00  0.00     0.100 A 
HETATM   21  C   UNL     1      23.572  50.281  48.585  1.00  0.00     0.048 A 
HETATM   22  C   UNL     1      22.535  51.195  48.414  1.00  0.00     0.005 A 
HETATM   23  C   UNL     1      21.257  50.859  48.832  1.00  0.00     0.017 A 
HETATM   24  C   UNL     1      21.047  49.613  49.397  1.00  0.00     0.089 A 
HETATM   25  N   UNL     1      22.068  48.749  49.542  1.00  0.00    -0.353 N 
HETATM   26  H   UNL     1      21.857  47.850  49.957  1.00  0.00     0.166 HD
ENDBRANCH  18  20
ENDBRANCH  17  18
ENDBRANCH   1  17
TORSDOF 6
ENDMDL
MODEL 9
REMARK VINA RESULT:      -7.6      1.435      1.959
REMARK  6 active torsions:
REMARK  status: ('A' for Active; 'I' for Inactive)
REMARK    1  A    between atoms: C_3  and  N_4 
REMARK    2  A    between atoms: N_4  and  C_5 
REMARK    3  A    between atoms: C_5  and  C_6 
REMARK    4  A    between atoms: N_8  and  C_10 
REMARK    5  A    between atoms: C_10  and  C_11 
REMARK    6  A    between atoms: C_16  and  O_17 
ROOT
HETATM    1  C   UNL     1      25.581  44.966  52.334  1.00  0.00     0.031 C 
HETATM    2  C   UNL     1      25.208  46.430  52.085  1.00  0.00     0.241 C 
HETATM    3  N   UNL     1      24.572  46.463  50.711  1.00  0.00    -0.067 N 
HETATM    4  H   UNL     1      23.613  46.830  50.835  1.00  0.00     0.280 HD
HETATM    5  C   UNL     1      24.433  45.044  50.218  1.00  0.00     0.235 C 
HETATM    6  C   UNL     1      24.559  44.213  51.482  1.00  0.00     0.035 C 
ENDROOT
BRANCH   3   7
HETATM    7  C   UNL     1      25.226  47.419  49.742  1.00  0.00     0.274 C 
BRANCH   7   8
HETATM    8  C   UNL     1      24.289  48.459  49.196  1.00  0.00    -0.013 A 
HETATM    9  C   UNL     1      24.733  49.619  48.539  1.00  0.00     0.019 A 
HETATM   10 BR   UNL     1      26.583  49.988  48.309  1.00  0.00    -0.051 Br
HETATM   11  C   UNL     1      23.820  50.556  48.046  1.00  0.00     0.022 A 
HETATM   12  C   UNL     1      22.449  50.355  48.210  1.00  0.00     0.038 A 
HETATM   13  C   UNL     1      22.005  49.217  48.867  1.00  0.00     0.066 A 
HETATM   14  C   UNL     1      22.906  48.274  49.354  1.00  0.00     0.046 A 
BRANCH  13  15
HETATM   15  O   UNL     1      20.683  48.971  49.069  1.00  0.00    -0.361 OA
HETATM   16  H   UNL     1      20.573  48.427  49.871  1.00  0.00     0.217 HD
ENDBRANCH  13  15
ENDBRANCH   7   8
ENDBRANCH   3   7
BRANCH   1  17
HETATM   17  C   UNL     1      27.036  44.629  51.950  1.00  0.00     0.127 C 
BRANCH  17  18
HETATM   18  N   UNL     1      27.586  43.663  52.894  1.00  0.00    -0.376 N 
HETATM   19  H   UNL     1      26.879  43.015  53.258  1.00  0.00     0.161 HD
BRANCH  18  20
HETATM   20  C   UNL     1      28.516  43.930  53.896  1.00  0.00     0.100 A 
HETATM   21  C   UNL     1      29.609  43.060  54.048  1.00  0.00     0.048 A 
HETATM   22  C   UNL     1      30.580  43.305  55.016  1.00  0.00     0.005 A 
HETATM   23  C   UNL     1      30.466  44.423  55.826  1.00  0.00     0.017 A 
HETATM   24  C   UNL     1      29.390  45.275  55.638  1.00  0.00     0.089 A 
HETATM   25  N   UNL     1      28.473  45.014  54.689  1.00  0.00    -0.353 N 
HETATM   26  H   UNL     1      27.710  45.673  54.591  1.00  0.00     0.166 HD
ENDBRANCH  18  20
ENDBRANCH  17  18
ENDBRANCH   1  17
TORSDOF 6
ENDMDL
MODEL 10
REMARK VINA RESULT:      -7.6      3.873      4.434
REMARK  6 active torsions:
REMARK  status: ('A' for Active; 'I' for Inactive)
REMARK    1  A    between atoms: C_3  and  N_4 
REMARK    2  A    between atoms: N_4  and  C_5 
REMARK    3  A    between atoms: C_5  and  C_6 
REMARK    4  A    between atoms: N_8  and  C_10 
REMARK    5  A    between atoms: C_10  and  C_11 
REMARK    6  A    between atoms: C_16  and  O_17 
ROOT
HETATM    1  C   UNL     1      28.523  42.420  53.949  1.00  0.00     0.031 C 
HETATM    2  C   UNL     1      27.232  43.028  53.398  1.00  0.00     0.241 C 
HETATM    3  N   UNL     1      26.922  42.257  52.132  1.00  0.00    -0.067 N 
HETATM    4  H   UNL     1      25.993  41.824  52.266  1.00  0.00     0.280 HD
HETATM    5  C   UNL     1      27.914  41.126  52.010  1.00  0.00     0.235 C 
HETATM    6  C   UNL     1      28.470  40.988  53.417  1.00  0.00     0.035 C 
ENDROOT
BRANCH   3   7
HETATM    7  C   UNL     1      26.772  43.114  50.898  1.00  0.00     0.274 C 
BRANCH   7   8
HETATM    8  C   UNL     1      25.467  42.915  50.180  1.00  0.00    -0.013 A 
HETATM    9  C   UNL     1      25.341  42.125  49.026  1.00  0.00     0.019 A 
HETATM   10 BR   UNL     1      26.838  41.250  48.249  1.00  0.00    -0.051 Br
HETATM   11  C   UNL     1      24.102  41.970  48.396  1.00  0.00     0.022 A 
HETATM   12  C   UNL     1      22.970  42.611  48.902  1.00  0.00     0.038 A 
HETATM   13  C   UNL     1      23.091  43.401  50.035  1.00  0.00     0.066 A 
HETATM   14  C   UNL     1      24.318  43.555  50.675  1.00  0.00     0.046 A 
BRANCH  13  15
HETATM   15  O   UNL     1      22.029  44.062  50.570  1.00  0.00    -0.361 OA
HETATM   16  H   UNL     1      21.219  43.534  50.439  1.00  0.00     0.217 HD
ENDBRANCH  13  15
ENDBRANCH   7   8
ENDBRANCH   3   7
BRANCH   1  17
HETATM   17  C   UNL     1      29.795  43.170  53.505  1.00  0.00     0.127 C 
BRANCH  17  18
HETATM   18  N   UNL     1      30.751  43.221  54.605  1.00  0.00    -0.376 N 
HETATM   19  H   UNL     1      31.116  42.296  54.857  1.00  0.00     0.161 HD
BRANCH  18  20
HETATM   20  C   UNL     1      30.637  43.995  55.758  1.00  0.00     0.100 A 
HETATM   21  C   UNL     1      31.416  43.653  56.876  1.00  0.00     0.048 A 
HETATM   22  C   UNL     1      31.358  44.416  58.040  1.00  0.00     0.005 A 
HETATM   23  C   UNL     1      30.530  45.526  58.084  1.00  0.00     0.017 A 
HETATM   24  C   UNL     1      29.792  45.851  56.959  1.00  0.00     0.089 A 
HETATM   25  N   UNL     1      29.875  45.098  55.848  1.00  0.00    -0.353 N 
HETATM   26  H   UNL     1      29.317  45.385  55.053  1.00  0.00     0.166 HD
ENDBRANCH  18  20
ENDBRANCH  17  18
ENDBRANCH   1  17
TORSDOF 6
ENDMDL
