MODEL 1
REMARK VINA RESULT:      -8.5      0.000      0.000
REMARK  4 active torsions:
REMARK  status: ('A' for Active; 'I' for Inactive)
REMARK    1  A    between atoms: C_2  and  C_3 
REMARK    2  A    between atoms: C_3  and  N_4 
REMARK    3  A    between atoms: C_3  and  C_17 
REMARK       I    between atoms: N_4  and  C_5 
REMARK    4  A    between atoms: C_5  and  C_6 
ROOT
HETATM    1  N   UNL     1      25.862  46.040  51.867  1.00  0.00    -0.345 N 
HETATM    2  C   UNL     1      25.778  45.249  52.999  1.00  0.00     0.252 C 
HETATM    3  O   UNL     1      24.808  44.529  53.217  1.00  0.00    -0.268 OA
HETATM    4  H   UNL     1      26.779  46.414  51.649  1.00  0.00     0.163 HD
ENDROOT
BRANCH   1   5
HETATM    5  C   UNL     1      24.927  45.851  50.755  1.00  0.00     0.152 C 
BRANCH   5   6
HETATM    6  C   UNL     1      25.396  44.735  49.814  1.00  0.00     0.028 C 
HETATM    7  C   UNL     1      26.902  44.516  49.854  1.00  0.00     0.007 C 
ENDBRANCH   5   6
BRANCH   5   8
HETATM    8  C   UNL     1      24.662  47.183  50.039  1.00  0.00     0.104 A 
HETATM    9  N   UNL     1      25.531  47.967  49.376  1.00  0.00    -0.347 N 
HETATM   10  H   UNL     1      26.523  47.768  49.278  1.00  0.00     0.167 HD
HETATM   11  C   UNL     1      24.899  49.087  48.841  1.00  0.00     0.022 A 
HETATM   12  C   UNL     1      25.602  50.113  48.055  1.00  0.00     0.069 C 
HETATM   13  C   UNL     1      23.585  48.972  49.220  1.00  0.00     0.114 A 
HETATM   14  N   UNL     1      23.483  47.815  49.942  1.00  0.00    -0.352 N 
HETATM   15  H   UNL     1      22.650  47.448  50.425  1.00  0.00     0.166 HD
ENDBRANCH   5   8
ENDBRANCH   1   5
BRANCH   2  16
HETATM   16  C   UNL     1      26.947  45.277  53.921  1.00  0.00     0.033 A 
HETATM   17  C   UNL     1      27.734  44.115  54.014  1.00  0.00     0.031 A 
HETATM   18  C   UNL     1      28.881  44.141  54.828  1.00  0.00     0.001 A 
HETATM   19  C   UNL     1      29.176  45.306  55.523  1.00  0.00     0.086 A 
HETATM   20  C   UNL     1      29.917  43.226  55.153  1.00  0.00     0.046 A 
HETATM   21  O   UNL     1      30.322  45.154  56.238  1.00  0.00    -0.315 OA
HETATM   22  C   UNL     1      28.400  46.462  55.483  1.00  0.00     0.039 A 
HETATM   23  C   UNL     1      30.776  43.890  56.005  1.00  0.00     0.050 A 
HETATM   24  C   UNL     1      32.037  43.508  56.672  1.00  0.00     0.077 C 
HETATM   25  C   UNL     1      27.266  46.426  54.662  1.00  0.00     0.020 A 
ENDBRANCH   2  16
TORSDOF 4
ENDMDL
MODEL 2
REMARK VINA RESULT:      -8.3      4.116      6.280
REMARK  4 active torsions:
REMARK  status: ('A' for Active; 'I' for Inactive)
REMARK    1  A    between atoms: C_2  and  C_3 
REMARK    2  A    between atoms: C_3  and  N_4 
REMARK    3  A    between atoms: C_3  and  C_17 
REMARK       I    between atoms: N_4  and  C_5 
REMARK    4  A    between atoms: C_5  and  C_6 
ROOT
HETATM    1  N   UNL     1      27.960  42.138  51.595  1.00  0.00    -0.345 N 
HETATM    2  C   UNL     1      27.809  43.512  51.637  1.00  0.00     0.252 C 
HETATM    3  O   UNL     1      27.504  44.162  50.642  1.00  0.00    -0.268 OA
HETATM    4  H   UNL     1      27.978  41.661  52.489  1.00  0.00     0.163 HD
ENDROOT
BRANCH   1   5
HETATM    5  C   UNL     1      27.502  41.373  50.431  1.00  0.00     0.152 C 
BRANCH   5   6
HETATM    6  C   UNL     1      26.004  41.059  50.523  1.00  0.00     0.028 C 
HETATM    7  C   UNL     1      25.285  41.189  49.186  1.00  0.00     0.007 C 
ENDBRANCH   5   6
BRANCH   5   8
HETATM    8  C   UNL     1      28.376  40.128  50.225  1.00  0.00     0.104 A 
HETATM    9  N   UNL     1      28.675  39.155  51.104  1.00  0.00    -0.347 N 
HETATM   10  H   UNL     1      28.351  39.136  52.068  1.00  0.00     0.167 HD
HETATM   11  C   UNL     1      29.483  38.178  50.528  1.00  0.00     0.022 A 
HETATM   12  C   UNL     1      29.954  36.989  51.254  1.00  0.00     0.069 C 
HETATM   13  C   UNL     1      29.691  38.601  49.239  1.00  0.00     0.114 A 
HETATM   14  N   UNL     1      29.011  39.779  49.096  1.00  0.00    -0.352 N 
HETATM   15  H   UNL     1      28.995  40.398  48.272  1.00  0.00     0.166 HD
ENDBRANCH   5   8
ENDBRANCH   1   5
BRANCH   2  16
HETATM   16  C   UNL     1      27.989  44.162  52.964  1.00  0.00     0.033 A 
HETATM   17  C   UNL     1      29.141  43.831  53.703  1.00  0.00     0.031 A 
HETATM   18  C   UNL     1      29.366  44.483  54.929  1.00  0.00     0.001 A 
HETATM   19  C   UNL     1      28.429  45.409  55.370  1.00  0.00     0.086 A 
HETATM   20  C   UNL     1      30.381  44.459  55.921  1.00  0.00     0.046 A 
HETATM   21  O   UNL     1      28.818  45.947  56.556  1.00  0.00    -0.315 OA
HETATM   22  C   UNL     1      27.262  45.733  54.683  1.00  0.00     0.039 A 
HETATM   23  C   UNL     1      30.010  45.374  56.886  1.00  0.00     0.050 A 
HETATM   24  C   UNL     1      30.638  45.830  58.142  1.00  0.00     0.077 C 
HETATM   25  C   UNL     1      27.055  45.085  53.460  1.00  0.00     0.020 A 
ENDBRANCH   2  16
TORSDOF 4
ENDMDL
MODEL 3
REMARK VINA RESULT:      -8.1      1.120      1.829
REMARK  4 active torsions:
REMARK  status: ('A' for Active; 'I' for Inactive)
REMARK    1  A    between atoms: C_2  and  C_3 
REMARK    2  A    between atoms: C_3  and  N_4 
REMARK    3  A    between atoms: C_3  and  C_17 
REMARK       I    between atoms: N_4  and  C_5 
REMARK    4  A    between atoms: C_5  and  C_6 
ROOT
HETATM    1  N   UNL     1      25.790  45.315  51.582  1.00  0.00    -0.345 N 
HETATM    2  C   UNL     1      25.725  44.617  52.774  1.00  0.00     0.252 C 
HETATM    3  O   UNL     1      24.657  44.376  53.328  1.00  0.00    -0.268 OA
HETATM    4  H   UNL     1      26.669  45.266  51.081  1.00  0.00     0.163 HD
ENDROOT
BRANCH   1   5
HETATM    5  C   UNL     1      24.577  45.562  50.796  1.00  0.00     0.152 C 
BRANCH   5   6
HETATM    6  C   UNL     1      24.302  44.414  49.818  1.00  0.00     0.028 C 
HETATM    7  C   UNL     1      23.056  43.615  50.173  1.00  0.00     0.007 C 
ENDBRANCH   5   6
BRANCH   5   8
HETATM    8  C   UNL     1      24.642  46.939  50.121  1.00  0.00     0.104 A 
HETATM    9  N   UNL     1      25.716  47.588  49.636  1.00  0.00    -0.347 N 
HETATM   10  H   UNL     1      26.666  47.231  49.676  1.00  0.00     0.167 HD
HETATM   11  C   UNL     1      25.360  48.811  49.074  1.00  0.00     0.022 A 
HETATM   12  C   UNL     1      26.331  49.729  48.457  1.00  0.00     0.069 C 
HETATM   13  C   UNL     1      24.002  48.904  49.248  1.00  0.00     0.114 A 
HETATM   14  N   UNL     1      23.607  47.760  49.884  1.00  0.00    -0.352 N 
HETATM   15  H   UNL     1      22.662  47.521  50.218  1.00  0.00     0.166 HD
ENDBRANCH   5   8
ENDBRANCH   1   5
BRANCH   2  16
HETATM   16  C   UNL     1      27.016  44.129  53.332  1.00  0.00     0.033 A 
HETATM   17  C   UNL     1      27.653  44.926  54.301  1.00  0.00     0.031 A 
HETATM   18  C   UNL     1      28.840  44.453  54.890  1.00  0.00     0.001 A 
HETATM   19  C   UNL     1      29.346  43.229  54.472  1.00  0.00     0.086 A 
HETATM   20  C   UNL     1      29.735  44.919  55.889  1.00  0.00     0.046 A 
HETATM   21  O   UNL     1      30.480  42.926  55.158  1.00  0.00    -0.315 OA
HETATM   22  C   UNL     1      28.763  42.432  53.490  1.00  0.00     0.039 A 
HETATM   23  C   UNL     1      30.710  43.952  56.025  1.00  0.00     0.050 A 
HETATM   24  C   UNL     1      31.894  43.825  56.899  1.00  0.00     0.077 C 
HETATM   25  C   UNL     1      27.577  42.909  52.919  1.00  0.00     0.020 A 
ENDBRANCH   2  16
TORSDOF 4
ENDMDL
MODEL 4
REMARK VINA RESULT:      -8.0      1.147      1.960
REMARK  4 active torsions:
REMARK  status: ('A' for Active; 'I' for Inactive)
REMARK    1  A    between atoms: C_2  and  C_3 
REMARK    2  A    between atoms: C_3  and  N_4 
REMARK    3  A    between atoms: C_3  and  C_17 
REMARK       I    between atoms: N_4  and  C_5 
REMARK    4  A    between atoms: C_5  and  C_6 
ROOT
HETATM    1  N   UNL     1      26.035  46.205  51.438  1.00  0.00    -0.345 N 
HETATM    2  C   UNL     1      25.863  45.333  52.497  1.00  0.00     0.252 C 
HETATM    3  O   UNL     1      24.810  44.728  52.676  1.00  0.00    -0.268 OA
HETATM    4  H   UNL     1      26.990  46.475  51.230  1.00  0.00     0.163 HD
ENDROOT
BRANCH   1   5
HETATM    5  C   UNL     1      25.068  46.241  50.337  1.00  0.00     0.152 C 
BRANCH   5   6
HETATM    6  C   UNL     1      25.262  45.055  49.384  1.00  0.00     0.028 C 
HETATM    7  C   UNL     1      23.980  44.270  49.143  1.00  0.00     0.007 C 
ENDBRANCH   5   6
BRANCH   5   8
HETATM    8  C   UNL     1      25.102  47.604  49.631  1.00  0.00     0.104 A 
HETATM    9  N   UNL     1      24.075  48.329  49.155  1.00  0.00    -0.347 N 
HETATM   10  H   UNL     1      23.101  48.038  49.195  1.00  0.00     0.167 HD
HETATM   11  C   UNL     1      24.512  49.529  48.600  1.00  0.00     0.022 A 
HETATM   12  C   UNL     1      23.604  50.527  48.014  1.00  0.00     0.069 C 
HETATM   13  C   UNL     1      25.878  49.510  48.739  1.00  0.00     0.114 A 
HETATM   14  N   UNL     1      26.195  48.334  49.361  1.00  0.00    -0.352 N 
HETATM   15  H   UNL     1      27.135  47.969  49.572  1.00  0.00     0.166 HD
ENDBRANCH   5   8
ENDBRANCH   1   5
BRANCH   2  16
HETATM   16  C   UNL     1      27.038  45.126  53.388  1.00  0.00     0.033 A 
HETATM   17  C   UNL     1      27.144  45.941  54.530  1.00  0.00     0.031 A 
HETATM   18  C   UNL     1      28.210  45.719  55.420  1.00  0.00     0.001 A 
HETATM   19  C   UNL     1      29.126  44.719  55.123  1.00  0.00     0.086 A 
HETATM   20  C   UNL     1      28.638  46.279  56.653  1.00  0.00     0.046 A 
HETATM   21  O   UNL     1      30.070  44.635  56.098  1.00  0.00    -0.315 OA
HETATM   22  C   UNL     1      29.072  43.918  53.985  1.00  0.00     0.039 A 
HETATM   23  C   UNL     1      29.767  45.581  57.032  1.00  0.00     0.050 A 
HETATM   24  C   UNL     1      30.658  45.658  58.207  1.00  0.00     0.077 C 
HETATM   25  C   UNL     1      28.001  44.143  53.112  1.00  0.00     0.020 A 
ENDBRANCH   2  16
TORSDOF 4
ENDMDL
MODEL 5
REMARK VINA RESULT:      -7.8      2.256      3.782
REMARK  4 active torsions:
REMARK  status: ('A' for Active; 'I' for Inactive)
REMARK    1  A    between atoms: C_2  and  C_3 
REMARK    2  A    between atoms: C_3  and  N_4 
REMARK    3  A    between atoms: C_3  and  C_17 
REMARK       I    between atoms: N_4  and  C_5 
REMARK    4  A    between atoms: C_5  and  C_6 
ROOT
HETATM    1  N   UNL     1      24.142  47.867  50.288  1.00  0.00    -0.345 N 
HETATM    2  C   UNL     1      24.595  46.560  50.313  1.00  0.00     0.252 C 
HETATM    3  O   UNL     1      24.321  45.761  49.424  1.00  0.00    -0.268 OA
HETATM    4  H   UNL     1      24.599  48.512  50.921  1.00  0.00     0.163 HD
ENDROOT
BRANCH   1   5
HETATM    5  C   UNL     1      23.541  48.424  49.073  1.00  0.00     0.152 C 
BRANCH   5   6
HETATM    6  C   UNL     1      24.279  49.688  48.614  1.00  0.00     0.028 C 
HETATM    7  C   UNL     1      25.792  49.516  48.582  1.00  0.00     0.007 C 
ENDBRANCH   5   6
BRANCH   5   8
HETATM    8  C   UNL     1      22.032  48.632  49.261  1.00  0.00     0.104 A 
HETATM    9  N   UNL     1      21.382  49.726  49.696  1.00  0.00    -0.347 N 
HETATM   10  H   UNL     1      21.840  50.588  49.981  1.00  0.00     0.167 HD
HETATM   11  C   UNL     1      20.004  49.530  49.706  1.00  0.00     0.022 A 
HETATM   12  C   UNL     1      19.043  50.563  50.124  1.00  0.00     0.069 C 
HETATM   13  C   UNL     1      19.823  48.241  49.269  1.00  0.00     0.114 A 
HETATM   14  N   UNL     1      21.067  47.733  49.014  1.00  0.00    -0.352 N 
HETATM   15  H   UNL     1      21.306  46.774  48.723  1.00  0.00     0.166 HD
ENDBRANCH   5   8
ENDBRANCH   1   5
BRANCH   2  16
HETATM   16  C   UNL     1      25.476  46.183  51.452  1.00  0.00     0.033 A 
HETATM   17  C   UNL     1      26.265  45.025  51.313  1.00  0.00     0.031 A 
HETATM   18  C   UNL     1      27.153  44.686  52.349  1.00  0.00     0.001 A 
HETATM   19  C   UNL     1      27.198  45.495  53.477  1.00  0.00     0.086 A 
HETATM   20  C   UNL     1      28.108  43.659  52.574  1.00  0.00     0.046 A 
HETATM   21  O   UNL     1      28.120  45.027  54.360  1.00  0.00    -0.315 OA
HETATM   22  C   UNL     1      26.407  46.626  53.664  1.00  0.00     0.039 A 
HETATM   23  C   UNL     1      28.678  43.915  53.805  1.00  0.00     0.050 A 
HETATM   24  C   UNL     1      29.735  43.244  54.589  1.00  0.00     0.077 C 
HETATM   25  C   UNL     1      25.534  46.958  52.621  1.00  0.00     0.020 A 
ENDBRANCH   2  16
TORSDOF 4
ENDMDL
MODEL 6
REMARK VINA RESULT:      -7.7      2.537      4.818
REMARK  4 active torsions:
REMARK  status: ('A' for Active; 'I' for Inactive)
REMARK    1  A    between atoms: C_2  and  C_3 
REMARK    2  A    between atoms: C_3  and  N_4 
REMARK    3  A    between atoms: C_3  and  C_17 
REMARK       I    between atoms: N_4  and  C_5 
REMARK    4  A    between atoms: C_5  and  C_6 
ROOT
HETATM    1  N   UNL     1      23.710  48.304  49.615  1.00  0.00    -0.345 N 
HETATM    2  C   UNL     1      23.860  46.935  49.486  1.00  0.00     0.252 C 
HETATM    3  O   UNL     1      23.224  46.287  48.660  1.00  0.00    -0.268 OA
HETATM    4  H   UNL     1      24.428  48.785  50.144  1.00  0.00     0.163 HD
ENDROOT
BRANCH   1   5
HETATM    5  C   UNL     1      22.991  49.074  48.596  1.00  0.00     0.152 C 
BRANCH   5   6
HETATM    6  C   UNL     1      23.819  50.270  48.111  1.00  0.00     0.028 C 
HETATM    7  C   UNL     1      25.305  49.959  47.999  1.00  0.00     0.007 C 
ENDBRANCH   5   6
BRANCH   5   8
HETATM    8  C   UNL     1      21.593  49.462  49.098  1.00  0.00     0.104 A 
HETATM    9  N   UNL     1      21.012  50.674  49.112  1.00  0.00    -0.347 N 
HETATM   10  H   UNL     1      21.459  51.527  48.786  1.00  0.00     0.167 HD
HETATM   11  C   UNL     1      19.720  50.614  49.627  1.00  0.00     0.022 A 
HETATM   12  C   UNL     1      18.843  51.789  49.749  1.00  0.00     0.069 C 
HETATM   13  C   UNL     1      19.527  49.295  49.955  1.00  0.00     0.114 A 
HETATM   14  N   UNL     1      20.677  48.634  49.624  1.00  0.00    -0.352 N 
HETATM   15  H   UNL     1      20.899  47.641  49.785  1.00  0.00     0.166 HD
ENDBRANCH   5   8
ENDBRANCH   1   5
BRANCH   2  16
HETATM   16  C   UNL     1      24.868  46.288  50.370  1.00  0.00     0.033 A 
HETATM   17  C   UNL     1      25.178  46.929  51.585  1.00  0.00     0.031 A 
HETATM   18  C   UNL     1      26.079  46.303  52.466  1.00  0.00     0.001 A 
HETATM   19  C   UNL     1      26.641  45.090  52.090  1.00  0.00     0.086 A 
HETATM   20  C   UNL     1      26.608  46.591  53.752  1.00  0.00     0.046 A 
HETATM   21  O   UNL     1      27.466  44.628  53.067  1.00  0.00    -0.315 OA
HETATM   22  C   UNL     1      26.385  44.447  50.882  1.00  0.00     0.039 A 
HETATM   23  C   UNL     1      27.439  45.539  54.080  1.00  0.00     0.050 A 
HETATM   24  C   UNL     1      28.256  45.228  55.270  1.00  0.00     0.077 C 
HETATM   25  C   UNL     1      25.480  45.075  50.018  1.00  0.00     0.020 A 
ENDBRANCH   2  16
TORSDOF 4
ENDMDL
MODEL 7
REMARK VINA RESULT:      -7.7      1.862      2.626
REMARK  4 active torsions:
REMARK  status: ('A' for Active; 'I' for Inactive)
REMARK    1  A    between atoms: C_2  and  C_3 
REMARK    2  A    between atoms: C_3  and  N_4 
REMARK    3  A    between atoms: C_3  and  C_17 
REMARK       I    between atoms: N_4  and  C_5 
REMARK    4  A    between atoms: C_5  and  C_6 
ROOT
HETATM    1  N   UNL     1      25.945  43.564  52.417  1.00  0.00    -0.345 N 
HETATM    2  C   UNL     1      27.285  43.558  52.073  1.00  0.00     0.252 C 
HETATM    3  O   UNL     1      27.656  43.416  50.912  1.00  0.00    -0.268 OA
HETATM    4  H   UNL     1      25.721  43.917  53.340  1.00  0.00     0.163 HD
ENDROOT
BRANCH   1   5
HETATM    5  C   UNL     1      24.911  43.672  51.384  1.00  0.00     0.152 C 
BRANCH   5   6
HETATM    6  C   UNL     1      25.044  42.554  50.342  1.00  0.00     0.028 C 
HETATM    7  C   UNL     1      23.756  42.305  49.569  1.00  0.00     0.007 C 
ENDBRANCH   5   6
BRANCH   5   8
HETATM    8  C   UNL     1      24.902  45.079  50.772  1.00  0.00     0.104 A 
HETATM    9  N   UNL     1      25.938  45.908  50.555  1.00  0.00    -0.347 N 
HETATM   10  H   UNL     1      26.902  45.695  50.798  1.00  0.00     0.167 HD
HETATM   11  C   UNL     1      25.525  47.096  49.957  1.00  0.00     0.022 A 
HETATM   12  C   UNL     1      26.448  48.182  49.593  1.00  0.00     0.069 C 
HETATM   13  C   UNL     1      24.164  46.974  49.825  1.00  0.00     0.114 A 
HETATM   14  N   UNL     1      23.826  45.749  50.329  1.00  0.00    -0.352 N 
HETATM   15  H   UNL     1      22.881  45.353  50.438  1.00  0.00     0.166 HD
ENDBRANCH   5   8
ENDBRANCH   1   5
BRANCH   2  16
HETATM   16  C   UNL     1      28.257  43.778  53.178  1.00  0.00     0.033 A 
HETATM   17  C   UNL     1      28.001  44.834  54.073  1.00  0.00     0.031 A 
HETATM   18  C   UNL     1      28.871  45.019  55.163  1.00  0.00     0.001 A 
HETATM   19  C   UNL     1      29.959  44.167  55.297  1.00  0.00     0.086 A 
HETATM   20  C   UNL     1      28.942  45.911  56.267  1.00  0.00     0.046 A 
HETATM   21  O   UNL     1      30.673  44.482  56.411  1.00  0.00    -0.315 OA
HETATM   22  C   UNL     1      30.263  43.137  54.411  1.00  0.00     0.039 A 
HETATM   23  C   UNL     1      30.048  45.538  57.003  1.00  0.00     0.050 A 
HETATM   24  C   UNL     1      30.646  46.041  58.257  1.00  0.00     0.077 C 
HETATM   25  C   UNL     1      29.385  42.956  53.336  1.00  0.00     0.020 A 
ENDBRANCH   2  16
TORSDOF 4
ENDMDL
MODEL 8
REMARK VINA RESULT:      -7.6      4.933      6.581
REMARK  4 active torsions:
REMARK  status: ('A' for Active; 'I' for Inactive)
REMARK    1  A    between atoms: C_2  and  C_3 
REMARK    2  A    between atoms: C_3  and  N_4 
REMARK    3  A    between atoms: C_3  and  C_17 
REMARK       I    between atoms: N_4  and  C_5 
REMARK    4  A    between atoms: C_5  and  C_6 
ROOT
HETATM    1  N   UNL     1      28.806  40.404  50.481  1.00  0.00    -0.345 N 
HETATM    2  C   UNL     1      27.682  40.897  51.120  1.00  0.00     0.252 C 
HETATM    3  O   UNL     1      26.556  40.477  50.870  1.00  0.00    -0.268 OA
HETATM    4  H   UNL     1      29.698  40.631  50.906  1.00  0.00     0.163 HD
ENDROOT
BRANCH   1   5
HETATM    5  C   UNL     1      28.730  39.179  49.680  1.00  0.00     0.152 C 
BRANCH   5   6
HETATM    6  C   UNL     1      29.984  38.315  49.861  1.00  0.00     0.028 C 
HETATM    7  C   UNL     1      29.980  37.524  51.163  1.00  0.00     0.007 C 
ENDBRANCH   5   6
BRANCH   5   8
HETATM    8  C   UNL     1      28.422  39.510  48.214  1.00  0.00     0.104 A 
HETATM    9  N   UNL     1      28.055  38.677  47.224  1.00  0.00    -0.347 N 
HETATM   10  H   UNL     1      27.945  37.672  47.332  1.00  0.00     0.167 HD
HETATM   11  C   UNL     1      27.843  39.365  46.032  1.00  0.00     0.022 A 
HETATM   12  C   UNL     1      27.421  38.709  44.784  1.00  0.00     0.069 C 
HETATM   13  C   UNL     1      28.116  40.678  46.323  1.00  0.00     0.114 A 
HETATM   14  N   UNL     1      28.464  40.724  47.645  1.00  0.00    -0.352 N 
HETATM   15  H   UNL     1      28.783  41.544  48.182  1.00  0.00     0.166 HD
ENDBRANCH   5   8
ENDBRANCH   1   5
BRANCH   2  16
HETATM   16  C   UNL     1      27.909  41.935  52.162  1.00  0.00     0.033 A 
HETATM   17  C   UNL     1      29.082  41.839  52.935  1.00  0.00     0.031 A 
HETATM   18  C   UNL     1      29.350  42.846  53.881  1.00  0.00     0.001 A 
HETATM   19  C   UNL     1      28.435  43.879  54.028  1.00  0.00     0.086 A 
HETATM   20  C   UNL     1      30.397  43.124  54.799  1.00  0.00     0.046 A 
HETATM   21  O   UNL     1      28.866  44.763  54.967  1.00  0.00    -0.315 OA
HETATM   22  C   UNL     1      27.248  43.986  53.307  1.00  0.00     0.039 A 
HETATM   23  C   UNL     1      30.064  44.306  55.429  1.00  0.00     0.050 A 
HETATM   24  C   UNL     1      30.735  45.131  56.454  1.00  0.00     0.077 C 
HETATM   25  C   UNL     1      26.998  42.984  52.363  1.00  0.00     0.020 A 
ENDBRANCH   2  16
TORSDOF 4
ENDMDL
MODEL 9
REMARK VINA RESULT:      -7.4      3.476      5.232
REMARK  4 active torsions:
REMARK  status: ('A' for Active; 'I' for Inactive)
REMARK    1  A    between atoms: C_2  and  C_3 
REMARK    2  A    between atoms: C_3  and  N_4 
REMARK    3  A    between atoms: C_3  and  C_17 
REMARK       I    between atoms: N_4  and  C_5 
REMARK    4  A    between atoms: C_5  and  C_6 
ROOT
HETATM    1  N   UNL     1      26.408  42.941  51.804  1.00  0.00    -0.345 N 
HETATM    2  C   UNL     1      27.252  44.037  51.786  1.00  0.00     0.252 C 
HETATM    3  O   UNL     1      27.695  44.498  50.739  1.00  0.00    -0.268 OA
HETATM    4  H   UNL     1      25.909  42.775  52.670  1.00  0.00     0.163 HD
ENDROOT
BRANCH   1   5
HETATM    5  C   UNL     1      25.796  42.452  50.566  1.00  0.00     0.152 C 
BRANCH   5   6
HETATM    6  C   UNL     1      24.270  42.364  50.694  1.00  0.00     0.028 C 
HETATM    7  C   UNL     1      23.538  43.316  49.757  1.00  0.00     0.007 C 
ENDBRANCH   5   6
BRANCH   5   8
HETATM    8  C   UNL     1      26.448  41.135  50.123  1.00  0.00     0.104 A 
HETATM    9  N   UNL     1      27.727  40.907  49.775  1.00  0.00    -0.347 N 
HETATM   10  H   UNL     1      28.450  41.621  49.748  1.00  0.00     0.167 HD
HETATM   11  C   UNL     1      27.936  39.568  49.456  1.00  0.00     0.022 A 
HETATM   12  C   UNL     1      29.244  39.028  49.051  1.00  0.00     0.069 C 
HETATM   13  C   UNL     1      26.710  38.968  49.606  1.00  0.00     0.114 A 
HETATM   14  N   UNL     1      25.841  39.945  50.005  1.00  0.00    -0.352 N 
HETATM   15  H   UNL     1      24.825  39.857  50.158  1.00  0.00     0.166 HD
ENDBRANCH   5   8
ENDBRANCH   1   5
BRANCH   2  16
HETATM   16  C   UNL     1      27.561  44.662  53.102  1.00  0.00     0.033 A 
HETATM   17  C   UNL     1      28.701  44.207  53.790  1.00  0.00     0.031 A 
HETATM   18  C   UNL     1      29.050  44.829  55.003  1.00  0.00     0.001 A 
HETATM   19  C   UNL     1      28.241  45.850  55.481  1.00  0.00     0.086 A 
HETATM   20  C   UNL     1      30.099  44.693  55.949  1.00  0.00     0.046 A 
HETATM   21  O   UNL     1      28.738  46.342  56.647  1.00  0.00    -0.315 OA
HETATM   22  C   UNL     1      27.086  46.301  54.846  1.00  0.00     0.039 A 
HETATM   23  C   UNL     1      29.873  45.642  56.926  1.00  0.00     0.050 A 
HETATM   24  C   UNL     1      30.602  46.026  58.152  1.00  0.00     0.077 C 
HETATM   25  C   UNL     1      26.756  45.681  53.635  1.00  0.00     0.020 A 
ENDBRANCH   2  16
TORSDOF 4
ENDMDL
MODEL 10
REMARK VINA RESULT:      -7.3      1.638      2.101
REMARK  4 active torsions:
REMARK  status: ('A' for Active; 'I' for Inactive)
REMARK    1  A    between atoms: C_2  and  C_3 
REMARK    2  A    between atoms: C_3  and  N_4 
REMARK    3  A    between atoms: C_3  and  C_17 
REMARK       I    between atoms: N_4  and  C_5 
REMARK    4  A    between atoms: C_5  and  C_6 
ROOT
HETATM    1  N   UNL     1      25.520  43.770  51.811  1.00  0.00    -0.345 N 
HETATM    2  C   UNL     1      26.853  44.108  51.659  1.00  0.00     0.252 C 
HETATM    3  O   UNL     1      27.362  44.260  50.553  1.00  0.00    -0.268 OA
HETATM    4  H   UNL     1      25.129  43.895  52.737  1.00  0.00     0.163 HD
ENDROOT
BRANCH   1   5
HETATM    5  C   UNL     1      24.599  43.843  50.673  1.00  0.00     0.152 C 
BRANCH   5   6
HETATM    6  C   UNL     1      25.083  42.974  49.506  1.00  0.00     0.028 C 
HETATM    7  C   UNL     1      23.951  42.235  48.803  1.00  0.00     0.007 C 
ENDBRANCH   5   6
BRANCH   5   8
HETATM    8  C   UNL     1      24.338  45.303  50.280  1.00  0.00     0.104 A 
HETATM    9  N   UNL     1      23.392  45.797  49.462  1.00  0.00    -0.347 N 
HETATM   10  H   UNL     1      22.708  45.229  48.968  1.00  0.00     0.167 HD
HETATM   11  C   UNL     1      23.466  47.185  49.377  1.00  0.00     0.022 A 
HETATM   12  C   UNL     1      22.546  47.996  48.564  1.00  0.00     0.069 C 
HETATM   13  C   UNL     1      24.526  47.536  50.176  1.00  0.00     0.114 A 
HETATM   14  N   UNL     1      25.026  46.376  50.699  1.00  0.00    -0.352 N 
HETATM   15  H   UNL     1      25.857  46.264  51.298  1.00  0.00     0.166 HD
ENDBRANCH   5   8
ENDBRANCH   1   5
BRANCH   2  16
HETATM   16  C   UNL     1      27.631  44.325  52.909  1.00  0.00     0.033 A 
HETATM   17  C   UNL     1      28.652  43.404  53.212  1.00  0.00     0.031 A 
HETATM   18  C   UNL     1      29.444  43.626  54.353  1.00  0.00     0.001 A 
HETATM   19  C   UNL     1      29.170  44.732  55.146  1.00  0.00     0.086 A 
HETATM   20  C   UNL     1      30.550  42.978  54.964  1.00  0.00     0.046 A 
HETATM   21  O   UNL     1      30.042  44.796  56.187  1.00  0.00    -0.315 OA
HETATM   22  C   UNL     1      28.146  45.643  54.897  1.00  0.00     0.039 A 
HETATM   23  C   UNL     1      30.886  43.732  56.070  1.00  0.00     0.050 A 
HETATM   24  C   UNL     1      31.943  43.611  57.095  1.00  0.00     0.077 C 
HETATM   25  C   UNL     1      27.371  45.416  53.753  1.00  0.00     0.020 A 
ENDBRANCH   2  16
TORSDOF 4
ENDMDL
