MODEL 1
REMARK VINA RESULT:      -8.7      0.000      0.000
REMARK  7 active torsions:
REMARK  status: ('A' for Active; 'I' for Inactive)
REMARK    1  A    between atoms: N_2  and  C_4 
REMARK    2  A    between atoms: N_2  and  C_10 
REMARK    3  A    between atoms: C_10  and  C_11 
REMARK    4  A    between atoms: C_12  and  N_13 
REMARK       I    between atoms: N_13  and  C_14 
REMARK       I    between atoms: C_14  and  N_15 
REMARK    5  A    between atoms: N_15  and  C_16 
REMARK    6  A    between atoms: C_16  and  C_17 
REMARK    7  A    between atoms: C_17  and  C_18 
ROOT
HETATM    1  C   UNL     1      24.305  48.329  49.097  1.00  0.00    -0.006 A 
HETATM    2  C   UNL     1      25.512  47.899  49.688  1.00  0.00     0.044 A 
HETATM    3  C   UNL     1      26.702  48.589  49.356  1.00  0.00     0.030 A 
HETATM    4  C   UNL     1      26.713  49.693  48.504  1.00  0.00     0.002 A 
HETATM    5  C   UNL     1      25.528  50.140  47.952  1.00  0.00     0.001 A 
HETATM    6  C   UNL     1      24.345  49.466  48.242  1.00  0.00     0.011 A 
ENDROOT
BRANCH   2   7
HETATM    7  N   UNL     1      25.738  46.845  50.609  1.00  0.00    -0.308 N 
HETATM    8  C   UNL     1      25.657  46.798  51.971  1.00  0.00     0.320 C 
HETATM    9  N   UNL     1      26.122  45.609  52.476  1.00  0.00    -0.343 N 
HETATM   10  O   UNL     1      25.296  47.711  52.701  1.00  0.00    -0.247 OA
HETATM   11  H   UNL     1      26.194  44.799  51.876  1.00  0.00     0.164 HD
HETATM   12  H   UNL     1      26.204  46.036  50.220  1.00  0.00     0.170 HD
BRANCH   9  13
HETATM   13  C   UNL     1      26.222  45.379  53.910  1.00  0.00     0.130 C 
BRANCH  13  14
HETATM   14  C   UNL     1      27.520  45.942  54.496  1.00  0.00     0.079 C 
BRANCH  14  15
HETATM   15  C   UNL     1      28.627  44.914  54.532  1.00  0.00     0.042 A 
HETATM   16  N   UNL     1      28.682  44.051  53.460  1.00  0.00    -0.248 NA
HETATM   17  C   UNL     1      29.624  43.166  53.467  1.00  0.00     0.210 A 
HETATM   18  N   UNL     1      30.555  43.045  54.453  1.00  0.00    -0.318 N 
HETATM   19  C   UNL     1      30.571  43.882  55.527  1.00  0.00     0.248 A 
HETATM   20  H   UNL     1      31.280  42.344  54.409  1.00  0.00     0.169 HD
HETATM   21  O   UNL     1      31.422  43.839  56.405  1.00  0.00    -0.268 OA
HETATM   22  C   UNL     1      29.495  44.879  55.554  1.00  0.00     0.101 A 
ENDBRANCH  14  15
ENDBRANCH  13  14
ENDBRANCH   9  13
ENDBRANCH   2   7
BRANCH   1  23
HETATM   23  C   UNL     1      22.944  47.673  49.201  1.00  0.00     0.275 C 
BRANCH  23  24
HETATM   24  N   UNL     1      21.822  48.167  48.297  1.00  0.00    -0.067 N 
HETATM   25  C   UNL     1      21.484  47.184  47.207  1.00  0.00     0.270 C 
HETATM   26  H   UNL     1      22.287  48.967  47.819  1.00  0.00     0.280 HD
BRANCH  24  27
HETATM   27  C   UNL     1      20.584  48.709  49.011  1.00  0.00     0.188 C 
HETATM   28  C   UNL     1      20.853  49.967  49.858  1.00  0.00     0.033 C 
HETATM   29  C   UNL     1      21.102  51.228  49.034  1.00  0.00     0.002 C 
HETATM   30  C   UNL     1      19.960  51.488  48.061  1.00  0.00     0.000 C 
HETATM   31  C   UNL     1      19.686  50.279  47.176  1.00  0.00     0.002 C 
HETATM   32  C   UNL     1      19.455  49.014  48.004  1.00  0.00     0.033 C 
ENDBRANCH  24  27
ENDBRANCH  23  24
ENDBRANCH   1  23
TORSDOF 7
ENDMDL
MODEL 2
REMARK VINA RESULT:      -8.6      3.273      9.920
REMARK  7 active torsions:
REMARK  status: ('A' for Active; 'I' for Inactive)
REMARK    1  A    between atoms: N_2  and  C_4 
REMARK    2  A    between atoms: N_2  and  C_10 
REMARK    3  A    between atoms: C_10  and  C_11 
REMARK    4  A    between atoms: C_12  and  N_13 
REMARK       I    between atoms: N_13  and  C_14 
REMARK       I    between atoms: C_14  and  N_15 
REMARK    5  A    between atoms: N_15  and  C_16 
REMARK    6  A    between atoms: C_16  and  C_17 
REMARK    7  A    between atoms: C_17  and  C_18 
ROOT
HETATM    1  C   UNL     1      25.714  47.318  49.938  1.00  0.00    -0.006 A 
HETATM    2  C   UNL     1      24.694  48.215  49.557  1.00  0.00     0.044 A 
HETATM    3  C   UNL     1      25.067  49.402  48.883  1.00  0.00     0.030 A 
HETATM    4  C   UNL     1      26.389  49.691  48.552  1.00  0.00     0.002 A 
HETATM    5  C   UNL     1      27.387  48.798  48.890  1.00  0.00     0.001 A 
HETATM    6  C   UNL     1      27.054  47.632  49.575  1.00  0.00     0.011 A 
ENDROOT
BRANCH   2   7
HETATM    7  N   UNL     1      23.292  48.115  49.740  1.00  0.00    -0.308 N 
HETATM    8  C   UNL     1      22.266  48.005  48.846  1.00  0.00     0.320 C 
HETATM    9  N   UNL     1      21.038  48.100  49.453  1.00  0.00    -0.343 N 
HETATM   10  O   UNL     1      22.379  47.912  47.631  1.00  0.00    -0.247 OA
HETATM   11  H   UNL     1      20.953  47.944  50.447  1.00  0.00     0.164 HD
HETATM   12  H   UNL     1      22.971  48.332  50.674  1.00  0.00     0.170 HD
BRANCH   9  13
HETATM   13  C   UNL     1      19.805  48.109  48.677  1.00  0.00     0.130 C 
BRANCH  13  14
HETATM   14  C   UNL     1      18.643  48.741  49.449  1.00  0.00     0.079 C 
BRANCH  14  15
HETATM   15  C   UNL     1      18.564  50.237  49.246  1.00  0.00     0.042 A 
HETATM   16  N   UNL     1      19.571  50.796  48.491  1.00  0.00    -0.248 NA
HETATM   17  C   UNL     1      19.522  52.073  48.301  1.00  0.00     0.210 A 
HETATM   18  N   UNL     1      18.543  52.884  48.791  1.00  0.00    -0.318 N 
HETATM   19  C   UNL     1      17.507  52.390  49.523  1.00  0.00     0.248 A 
HETATM   20  H   UNL     1      18.541  53.877  48.607  1.00  0.00     0.169 HD
HETATM   21  O   UNL     1      16.582  53.078  49.935  1.00  0.00    -0.268 OA
HETATM   22  C   UNL     1      17.555  50.945  49.775  1.00  0.00     0.101 A 
ENDBRANCH  14  15
ENDBRANCH  13  14
ENDBRANCH   9  13
ENDBRANCH   2   7
BRANCH   1  23
HETATM   23  C   UNL     1      25.571  46.061  50.771  1.00  0.00     0.275 C 
BRANCH  23  24
HETATM   24  N   UNL     1      26.200  46.027  52.158  1.00  0.00    -0.067 N 
HETATM   25  C   UNL     1      25.739  47.165  53.029  1.00  0.00     0.270 C 
HETATM   26  H   UNL     1      27.195  46.231  51.932  1.00  0.00     0.280 HD
BRANCH  24  27
HETATM   27  C   UNL     1      26.154  44.677  52.874  1.00  0.00     0.188 C 
HETATM   28  C   UNL     1      26.881  43.547  52.122  1.00  0.00     0.033 C 
HETATM   29  C   UNL     1      28.404  43.665  52.144  1.00  0.00     0.002 C 
HETATM   30  C   UNL     1      28.929  43.766  53.570  1.00  0.00     0.000 C 
HETATM   31  C   UNL     1      28.262  44.899  54.339  1.00  0.00     0.002 C 
HETATM   32  C   UNL     1      26.736  44.787  54.299  1.00  0.00     0.033 C 
ENDBRANCH  24  27
ENDBRANCH  23  24
ENDBRANCH   1  23
TORSDOF 7
ENDMDL
MODEL 3
REMARK VINA RESULT:      -8.6      4.645      8.773
REMARK  7 active torsions:
REMARK  status: ('A' for Active; 'I' for Inactive)
REMARK    1  A    between atoms: N_2  and  C_4 
REMARK    2  A    between atoms: N_2  and  C_10 
REMARK    3  A    between atoms: C_10  and  C_11 
REMARK    4  A    between atoms: C_12  and  N_13 
REMARK       I    between atoms: N_13  and  C_14 
REMARK       I    between atoms: C_14  and  N_15 
REMARK    5  A    between atoms: N_15  and  C_16 
REMARK    6  A    between atoms: C_16  and  C_17 
REMARK    7  A    between atoms: C_17  and  C_18 
ROOT
HETATM    1  C   UNL     1      26.101  44.807  53.443  1.00  0.00    -0.006 A 
HETATM    2  C   UNL     1      25.843  44.478  52.095  1.00  0.00     0.044 A 
HETATM    3  C   UNL     1      25.401  45.505  51.228  1.00  0.00     0.030 A 
HETATM    4  C   UNL     1      25.253  46.825  51.649  1.00  0.00     0.002 A 
HETATM    5  C   UNL     1      25.540  47.160  52.958  1.00  0.00     0.001 A 
HETATM    6  C   UNL     1      25.954  46.166  53.840  1.00  0.00     0.011 A 
ENDROOT
BRANCH   2   7
HETATM    7  N   UNL     1      25.967  43.229  51.434  1.00  0.00    -0.308 N 
HETATM    8  C   UNL     1      26.620  42.869  50.291  1.00  0.00     0.320 C 
HETATM    9  N   UNL     1      26.341  41.577  49.921  1.00  0.00    -0.343 N 
HETATM   10  O   UNL     1      27.316  43.601  49.600  1.00  0.00    -0.247 OA
HETATM   11  H   UNL     1      25.968  40.926  50.598  1.00  0.00     0.164 HD
HETATM   12  H   UNL     1      25.329  42.514  51.758  1.00  0.00     0.170 HD
BRANCH   9  13
HETATM   13  C   UNL     1      26.851  41.015  48.678  1.00  0.00     0.130 C 
BRANCH  13  14
HETATM   14  C   UNL     1      28.250  40.416  48.846  1.00  0.00     0.079 C 
BRANCH  14  15
HETATM   15  C   UNL     1      28.215  39.032  49.451  1.00  0.00     0.042 A 
HETATM   16  N   UNL     1      27.055  38.316  49.250  1.00  0.00    -0.248 NA
HETATM   17  C   UNL     1      27.004  37.128  49.756  1.00  0.00     0.210 A 
HETATM   18  N   UNL     1      28.018  36.550  50.458  1.00  0.00    -0.318 N 
HETATM   19  C   UNL     1      29.198  37.193  50.671  1.00  0.00     0.248 A 
HETATM   20  H   UNL     1      27.935  35.613  50.825  1.00  0.00     0.169 HD
HETATM   21  O   UNL     1      30.150  36.687  51.250  1.00  0.00    -0.268 OA
HETATM   22  C   UNL     1      29.270  38.555  50.128  1.00  0.00     0.101 A 
ENDBRANCH  14  15
ENDBRANCH  13  14
ENDBRANCH   9  13
ENDBRANCH   2   7
BRANCH   1  23
HETATM   23  C   UNL     1      26.455  43.861  54.571  1.00  0.00     0.275 C 
BRANCH  23  24
HETATM   24  N   UNL     1      27.825  43.196  54.565  1.00  0.00    -0.067 N 
HETATM   25  C   UNL     1      27.823  41.875  53.844  1.00  0.00     0.270 C 
HETATM   26  H   UNL     1      27.941  42.966  55.573  1.00  0.00     0.280 HD
BRANCH  24  27
HETATM   27  C   UNL     1      28.996  44.092  54.158  1.00  0.00     0.188 C 
HETATM   28  C   UNL     1      29.077  45.410  54.949  1.00  0.00     0.033 C 
HETATM   29  C   UNL     1      29.531  45.239  56.397  1.00  0.00     0.002 C 
HETATM   30  C   UNL     1      30.859  44.499  56.477  1.00  0.00     0.000 C 
HETATM   31  C   UNL     1      30.810  43.168  55.737  1.00  0.00     0.002 C 
HETATM   32  C   UNL     1      30.338  43.342  54.292  1.00  0.00     0.033 C 
ENDBRANCH  24  27
ENDBRANCH  23  24
ENDBRANCH   1  23
TORSDOF 7
ENDMDL
MODEL 4
REMARK VINA RESULT:      -8.3      2.223      2.780
REMARK  7 active torsions:
REMARK  status: ('A' for Active; 'I' for Inactive)
REMARK    1  A    between atoms: N_2  and  C_4 
REMARK    2  A    between atoms: N_2  and  C_10 
REMARK    3  A    between atoms: C_10  and  C_11 
REMARK    4  A    between atoms: C_12  and  N_13 
REMARK       I    between atoms: N_13  and  C_14 
REMARK       I    between atoms: C_14  and  N_15 
REMARK    5  A    between atoms: N_15  and  C_16 
REMARK    6  A    between atoms: C_16  and  C_17 
REMARK    7  A    between atoms: C_17  and  C_18 
ROOT
HETATM    1  C   UNL     1      22.140  48.997  48.828  1.00  0.00    -0.006 A 
HETATM    2  C   UNL     1      23.382  48.403  49.138  1.00  0.00     0.044 A 
HETATM    3  C   UNL     1      24.561  49.069  48.730  1.00  0.00     0.030 A 
HETATM    4  C   UNL     1      24.537  50.300  48.076  1.00  0.00     0.002 A 
HETATM    5  C   UNL     1      23.325  50.903  47.804  1.00  0.00     0.001 A 
HETATM    6  C   UNL     1      22.146  50.260  48.172  1.00  0.00     0.011 A 
ENDROOT
BRANCH   2   7
HETATM    7  N   UNL     1      23.654  47.195  49.828  1.00  0.00    -0.308 N 
HETATM    8  C   UNL     1      24.672  46.839  50.666  1.00  0.00     0.320 C 
HETATM    9  N   UNL     1      24.636  45.504  50.986  1.00  0.00    -0.343 N 
HETATM   10  O   UNL     1      25.577  47.569  51.048  1.00  0.00    -0.247 OA
HETATM   11  H   UNL     1      23.782  44.978  50.864  1.00  0.00     0.164 HD
HETATM   12  H   UNL     1      23.108  46.400  49.524  1.00  0.00     0.170 HD
BRANCH   9  13
HETATM   13  C   UNL     1      25.683  44.886  51.788  1.00  0.00     0.130 C 
BRANCH  13  14
HETATM   14  C   UNL     1      25.353  44.906  53.283  1.00  0.00     0.079 C 
BRANCH  14  15
HETATM   15  C   UNL     1      26.264  45.828  54.061  1.00  0.00     0.042 A 
HETATM   16  N   UNL     1      25.736  47.056  54.393  1.00  0.00    -0.248 NA
HETATM   17  C   UNL     1      26.496  47.859  55.062  1.00  0.00     0.210 A 
HETATM   18  N   UNL     1      27.765  47.562  55.457  1.00  0.00    -0.318 N 
HETATM   19  C   UNL     1      28.336  46.358  55.183  1.00  0.00     0.248 A 
HETATM   20  H   UNL     1      28.318  48.220  55.989  1.00  0.00     0.169 HD
HETATM   21  O   UNL     1      29.452  46.035  55.566  1.00  0.00    -0.268 OA
HETATM   22  C   UNL     1      27.501  45.438  54.401  1.00  0.00     0.101 A 
ENDBRANCH  14  15
ENDBRANCH  13  14
ENDBRANCH   9  13
ENDBRANCH   2   7
BRANCH   1  23
HETATM   23  C   UNL     1      20.760  48.413  49.048  1.00  0.00     0.275 C 
BRANCH  23  24
HETATM   24  N   UNL     1      19.617  48.883  48.157  1.00  0.00    -0.067 N 
HETATM   25  C   UNL     1      19.196  47.838  47.159  1.00  0.00     0.270 C 
HETATM   26  H   UNL     1      20.087  49.627  47.603  1.00  0.00     0.280 HD
BRANCH  24  27
HETATM   27  C   UNL     1      18.431  49.522  48.881  1.00  0.00     0.188 C 
HETATM   28  C   UNL     1      18.835  50.425  50.062  1.00  0.00     0.033 C 
HETATM   29  C   UNL     1      19.472  51.748  49.643  1.00  0.00     0.002 C 
HETATM   30  C   UNL     1      18.574  52.515  48.682  1.00  0.00     0.000 C 
HETATM   31  C   UNL     1      18.182  51.668  47.477  1.00  0.00     0.002 C 
HETATM   32  C   UNL     1      17.560  50.336  47.901  1.00  0.00     0.033 C 
ENDBRANCH  24  27
ENDBRANCH  23  24
ENDBRANCH   1  23
TORSDOF 7
ENDMDL
MODEL 5
REMARK VINA RESULT:      -8.0      2.197      2.532
REMARK  7 active torsions:
REMARK  status: ('A' for Active; 'I' for Inactive)
REMARK    1  A    between atoms: N_2  and  C_4 
REMARK    2  A    between atoms: N_2  and  C_10 
REMARK    3  A    between atoms: C_10  and  C_11 
REMARK    4  A    between atoms: C_12  and  N_13 
REMARK       I    between atoms: N_13  and  C_14 
REMARK       I    between atoms: C_14  and  N_15 
REMARK    5  A    between atoms: N_15  and  C_16 
REMARK    6  A    between atoms: C_16  and  C_17 
REMARK    7  A    between atoms: C_17  and  C_18 
ROOT
HETATM    1  C   UNL     1      23.139  48.449  48.874  1.00  0.00    -0.006 A 
HETATM    2  C   UNL     1      24.314  47.895  49.426  1.00  0.00     0.044 A 
HETATM    3  C   UNL     1      25.540  48.561  49.193  1.00  0.00     0.030 A 
HETATM    4  C   UNL     1      25.617  49.756  48.479  1.00  0.00     0.002 A 
HETATM    5  C   UNL     1      24.465  50.321  47.969  1.00  0.00     0.001 A 
HETATM    6  C   UNL     1      23.246  49.676  48.162  1.00  0.00     0.011 A 
ENDROOT
BRANCH   2   7
HETATM    7  N   UNL     1      24.474  46.729  50.217  1.00  0.00    -0.308 N 
HETATM    8  C   UNL     1      24.944  46.553  51.486  1.00  0.00     0.320 C 
HETATM    9  N   UNL     1      25.082  45.225  51.807  1.00  0.00    -0.343 N 
HETATM   10  O   UNL     1      25.292  47.440  52.254  1.00  0.00    -0.247 OA
HETATM   11  H   UNL     1      24.587  44.523  51.275  1.00  0.00     0.164 HD
HETATM   12  H   UNL     1      24.392  45.858  49.709  1.00  0.00     0.170 HD
BRANCH   9  13
HETATM   13  C   UNL     1      25.662  44.805  53.075  1.00  0.00     0.130 C 
BRANCH  13  14
HETATM   14  C   UNL     1      27.182  44.642  52.989  1.00  0.00     0.079 C 
BRANCH  14  15
HETATM   15  C   UNL     1      27.591  43.223  52.671  1.00  0.00     0.042 A 
HETATM   16  N   UNL     1      27.884  42.423  53.753  1.00  0.00    -0.248 NA
HETATM   17  C   UNL     1      28.232  41.204  53.505  1.00  0.00     0.210 A 
HETATM   18  N   UNL     1      28.318  40.671  52.254  1.00  0.00    -0.318 N 
HETATM   19  C   UNL     1      28.019  41.400  51.145  1.00  0.00     0.248 A 
HETATM   20  H   UNL     1      28.585  39.707  52.111  1.00  0.00     0.169 HD
HETATM   21  O   UNL     1      28.032  40.941  50.010  1.00  0.00    -0.268 OA
HETATM   22  C   UNL     1      27.645  42.796  51.400  1.00  0.00     0.101 A 
ENDBRANCH  14  15
ENDBRANCH  13  14
ENDBRANCH   9  13
ENDBRANCH   2   7
BRANCH   1  23
HETATM   23  C   UNL     1      21.747  47.852  48.883  1.00  0.00     0.275 C 
BRANCH  23  24
HETATM   24  N   UNL     1      20.671  48.491  48.016  1.00  0.00    -0.067 N 
HETATM   25  C   UNL     1      20.289  47.631  46.841  1.00  0.00     0.270 C 
HETATM   26  H   UNL     1      21.190  49.299  47.615  1.00  0.00     0.280 HD
BRANCH  24  27
HETATM   27  C   UNL     1      19.458  49.044  48.764  1.00  0.00     0.188 C 
HETATM   28  C   UNL     1      19.820  49.933  49.968  1.00  0.00     0.033 C 
HETATM   29  C   UNL     1      20.382  51.300  49.585  1.00  0.00     0.002 C 
HETATM   30  C   UNL     1      19.437  52.045  48.652  1.00  0.00     0.000 C 
HETATM   31  C   UNL     1      19.083  51.214  47.425  1.00  0.00     0.002 C 
HETATM   32  C   UNL     1      18.537  49.838  47.813  1.00  0.00     0.033 C 
ENDBRANCH  24  27
ENDBRANCH  23  24
ENDBRANCH   1  23
TORSDOF 7
ENDMDL
MODEL 6
REMARK VINA RESULT:      -7.8      3.087      5.458
REMARK  7 active torsions:
REMARK  status: ('A' for Active; 'I' for Inactive)
REMARK    1  A    between atoms: N_2  and  C_4 
REMARK    2  A    between atoms: N_2  and  C_10 
REMARK    3  A    between atoms: C_10  and  C_11 
REMARK    4  A    between atoms: C_12  and  N_13 
REMARK       I    between atoms: N_13  and  C_14 
REMARK       I    between atoms: C_14  and  N_15 
REMARK    5  A    between atoms: N_15  and  C_16 
REMARK    6  A    between atoms: C_16  and  C_17 
REMARK    7  A    between atoms: C_17  and  C_18 
ROOT
HETATM    1  C   UNL     1      19.149  49.626  49.588  1.00  0.00    -0.006 A 
HETATM    2  C   UNL     1      20.495  50.033  49.459  1.00  0.00     0.044 A 
HETATM    3  C   UNL     1      20.760  51.274  48.833  1.00  0.00     0.030 A 
HETATM    4  C   UNL     1      19.746  52.116  48.382  1.00  0.00     0.002 A 
HETATM    5  C   UNL     1      18.426  51.739  48.539  1.00  0.00     0.001 A 
HETATM    6  C   UNL     1      18.134  50.512  49.130  1.00  0.00     0.011 A 
ENDROOT
BRANCH   2   7
HETATM    7  N   UNL     1      21.678  49.376  49.879  1.00  0.00    -0.308 N 
HETATM    8  C   UNL     1      22.704  48.815  49.173  1.00  0.00     0.320 C 
HETATM    9  N   UNL     1      23.578  48.134  49.984  1.00  0.00    -0.343 N 
HETATM   10  O   UNL     1      22.827  48.824  47.956  1.00  0.00    -0.247 OA
HETATM   11  H   UNL     1      23.600  48.323  50.976  1.00  0.00     0.164 HD
HETATM   12  H   UNL     1      21.695  49.119  50.857  1.00  0.00     0.170 HD
BRANCH   9  13
HETATM   13  C   UNL     1      24.691  47.374  49.432  1.00  0.00     0.130 C 
BRANCH  13  14
HETATM   14  C   UNL     1      24.787  45.970  50.034  1.00  0.00     0.079 C 
BRANCH  14  15
HETATM   15  C   UNL     1      25.101  45.998  51.512  1.00  0.00     0.042 A 
HETATM   16  N   UNL     1      25.625  47.177  51.994  1.00  0.00    -0.248 NA
HETATM   17  C   UNL     1      25.898  47.225  53.256  1.00  0.00     0.210 A 
HETATM   18  N   UNL     1      25.693  46.196  54.124  1.00  0.00    -0.318 N 
HETATM   19  C   UNL     1      25.156  45.014  53.717  1.00  0.00     0.248 A 
HETATM   20  H   UNL     1      25.913  46.285  55.106  1.00  0.00     0.169 HD
HETATM   21  O   UNL     1      24.909  44.086  54.476  1.00  0.00    -0.268 OA
HETATM   22  C   UNL     1      24.863  44.926  52.282  1.00  0.00     0.101 A 
ENDBRANCH  14  15
ENDBRANCH  13  14
ENDBRANCH   9  13
ENDBRANCH   2   7
BRANCH   1  23
HETATM   23  C   UNL     1      18.634  48.298  50.100  1.00  0.00     0.275 C 
BRANCH  23  24
HETATM   24  N   UNL     1      18.134  47.270  49.095  1.00  0.00    -0.067 N 
HETATM   25  C   UNL     1      16.634  47.276  48.961  1.00  0.00     0.270 C 
HETATM   26  H   UNL     1      18.368  46.381  49.583  1.00  0.00     0.280 HD
BRANCH  24  27
HETATM   27  C   UNL     1      18.850  47.259  47.744  1.00  0.00     0.188 C 
HETATM   28  C   UNL     1      20.200  46.520  47.760  1.00  0.00     0.033 C 
HETATM   29  C   UNL     1      20.076  45.001  47.863  1.00  0.00     0.002 C 
HETATM   30  C   UNL     1      19.188  44.443  46.760  1.00  0.00     0.000 C 
HETATM   31  C   UNL     1      17.824  45.122  46.734  1.00  0.00     0.002 C 
HETATM   32  C   UNL     1      17.953  46.644  46.649  1.00  0.00     0.033 C 
ENDBRANCH  24  27
ENDBRANCH  23  24
ENDBRANCH   1  23
TORSDOF 7
ENDMDL
MODEL 7
REMARK VINA RESULT:      -7.8      2.605      3.532
REMARK  7 active torsions:
REMARK  status: ('A' for Active; 'I' for Inactive)
REMARK    1  A    between atoms: N_2  and  C_4 
REMARK    2  A    between atoms: N_2  and  C_10 
REMARK    3  A    between atoms: C_10  and  C_11 
REMARK    4  A    between atoms: C_12  and  N_13 
REMARK       I    between atoms: N_13  and  C_14 
REMARK       I    between atoms: C_14  and  N_15 
REMARK    5  A    between atoms: N_15  and  C_16 
REMARK    6  A    between atoms: C_16  and  C_17 
REMARK    7  A    between atoms: C_17  and  C_18 
ROOT
HETATM    1  C   UNL     1      22.093  48.957  48.725  1.00  0.00    -0.006 A 
HETATM    2  C   UNL     1      23.308  48.336  49.087  1.00  0.00     0.044 A 
HETATM    3  C   UNL     1      24.517  49.009  48.791  1.00  0.00     0.030 A 
HETATM    4  C   UNL     1      24.544  50.270  48.197  1.00  0.00     0.002 A 
HETATM    5  C   UNL     1      23.357  50.898  47.875  1.00  0.00     0.001 A 
HETATM    6  C   UNL     1      22.152  50.250  48.133  1.00  0.00     0.011 A 
ENDROOT
BRANCH   2   7
HETATM    7  N   UNL     1      23.526  47.094  49.734  1.00  0.00    -0.308 N 
HETATM    8  C   UNL     1      23.305  45.809  49.329  1.00  0.00     0.320 C 
HETATM    9  N   UNL     1      23.507  44.905  50.342  1.00  0.00    -0.343 N 
HETATM   10  O   UNL     1      22.897  45.463  48.228  1.00  0.00    -0.247 OA
HETATM   11  H   UNL     1      24.053  45.166  51.151  1.00  0.00     0.164 HD
HETATM   12  H   UNL     1      23.713  47.161  50.726  1.00  0.00     0.170 HD
BRANCH   9  13
HETATM   13  C   UNL     1      23.233  43.486  50.161  1.00  0.00     0.130 C 
BRANCH  13  14
HETATM   14  C   UNL     1      24.472  42.622  50.414  1.00  0.00     0.079 C 
BRANCH  14  15
HETATM   15  C   UNL     1      25.393  43.227  51.448  1.00  0.00     0.042 A 
HETATM   16  N   UNL     1      24.782  43.762  52.560  1.00  0.00    -0.248 NA
HETATM   17  C   UNL     1      25.550  44.281  53.459  1.00  0.00     0.210 A 
HETATM   18  N   UNL     1      26.909  44.323  53.375  1.00  0.00    -0.318 N 
HETATM   19  C   UNL     1      27.576  43.791  52.315  1.00  0.00     0.248 A 
HETATM   20  H   UNL     1      27.469  44.730  54.110  1.00  0.00     0.169 HD
HETATM   21  O   UNL     1      28.796  43.762  52.228  1.00  0.00    -0.268 OA
HETATM   22  C   UNL     1      26.722  43.218  51.267  1.00  0.00     0.101 A 
ENDBRANCH  14  15
ENDBRANCH  13  14
ENDBRANCH   9  13
ENDBRANCH   2   7
BRANCH   1  23
HETATM   23  C   UNL     1      20.698  48.378  48.824  1.00  0.00     0.275 C 
BRANCH  23  24
HETATM   24  N   UNL     1      19.663  48.779  47.781  1.00  0.00    -0.067 N 
HETATM   25  C   UNL     1      19.452  47.715  46.738  1.00  0.00     0.270 C 
HETATM   26  H   UNL     1      20.159  49.555  47.295  1.00  0.00     0.280 HD
BRANCH  24  27
HETATM   27  C   UNL     1      18.351  49.339  48.330  1.00  0.00     0.188 C 
HETATM   28  C   UNL     1      18.351  49.548  49.855  1.00  0.00     0.033 C 
HETATM   29  C   UNL     1      19.209  50.722  50.322  1.00  0.00     0.002 C 
HETATM   30  C   UNL     1      18.811  52.012  49.619  1.00  0.00     0.000 C 
HETATM   31  C   UNL     1      18.835  51.860  48.103  1.00  0.00     0.002 C 
HETATM   32  C   UNL     1      17.988  50.672  47.641  1.00  0.00     0.033 C 
ENDBRANCH  24  27
ENDBRANCH  23  24
ENDBRANCH   1  23
TORSDOF 7
ENDMDL
MODEL 8
REMARK VINA RESULT:      -7.7      2.983      5.082
REMARK  7 active torsions:
REMARK  status: ('A' for Active; 'I' for Inactive)
REMARK    1  A    between atoms: N_2  and  C_4 
REMARK    2  A    between atoms: N_2  and  C_10 
REMARK    3  A    between atoms: C_10  and  C_11 
REMARK    4  A    between atoms: C_12  and  N_13 
REMARK       I    between atoms: N_13  and  C_14 
REMARK       I    between atoms: C_14  and  N_15 
REMARK    5  A    between atoms: N_15  and  C_16 
REMARK    6  A    between atoms: C_16  and  C_17 
REMARK    7  A    between atoms: C_17  and  C_18 
ROOT
HETATM    1  C   UNL     1      19.388  49.445  49.309  1.00  0.00    -0.006 A 
HETATM    2  C   UNL     1      20.719  49.912  49.351  1.00  0.00     0.044 A 
HETATM    3  C   UNL     1      20.983  51.221  48.886  1.00  0.00     0.030 A 
HETATM    4  C   UNL     1      19.976  52.070  48.431  1.00  0.00     0.002 A 
HETATM    5  C   UNL     1      18.666  51.631  48.423  1.00  0.00     0.001 A 
HETATM    6  C   UNL     1      18.379  50.338  48.853  1.00  0.00     0.011 A 
ENDROOT
BRANCH   2   7
HETATM    7  N   UNL     1      21.889  49.255  49.810  1.00  0.00    -0.308 N 
HETATM    8  C   UNL     1      22.789  48.452  49.170  1.00  0.00     0.320 C 
HETATM    9  N   UNL     1      23.692  47.892  50.039  1.00  0.00    -0.343 N 
HETATM   10  O   UNL     1      22.782  48.172  47.979  1.00  0.00    -0.247 OA
HETATM   11  H   UNL     1      23.833  48.299  50.953  1.00  0.00     0.164 HD
HETATM   12  H   UNL     1      21.991  49.227  50.816  1.00  0.00     0.170 HD
BRANCH   9  13
HETATM   13  C   UNL     1      24.681  46.922  49.588  1.00  0.00     0.130 C 
BRANCH  13  14
HETATM   14  C   UNL     1      25.909  46.883  50.501  1.00  0.00     0.079 C 
BRANCH  14  15
HETATM   15  C   UNL     1      25.957  45.630  51.346  1.00  0.00     0.042 A 
HETATM   16  N   UNL     1      26.790  44.631  50.894  1.00  0.00    -0.248 NA
HETATM   17  C   UNL     1      26.851  43.552  51.602  1.00  0.00     0.210 A 
HETATM   18  N   UNL     1      26.155  43.353  52.756  1.00  0.00    -0.318 N 
HETATM   19  C   UNL     1      25.334  44.310  53.269  1.00  0.00     0.248 A 
HETATM   20  H   UNL     1      26.243  42.495  53.282  1.00  0.00     0.169 HD
HETATM   21  O   UNL     1      24.735  44.189  54.330  1.00  0.00    -0.268 OA
HETATM   22  C   UNL     1      25.229  45.535  52.468  1.00  0.00     0.101 A 
ENDBRANCH  14  15
ENDBRANCH  13  14
ENDBRANCH   9  13
ENDBRANCH   2   7
BRANCH   1  23
HETATM   23  C   UNL     1      18.890  48.051  49.630  1.00  0.00     0.275 C 
BRANCH  23  24
HETATM   24  N   UNL     1      18.868  47.009  48.520  1.00  0.00    -0.067 N 
HETATM   25  C   UNL     1      19.986  46.008  48.646  1.00  0.00     0.270 C 
HETATM   26  H   UNL     1      19.106  47.592  47.692  1.00  0.00     0.280 HD
BRANCH  24  27
HETATM   27  C   UNL     1      17.513  46.353  48.253  1.00  0.00     0.188 C 
HETATM   28  C   UNL     1      16.358  47.356  48.078  1.00  0.00     0.033 C 
HETATM   29  C   UNL     1      16.401  48.130  46.762  1.00  0.00     0.002 C 
HETATM   30  C   UNL     1      16.458  47.187  45.568  1.00  0.00     0.000 C 
HETATM   31  C   UNL     1      17.614  46.201  45.682  1.00  0.00     0.002 C 
HETATM   32  C   UNL     1      17.578  45.440  47.009  1.00  0.00     0.033 C 
ENDBRANCH  24  27
ENDBRANCH  23  24
ENDBRANCH   1  23
TORSDOF 7
ENDMDL
MODEL 9
REMARK VINA RESULT:      -7.7      4.619      7.210
REMARK  7 active torsions:
REMARK  status: ('A' for Active; 'I' for Inactive)
REMARK    1  A    between atoms: N_2  and  C_4 
REMARK    2  A    between atoms: N_2  and  C_10 
REMARK    3  A    between atoms: C_10  and  C_11 
REMARK    4  A    between atoms: C_12  and  N_13 
REMARK       I    between atoms: N_13  and  C_14 
REMARK       I    between atoms: C_14  and  N_15 
REMARK    5  A    between atoms: N_15  and  C_16 
REMARK    6  A    between atoms: C_16  and  C_17 
REMARK    7  A    between atoms: C_17  and  C_18 
ROOT
HETATM    1  C   UNL     1      27.560  40.433  48.518  1.00  0.00    -0.006 A 
HETATM    2  C   UNL     1      28.310  39.841  49.557  1.00  0.00     0.044 A 
HETATM    3  C   UNL     1      28.492  38.438  49.533  1.00  0.00     0.030 A 
HETATM    4  C   UNL     1      27.996  37.637  48.507  1.00  0.00     0.002 A 
HETATM    5  C   UNL     1      27.293  38.217  47.468  1.00  0.00     0.001 A 
HETATM    6  C   UNL     1      27.077  39.592  47.477  1.00  0.00     0.011 A 
ENDROOT
BRANCH   2   7
HETATM    7  N   UNL     1      28.945  40.450  50.669  1.00  0.00    -0.308 N 
HETATM    8  C   UNL     1      28.461  40.856  51.879  1.00  0.00     0.320 C 
HETATM    9  N   UNL     1      29.397  41.552  52.603  1.00  0.00    -0.343 N 
HETATM   10  O   UNL     1      27.314  40.711  52.280  1.00  0.00    -0.247 OA
HETATM   11  H   UNL     1      30.378  41.466  52.376  1.00  0.00     0.164 HD
HETATM   12  H   UNL     1      29.873  40.805  50.483  1.00  0.00     0.170 HD
BRANCH   9  13
HETATM   13  C   UNL     1      29.067  42.165  53.883  1.00  0.00     0.130 C 
BRANCH  13  14
HETATM   14  C   UNL     1      29.317  43.676  53.880  1.00  0.00     0.079 C 
BRANCH  14  15
HETATM   15  C   UNL     1      29.860  44.170  55.201  1.00  0.00     0.042 A 
HETATM   16  N   UNL     1      29.284  45.319  55.697  1.00  0.00    -0.248 NA
HETATM   17  C   UNL     1      29.729  45.758  56.827  1.00  0.00     0.210 A 
HETATM   18  N   UNL     1      30.715  45.156  57.549  1.00  0.00    -0.318 N 
HETATM   19  C   UNL     1      31.308  44.006  57.127  1.00  0.00     0.248 A 
HETATM   20  H   UNL     1      31.023  45.531  58.434  1.00  0.00     0.169 HD
HETATM   21  O   UNL     1      32.158  43.407  57.772  1.00  0.00    -0.268 OA
HETATM   22  C   UNL     1      30.837  43.502  55.832  1.00  0.00     0.101 A 
ENDBRANCH  14  15
ENDBRANCH  13  14
ENDBRANCH   9  13
ENDBRANCH   2   7
BRANCH   1  23
HETATM   23  C   UNL     1      27.130  41.880  48.402  1.00  0.00     0.275 C 
BRANCH  23  24
HETATM   24  N   UNL     1      25.916  42.349  49.193  1.00  0.00    -0.067 N 
HETATM   25  C   UNL     1      24.878  41.270  49.350  1.00  0.00     0.270 C 
HETATM   26  H   UNL     1      25.504  43.042  48.536  1.00  0.00     0.280 HD
BRANCH  24  27
HETATM   27  C   UNL     1      26.218  43.075  50.504  1.00  0.00     0.188 C 
HETATM   28  C   UNL     1      27.165  44.279  50.346  1.00  0.00     0.033 C 
HETATM   29  C   UNL     1      26.527  45.486  49.662  1.00  0.00     0.002 C 
HETATM   30  C   UNL     1      25.252  45.916  50.374  1.00  0.00     0.000 C 
HETATM   31  C   UNL     1      24.269  44.760  50.517  1.00  0.00     0.002 C 
HETATM   32  C   UNL     1      24.917  43.547  51.187  1.00  0.00     0.033 C 
ENDBRANCH  24  27
ENDBRANCH  23  24
ENDBRANCH   1  23
TORSDOF 7
ENDMDL
MODEL 10
REMARK VINA RESULT:      -7.6      4.126      9.355
REMARK  7 active torsions:
REMARK  status: ('A' for Active; 'I' for Inactive)
REMARK    1  A    between atoms: N_2  and  C_4 
REMARK    2  A    between atoms: N_2  and  C_10 
REMARK    3  A    between atoms: C_10  and  C_11 
REMARK    4  A    between atoms: C_12  and  N_13 
REMARK       I    between atoms: N_13  and  C_14 
REMARK       I    between atoms: C_14  and  N_15 
REMARK    5  A    between atoms: N_15  and  C_16 
REMARK    6  A    between atoms: C_16  and  C_17 
REMARK    7  A    between atoms: C_17  and  C_18 
ROOT
HETATM    1  C   UNL     1      27.515  41.706  51.898  1.00  0.00    -0.006 A 
HETATM    2  C   UNL     1      27.562  43.115  51.846  1.00  0.00     0.044 A 
HETATM    3  C   UNL     1      28.385  43.791  52.777  1.00  0.00     0.030 A 
HETATM    4  C   UNL     1      29.175  43.116  53.706  1.00  0.00     0.002 A 
HETATM    5  C   UNL     1      29.161  41.735  53.735  1.00  0.00     0.001 A 
HETATM    6  C   UNL     1      28.342  41.042  52.847  1.00  0.00     0.011 A 
ENDROOT
BRANCH   2   7
HETATM    7  N   UNL     1      26.893  44.006  50.970  1.00  0.00    -0.308 N 
HETATM    8  C   UNL     1      25.707  44.673  51.086  1.00  0.00     0.320 C 
HETATM    9  N   UNL     1      25.355  45.310  49.922  1.00  0.00    -0.343 N 
HETATM   10  O   UNL     1      24.972  44.667  52.065  1.00  0.00    -0.247 OA
HETATM   11  H   UNL     1      26.055  45.501  49.219  1.00  0.00     0.164 HD
HETATM   12  H   UNL     1      27.257  44.026  50.027  1.00  0.00     0.170 HD
BRANCH   9  13
HETATM   13  C   UNL     1      24.079  46.000  49.788  1.00  0.00     0.130 C 
BRANCH  13  14
HETATM   14  C   UNL     1      24.144  47.438  50.312  1.00  0.00     0.079 C 
BRANCH  14  15
HETATM   15  C   UNL     1      25.239  48.243  49.650  1.00  0.00     0.042 A 
HETATM   16  N   UNL     1      26.525  47.945  50.041  1.00  0.00    -0.248 NA
HETATM   17  C   UNL     1      27.478  48.618  49.485  1.00  0.00     0.210 A 
HETATM   18  N   UNL     1      27.286  49.584  48.543  1.00  0.00    -0.318 N 
HETATM   19  C   UNL     1      26.042  49.908  48.096  1.00  0.00     0.248 A 
HETATM   20  H   UNL     1      28.064  50.076  48.129  1.00  0.00     0.169 HD
HETATM   21  O   UNL     1      25.833  50.731  47.214  1.00  0.00    -0.268 OA
HETATM   22  C   UNL     1      24.941  49.175  48.732  1.00  0.00     0.101 A 
ENDBRANCH  14  15
ENDBRANCH  13  14
ENDBRANCH   9  13
ENDBRANCH   2   7
BRANCH   1  23
HETATM   23  C   UNL     1      26.619  40.784  51.098  1.00  0.00     0.275 C 
BRANCH  23  24
HETATM   24  N   UNL     1      26.865  40.642  49.601  1.00  0.00    -0.067 N 
HETATM   25  C   UNL     1      26.209  41.736  48.802  1.00  0.00     0.270 C 
HETATM   26  H   UNL     1      26.325  39.778  49.390  1.00  0.00     0.280 HD
BRANCH  24  27
HETATM   27  C   UNL     1      28.316  40.395  49.188  1.00  0.00     0.188 C 
HETATM   28  C   UNL     1      28.913  39.094  49.756  1.00  0.00     0.033 C 
HETATM   29  C   UNL     1      28.366  37.824  49.108  1.00  0.00     0.002 C 
HETATM   30  C   UNL     1      28.533  37.858  47.596  1.00  0.00     0.000 C 
HETATM   31  C   UNL     1      27.920  39.114  46.988  1.00  0.00     0.002 C 
HETATM   32  C   UNL     1      28.458  40.383  47.651  1.00  0.00     0.033 C 
ENDBRANCH  24  27
ENDBRANCH  23  24
ENDBRANCH   1  23
TORSDOF 7
ENDMDL
