MODEL 1
REMARK VINA RESULT:      -9.5      0.000      0.000
REMARK  9 active torsions:
REMARK  status: ('A' for Active; 'I' for Inactive)
REMARK    1  A    between atoms: C_2  and  N_3 
REMARK       I    between atoms: N_3  and  C_4 
REMARK    2  A    between atoms: C_4  and  C_5 
REMARK    3  A    between atoms: N_6  and  C_8 
REMARK    4  A    between atoms: C_8  and  C_9 
REMARK    5  A    between atoms: C_12  and  O_13 
REMARK    6  A    between atoms: O_13  and  C_14 
REMARK    7  A    between atoms: C_14  and  C_15 
REMARK    8  A    between atoms: C_24  and  S_25 
REMARK    9  A    between atoms: S_25  and  C_26 
ROOT
HETATM    1  C   UNL     1      24.566  42.760  49.765  1.00  0.00     0.280 C 
HETATM    2  N   UNL     1      23.996  43.917  50.601  1.00  0.00    -0.053 N 
HETATM    3  H   UNL     1      23.945  43.610  51.581  1.00  0.00     0.281 HD
HETATM    4  C   UNL     1      22.607  44.089  50.023  1.00  0.00     0.252 C 
HETATM    5  C   UNL     1      22.755  43.790  48.521  1.00  0.00     0.083 C 
HETATM    6  C   UNL     1      24.131  43.129  48.356  1.00  0.00     0.060 C 
ENDROOT
BRANCH   2   7
HETATM    7  C   UNL     1      24.827  45.188  50.617  1.00  0.00     0.274 C 
BRANCH   7   8
HETATM    8  C   UNL     1      25.533  45.418  51.927  1.00  0.00    -0.032 A 
HETATM    9  C   UNL     1      26.139  46.653  52.208  1.00  0.00     0.011 A 
HETATM   10  C   UNL     1      26.803  46.862  53.423  1.00  0.00     0.037 A 
HETATM   11  C   UNL     1      26.867  45.838  54.365  1.00  0.00     0.069 A 
HETATM   12  C   UNL     1      26.292  44.601  54.081  1.00  0.00     0.037 A 
HETATM   13  C   UNL     1      25.615  44.393  52.880  1.00  0.00     0.011 A 
BRANCH  11  14
HETATM   14  O   UNL     1      27.498  45.916  55.572  1.00  0.00    -0.347 OA
BRANCH  14  15
HETATM   15  C   UNL     1      28.829  46.433  55.553  1.00  0.00     0.214 C 
BRANCH  15  16
HETATM   16  C   UNL     1      29.728  45.381  56.152  1.00  0.00    -0.034 A 
HETATM   17  C   UNL     1      30.270  45.556  57.433  1.00  0.00     0.009 A 
HETATM   18  C   UNL     1      31.133  44.601  57.974  1.00  0.00     0.001 A 
HETATM   19  C   UNL     1      31.465  43.465  57.238  1.00  0.00     0.000 A 
HETATM   20  C   UNL     1      30.939  43.284  55.961  1.00  0.00     0.001 A 
HETATM   21  C   UNL     1      30.077  44.238  55.418  1.00  0.00     0.009 A 
ENDBRANCH  15  16
ENDBRANCH  14  15
ENDBRANCH  11  14
ENDBRANCH   7   8
ENDBRANCH   2   7
BRANCH   1  22
HETATM   22  C   UNL     1      26.062  42.492  49.995  1.00  0.00     0.249 C 
HETATM   23  N   UNL     1      26.391  41.711  51.078  1.00  0.00    -0.355 N 
HETATM   24  H   UNL     1      25.708  41.524  51.803  1.00  0.00     0.162 HD
HETATM   25  O   UNL     1      26.895  42.982  49.234  1.00  0.00    -0.271 OA
BRANCH  23  26
HETATM   26  C   UNL     1      27.783  41.435  51.432  1.00  0.00     0.076 C 
HETATM   27  C   UNL     1      28.243  40.146  50.758  1.00  0.00     0.032 C 
HETATM   28  C   UNL     1      27.941  41.343  52.948  1.00  0.00     0.032 C 
ENDBRANCH  23  26
ENDBRANCH   1  22
BRANCH   5  29
HETATM   29  S   UNL     1      22.656  45.276  47.459  1.00  0.00    -0.085 SA
BRANCH  29  30
HETATM   30  C   UNL     1      21.073  45.821  47.865  1.00  0.00     0.168 A 
HETATM   31  N   UNL     1      19.950  45.258  47.496  1.00  0.00    -0.223 NA
HETATM   32  C   UNL     1      18.973  46.036  48.079  1.00  0.00     0.086 A 
HETATM   33  C   UNL     1      19.535  47.078  48.814  1.00  0.00     0.063 A 
HETATM   34  C   UNL     1      17.577  45.912  48.029  1.00  0.00     0.034 A 
HETATM   35  N   UNL     1      20.887  46.914  48.657  1.00  0.00    -0.333 N 
HETATM   36  C   UNL     1      18.779  48.020  49.514  1.00  0.00     0.032 A 
HETATM   37  H   UNL     1      21.613  47.494  49.050  1.00  0.00     0.168 HD
HETATM   38  C   UNL     1      17.388  47.879  49.450  1.00  0.00     0.002 A 
HETATM   39  C   UNL     1      16.795  46.844  48.721  1.00  0.00     0.002 A 
ENDBRANCH  29  30
ENDBRANCH   5  29
TORSDOF 9
ENDMDL
MODEL 2
REMARK VINA RESULT:      -9.4      2.325      7.032
REMARK  9 active torsions:
REMARK  status: ('A' for Active; 'I' for Inactive)
REMARK    1  A    between atoms: C_2  and  N_3 
REMARK       I    between atoms: N_3  and  C_4 
REMARK    2  A    between atoms: C_4  and  C_5 
REMARK    3  A    between atoms: N_6  and  C_8 
REMARK    4  A    between atoms: C_8  and  C_9 
REMARK    5  A    between atoms: C_12  and  O_13 
REMARK    6  A    between atoms: O_13  and  C_14 
REMARK    7  A    between atoms: C_14  and  C_15 
REMARK    8  A    between atoms: C_24  and  S_25 
REMARK    9  A    between atoms: S_25  and  C_26 
ROOT
HETATM    1  C   UNL     1      24.470  44.811  48.858  1.00  0.00     0.280 C 
HETATM    2  N   UNL     1      25.240  45.385  50.058  1.00  0.00    -0.053 N 
HETATM    3  H   UNL     1      25.404  46.386  49.885  1.00  0.00     0.281 HD
HETATM    4  C   UNL     1      26.544  44.616  50.013  1.00  0.00     0.252 C 
HETATM    5  C   UNL     1      26.164  43.207  49.526  1.00  0.00     0.083 C 
HETATM    6  C   UNL     1      24.731  43.318  48.986  1.00  0.00     0.060 C 
ENDROOT
BRANCH   2   7
HETATM    7  C   UNL     1      24.522  45.317  51.394  1.00  0.00     0.274 C 
BRANCH   7   8
HETATM    8  C   UNL     1      25.429  45.571  52.568  1.00  0.00    -0.032 A 
HETATM    9  C   UNL     1      25.744  44.540  53.469  1.00  0.00     0.011 A 
HETATM   10  C   UNL     1      26.581  44.781  54.565  1.00  0.00     0.037 A 
HETATM   11  C   UNL     1      27.109  46.053  54.771  1.00  0.00     0.069 A 
HETATM   12  C   UNL     1      26.779  47.088  53.897  1.00  0.00     0.037 A 
HETATM   13  C   UNL     1      25.959  46.850  52.794  1.00  0.00     0.011 A 
BRANCH  11  14
HETATM   14  O   UNL     1      27.919  46.413  55.808  1.00  0.00    -0.347 OA
BRANCH  14  15
HETATM   15  C   UNL     1      29.305  46.563  55.498  1.00  0.00     0.214 C 
BRANCH  15  16
HETATM   16  C   UNL     1      30.036  45.415  56.147  1.00  0.00    -0.034 A 
HETATM   17  C   UNL     1      30.485  45.517  57.471  1.00  0.00     0.009 A 
HETATM   18  C   UNL     1      31.196  44.470  58.061  1.00  0.00     0.001 A 
HETATM   19  C   UNL     1      31.468  43.314  57.332  1.00  0.00     0.000 A 
HETATM   20  C   UNL     1      31.033  43.204  56.013  1.00  0.00     0.001 A 
HETATM   21  C   UNL     1      30.324  44.251  55.421  1.00  0.00     0.009 A 
ENDBRANCH  15  16
ENDBRANCH  14  15
ENDBRANCH  11  14
ENDBRANCH   7   8
ENDBRANCH   2   7
BRANCH   1  22
HETATM   22  C   UNL     1      23.005  45.266  48.771  1.00  0.00     0.249 C 
HETATM   23  N   UNL     1      22.786  46.589  48.466  1.00  0.00    -0.355 N 
HETATM   24  H   UNL     1      23.541  47.262  48.526  1.00  0.00     0.162 HD
HETATM   25  O   UNL     1      22.100  44.461  48.986  1.00  0.00    -0.271 OA
BRANCH  23  26
HETATM   26  C   UNL     1      21.437  47.152  48.413  1.00  0.00     0.076 C 
HETATM   27  C   UNL     1      20.911  47.101  46.982  1.00  0.00     0.032 C 
HETATM   28  C   UNL     1      21.434  48.584  48.943  1.00  0.00     0.032 C 
ENDBRANCH  23  26
ENDBRANCH   1  22
BRANCH   5  29
HETATM   29  S   UNL     1      26.229  41.932  50.835  1.00  0.00    -0.085 SA
BRANCH  29  30
HETATM   30  C   UNL     1      26.684  40.564  49.890  1.00  0.00     0.168 A 
HETATM   31  N   UNL     1      27.502  40.576  48.868  1.00  0.00    -0.223 NA
HETATM   32  C   UNL     1      27.564  39.258  48.468  1.00  0.00     0.086 A 
HETATM   33  C   UNL     1      26.767  38.451  49.278  1.00  0.00     0.063 A 
HETATM   34  C   UNL     1      28.284  38.672  47.417  1.00  0.00     0.034 A 
HETATM   35  N   UNL     1      26.214  39.320  50.183  1.00  0.00    -0.333 N 
HETATM   36  C   UNL     1      26.642  37.072  49.103  1.00  0.00     0.032 A 
HETATM   37  H   UNL     1      25.574  39.085  50.928  1.00  0.00     0.168 HD
HETATM   38  C   UNL     1      27.368  36.506  48.049  1.00  0.00     0.002 A 
HETATM   39  C   UNL     1      28.175  37.290  47.219  1.00  0.00     0.002 A 
ENDBRANCH  29  30
ENDBRANCH   5  29
TORSDOF 9
ENDMDL
MODEL 3
REMARK VINA RESULT:      -9.3      3.263      4.896
REMARK  9 active torsions:
REMARK  status: ('A' for Active; 'I' for Inactive)
REMARK    1  A    between atoms: C_2  and  N_3 
REMARK       I    between atoms: N_3  and  C_4 
REMARK    2  A    between atoms: C_4  and  C_5 
REMARK    3  A    between atoms: N_6  and  C_8 
REMARK    4  A    between atoms: C_8  and  C_9 
REMARK    5  A    between atoms: C_12  and  O_13 
REMARK    6  A    between atoms: O_13  and  C_14 
REMARK    7  A    between atoms: C_14  and  C_15 
REMARK    8  A    between atoms: C_24  and  S_25 
REMARK    9  A    between atoms: S_25  and  C_26 
ROOT
HETATM    1  C   UNL     1      24.575  41.129  48.725  1.00  0.00     0.280 C 
HETATM    2  N   UNL     1      25.145  41.699  50.034  1.00  0.00    -0.053 N 
HETATM    3  H   UNL     1      25.366  40.911  50.657  1.00  0.00     0.281 HD
HETATM    4  C   UNL     1      23.981  42.500  50.580  1.00  0.00     0.252 C 
HETATM    5  C   UNL     1      23.278  43.085  49.343  1.00  0.00     0.083 C 
HETATM    6  C   UNL     1      23.849  42.328  48.135  1.00  0.00     0.060 C 
ENDROOT
BRANCH   2   7
HETATM    7  C   UNL     1      26.436  42.487  49.901  1.00  0.00     0.274 C 
BRANCH   7   8
HETATM    8  C   UNL     1      27.242  42.521  51.172  1.00  0.00    -0.032 A 
HETATM    9  C   UNL     1      28.032  43.638  51.492  1.00  0.00     0.011 A 
HETATM   10  C   UNL     1      28.788  43.663  52.670  1.00  0.00     0.037 A 
HETATM   11  C   UNL     1      28.763  42.573  53.536  1.00  0.00     0.069 A 
HETATM   12  C   UNL     1      28.004  41.450  53.212  1.00  0.00     0.037 A 
HETATM   13  C   UNL     1      27.235  41.426  52.048  1.00  0.00     0.011 A 
BRANCH  11  14
HETATM   14  O   UNL     1      29.467  42.474  54.700  1.00  0.00    -0.347 OA
BRANCH  14  15
HETATM   15  C   UNL     1      30.679  43.228  54.766  1.00  0.00     0.214 C 
BRANCH  15  16
HETATM   16  C   UNL     1      30.576  44.138  55.963  1.00  0.00    -0.034 A 
HETATM   17  C   UNL     1      31.384  43.925  57.089  1.00  0.00     0.009 A 
HETATM   18  C   UNL     1      31.263  44.743  58.214  1.00  0.00     0.001 A 
HETATM   19  C   UNL     1      30.331  45.779  58.226  1.00  0.00     0.000 A 
HETATM   20  C   UNL     1      29.516  45.995  57.116  1.00  0.00     0.001 A 
HETATM   21  C   UNL     1      29.635  45.177  55.991  1.00  0.00     0.009 A 
ENDBRANCH  15  16
ENDBRANCH  14  15
ENDBRANCH  11  14
ENDBRANCH   7   8
ENDBRANCH   2   7
BRANCH   1  22
HETATM   22  C   UNL     1      25.613  40.426  47.837  1.00  0.00     0.249 C 
HETATM   23  N   UNL     1      26.159  39.262  48.326  1.00  0.00    -0.355 N 
HETATM   24  H   UNL     1      26.052  39.017  49.303  1.00  0.00     0.162 HD
HETATM   25  O   UNL     1      25.928  40.920  46.755  1.00  0.00    -0.271 OA
BRANCH  23  26
HETATM   26  C   UNL     1      27.199  38.536  47.599  1.00  0.00     0.076 C 
HETATM   27  C   UNL     1      26.913  37.038  47.646  1.00  0.00     0.032 C 
HETATM   28  C   UNL     1      28.576  38.845  48.183  1.00  0.00     0.032 C 
ENDBRANCH  23  26
ENDBRANCH   1  22
BRANCH   5  29
HETATM   29  S   UNL     1      23.546  44.881  49.123  1.00  0.00    -0.085 SA
BRANCH  29  30
HETATM   30  C   UNL     1      24.329  45.245  50.614  1.00  0.00     0.168 A 
HETATM   31  N   UNL     1      24.227  44.556  51.723  1.00  0.00    -0.223 NA
HETATM   32  C   UNL     1      25.043  45.221  52.613  1.00  0.00     0.086 A 
HETATM   33  C   UNL     1      25.644  46.325  52.011  1.00  0.00     0.063 A 
HETATM   34  C   UNL     1      25.324  44.939  53.957  1.00  0.00     0.034 A 
HETATM   35  N   UNL     1      25.165  46.315  50.726  1.00  0.00    -0.333 N 
HETATM   36  C   UNL     1      26.524  47.179  52.678  1.00  0.00     0.032 A 
HETATM   37  H   UNL     1      25.387  46.976  49.997  1.00  0.00     0.168 HD
HETATM   38  C   UNL     1      26.791  46.881  54.019  1.00  0.00     0.002 A 
HETATM   39  C   UNL     1      26.203  45.781  54.650  1.00  0.00     0.002 A 
ENDBRANCH  29  30
ENDBRANCH   5  29
TORSDOF 9
ENDMDL
MODEL 4
REMARK VINA RESULT:      -9.3      2.051      6.703
REMARK  9 active torsions:
REMARK  status: ('A' for Active; 'I' for Inactive)
REMARK    1  A    between atoms: C_2  and  N_3 
REMARK       I    between atoms: N_3  and  C_4 
REMARK    2  A    between atoms: C_4  and  C_5 
REMARK    3  A    between atoms: N_6  and  C_8 
REMARK    4  A    between atoms: C_8  and  C_9 
REMARK    5  A    between atoms: C_12  and  O_13 
REMARK    6  A    between atoms: O_13  and  C_14 
REMARK    7  A    between atoms: C_14  and  C_15 
REMARK    8  A    between atoms: C_24  and  S_25 
REMARK    9  A    between atoms: S_25  and  C_26 
ROOT
HETATM    1  C   UNL     1      24.098  46.514  48.918  1.00  0.00     0.280 C 
HETATM    2  N   UNL     1      25.132  46.029  49.948  1.00  0.00    -0.053 N 
HETATM    3  H   UNL     1      25.911  46.700  49.959  1.00  0.00     0.281 HD
HETATM    4  C   UNL     1      25.579  44.703  49.367  1.00  0.00     0.252 C 
HETATM    5  C   UNL     1      24.322  44.107  48.710  1.00  0.00     0.083 C 
HETATM    6  C   UNL     1      23.300  45.251  48.636  1.00  0.00     0.060 C 
ENDROOT
BRANCH   2   7
HETATM    7  C   UNL     1      24.644  45.949  51.383  1.00  0.00     0.274 C 
BRANCH   7   8
HETATM    8  C   UNL     1      25.744  46.134  52.394  1.00  0.00    -0.032 A 
HETATM    9  C   UNL     1      26.628  45.084  52.693  1.00  0.00     0.011 A 
HETATM   10  C   UNL     1      27.645  45.256  53.640  1.00  0.00     0.037 A 
HETATM   11  C   UNL     1      27.784  46.477  54.296  1.00  0.00     0.069 A 
HETATM   12  C   UNL     1      26.894  47.514  54.025  1.00  0.00     0.037 A 
HETATM   13  C   UNL     1      25.890  47.354  53.070  1.00  0.00     0.011 A 
BRANCH  11  14
HETATM   14  O   UNL     1      28.722  46.758  55.247  1.00  0.00    -0.347 OA
BRANCH  14  15
HETATM   15  C   UNL     1      28.506  46.175  56.533  1.00  0.00     0.214 C 
BRANCH  15  16
HETATM   16  C   UNL     1      29.655  45.235  56.797  1.00  0.00    -0.034 A 
HETATM   17  C   UNL     1      30.414  45.354  57.970  1.00  0.00     0.009 A 
HETATM   18  C   UNL     1      31.503  44.510  58.199  1.00  0.00     0.001 A 
HETATM   19  C   UNL     1      31.846  43.543  57.256  1.00  0.00     0.000 A 
HETATM   20  C   UNL     1      31.104  43.421  56.082  1.00  0.00     0.001 A 
HETATM   21  C   UNL     1      30.016  44.265  55.851  1.00  0.00     0.009 A 
ENDBRANCH  15  16
ENDBRANCH  14  15
ENDBRANCH  11  14
ENDBRANCH   7   8
ENDBRANCH   2   7
BRANCH   1  22
HETATM   22  C   UNL     1      23.313  47.762  49.351  1.00  0.00     0.249 C 
HETATM   23  N   UNL     1      21.983  47.807  49.005  1.00  0.00    -0.355 N 
HETATM   24  H   UNL     1      21.611  47.168  48.312  1.00  0.00     0.162 HD
HETATM   25  O   UNL     1      23.884  48.664  49.963  1.00  0.00    -0.271 OA
BRANCH  23  26
HETATM   26  C   UNL     1      21.147  48.968  49.310  1.00  0.00     0.076 C 
HETATM   27  C   UNL     1      19.714  48.519  49.575  1.00  0.00     0.032 C 
HETATM   28  C   UNL     1      21.199  49.980  48.167  1.00  0.00     0.032 C 
ENDBRANCH  23  26
ENDBRANCH   1  22
BRANCH   5  29
HETATM   29  S   UNL     1      23.603  42.701  49.634  1.00  0.00    -0.085 SA
BRANCH  29  30
HETATM   30  C   UNL     1      25.049  41.906  50.129  1.00  0.00     0.168 A 
HETATM   31  N   UNL     1      25.721  41.028  49.427  1.00  0.00    -0.223 NA
HETATM   32  C   UNL     1      26.795  40.705  50.227  1.00  0.00     0.086 A 
HETATM   33  C   UNL     1      26.757  41.413  51.427  1.00  0.00     0.063 A 
HETATM   34  C   UNL     1      27.851  39.811  49.995  1.00  0.00     0.034 A 
HETATM   35  N   UNL     1      25.622  42.177  51.335  1.00  0.00    -0.333 N 
HETATM   36  C   UNL     1      27.723  41.283  52.426  1.00  0.00     0.032 A 
HETATM   37  H   UNL     1      25.272  42.819  52.029  1.00  0.00     0.168 HD
HETATM   38  C   UNL     1      28.768  40.387  52.175  1.00  0.00     0.002 A 
HETATM   39  C   UNL     1      28.833  39.663  50.982  1.00  0.00     0.002 A 
ENDBRANCH  29  30
ENDBRANCH   5  29
TORSDOF 9
ENDMDL
MODEL 5
REMARK VINA RESULT:      -9.3      2.574      3.746
REMARK  9 active torsions:
REMARK  status: ('A' for Active; 'I' for Inactive)
REMARK    1  A    between atoms: C_2  and  N_3 
REMARK       I    between atoms: N_3  and  C_4 
REMARK    2  A    between atoms: C_4  and  C_5 
REMARK    3  A    between atoms: N_6  and  C_8 
REMARK    4  A    between atoms: C_8  and  C_9 
REMARK    5  A    between atoms: C_12  and  O_13 
REMARK    6  A    between atoms: O_13  and  C_14 
REMARK    7  A    between atoms: C_14  and  C_15 
REMARK    8  A    between atoms: C_24  and  S_25 
REMARK    9  A    between atoms: S_25  and  C_26 
ROOT
HETATM    1  C   UNL     1      24.052  42.832  48.858  1.00  0.00     0.280 C 
HETATM    2  N   UNL     1      24.929  42.801  50.120  1.00  0.00    -0.053 N 
HETATM    3  H   UNL     1      24.784  41.897  50.589  1.00  0.00     0.281 HD
HETATM    4  C   UNL     1      24.353  43.930  50.951  1.00  0.00     0.252 C 
HETATM    5  C   UNL     1      23.933  45.004  49.933  1.00  0.00     0.083 C 
HETATM    6  C   UNL     1      23.963  44.321  48.559  1.00  0.00     0.060 C 
ENDROOT
BRANCH   2   7
HETATM    7  C   UNL     1      26.425  42.900  49.884  1.00  0.00     0.274 C 
BRANCH   7   8
HETATM    8  C   UNL     1      27.235  42.749  51.145  1.00  0.00    -0.032 A 
HETATM    9  C   UNL     1      27.311  41.511  51.804  1.00  0.00     0.011 A 
HETATM   10  C   UNL     1      28.058  41.375  52.981  1.00  0.00     0.037 A 
HETATM   11  C   UNL     1      28.732  42.474  53.508  1.00  0.00     0.069 A 
HETATM   12  C   UNL     1      28.638  43.712  52.874  1.00  0.00     0.037 A 
HETATM   13  C   UNL     1      27.910  43.849  51.693  1.00  0.00     0.011 A 
BRANCH  11  14
HETATM   14  O   UNL     1      29.475  42.469  54.652  1.00  0.00    -0.347 OA
BRANCH  14  15
HETATM   15  C   UNL     1      30.645  43.288  54.645  1.00  0.00     0.214 C 
BRANCH  15  16
HETATM   16  C   UNL     1      30.627  44.106  55.911  1.00  0.00    -0.034 A 
HETATM   17  C   UNL     1      31.429  43.744  57.002  1.00  0.00     0.009 A 
HETATM   18  C   UNL     1      31.386  44.478  58.189  1.00  0.00     0.001 A 
HETATM   19  C   UNL     1      30.537  45.577  58.298  1.00  0.00     0.000 A 
HETATM   20  C   UNL     1      29.728  45.943  57.223  1.00  0.00     0.001 A 
HETATM   21  C   UNL     1      29.770  45.209  56.036  1.00  0.00     0.009 A 
ENDBRANCH  15  16
ENDBRANCH  14  15
ENDBRANCH  11  14
ENDBRANCH   7   8
ENDBRANCH   2   7
BRANCH   1  22
HETATM   22  C   UNL     1      24.539  41.913  47.727  1.00  0.00     0.249 C 
HETATM   23  N   UNL     1      25.426  40.921  48.075  1.00  0.00    -0.355 N 
HETATM   24  H   UNL     1      25.899  40.947  48.971  1.00  0.00     0.162 HD
HETATM   25  O   UNL     1      24.146  42.097  46.576  1.00  0.00    -0.271 OA
BRANCH  23  26
HETATM   26  C   UNL     1      26.004  40.022  47.077  1.00  0.00     0.076 C 
HETATM   27  C   UNL     1      26.114  38.613  47.652  1.00  0.00     0.032 C 
HETATM   28  C   UNL     1      27.370  40.534  46.625  1.00  0.00     0.032 C 
ENDBRANCH  23  26
ENDBRANCH   1  22
BRANCH   5  29
HETATM   29  S   UNL     1      25.028  46.469  49.913  1.00  0.00    -0.085 SA
BRANCH  29  30
HETATM   30  C   UNL     1      23.873  47.694  49.549  1.00  0.00     0.168 A 
HETATM   31  N   UNL     1      24.101  48.984  49.532  1.00  0.00    -0.223 NA
HETATM   32  C   UNL     1      22.892  49.538  49.168  1.00  0.00     0.086 A 
HETATM   33  C   UNL     1      21.931  48.549  48.960  1.00  0.00     0.063 A 
HETATM   34  C   UNL     1      22.538  50.883  48.991  1.00  0.00     0.034 A 
HETATM   35  N   UNL     1      22.592  47.375  49.213  1.00  0.00    -0.333 N 
HETATM   36  C   UNL     1      20.616  48.824  48.581  1.00  0.00     0.032 A 
HETATM   37  H   UNL     1      22.204  46.445  49.164  1.00  0.00     0.168 HD
HETATM   38  C   UNL     1      20.283  50.173  48.410  1.00  0.00     0.002 A 
HETATM   39  C   UNL     1      21.224  51.186  48.612  1.00  0.00     0.002 A 
ENDBRANCH  29  30
ENDBRANCH   5  29
TORSDOF 9
ENDMDL
MODEL 6
REMARK VINA RESULT:      -9.2      3.241     10.068
REMARK  9 active torsions:
REMARK  status: ('A' for Active; 'I' for Inactive)
REMARK    1  A    between atoms: C_2  and  N_3 
REMARK       I    between atoms: N_3  and  C_4 
REMARK    2  A    between atoms: C_4  and  C_5 
REMARK    3  A    between atoms: N_6  and  C_8 
REMARK    4  A    between atoms: C_8  and  C_9 
REMARK    5  A    between atoms: C_12  and  O_13 
REMARK    6  A    between atoms: O_13  and  C_14 
REMARK    7  A    between atoms: C_14  and  C_15 
REMARK    8  A    between atoms: C_24  and  S_25 
REMARK    9  A    between atoms: S_25  and  C_26 
ROOT
HETATM    1  C   UNL     1      25.478  43.249  49.148  1.00  0.00     0.280 C 
HETATM    2  N   UNL     1      25.229  44.755  49.331  1.00  0.00    -0.053 N 
HETATM    3  H   UNL     1      25.381  45.218  48.425  1.00  0.00     0.281 HD
HETATM    4  C   UNL     1      26.307  45.151  50.318  1.00  0.00     0.252 C 
HETATM    5  C   UNL     1      26.457  43.941  51.257  1.00  0.00     0.083 C 
HETATM    6  C   UNL     1      25.718  42.781  50.575  1.00  0.00     0.060 C 
ENDROOT
BRANCH   2   7
HETATM    7  C   UNL     1      23.824  45.142  49.754  1.00  0.00     0.274 C 
BRANCH   7   8
HETATM    8  C   UNL     1      23.376  46.463  49.186  1.00  0.00    -0.032 A 
HETATM    9  C   UNL     1      22.306  46.529  48.279  1.00  0.00     0.011 A 
HETATM   10  C   UNL     1      21.897  47.757  47.746  1.00  0.00     0.037 A 
HETATM   11  C   UNL     1      22.556  48.928  48.113  1.00  0.00     0.069 A 
HETATM   12  C   UNL     1      23.637  48.867  48.991  1.00  0.00     0.037 A 
HETATM   13  C   UNL     1      24.037  47.649  49.538  1.00  0.00     0.011 A 
BRANCH  11  14
HETATM   14  O   UNL     1      22.262  50.177  47.649  1.00  0.00    -0.347 OA
BRANCH  14  15
HETATM   15  C   UNL     1      22.107  51.194  48.640  1.00  0.00     0.214 C 
BRANCH  15  16
HETATM   16  C   UNL     1      20.642  51.263  48.987  1.00  0.00    -0.034 A 
HETATM   17  C   UNL     1      19.806  52.197  48.360  1.00  0.00     0.009 A 
HETATM   18  C   UNL     1      18.457  52.288  48.707  1.00  0.00     0.001 A 
HETATM   19  C   UNL     1      17.932  51.449  49.688  1.00  0.00     0.000 A 
HETATM   20  C   UNL     1      18.754  50.522  50.325  1.00  0.00     0.001 A 
HETATM   21  C   UNL     1      20.103  50.430  49.980  1.00  0.00     0.009 A 
ENDBRANCH  15  16
ENDBRANCH  14  15
ENDBRANCH  11  14
ENDBRANCH   7   8
ENDBRANCH   2   7
BRANCH   1  22
HETATM   22  C   UNL     1      24.392  42.523  48.341  1.00  0.00     0.249 C 
HETATM   23  N   UNL     1      23.991  43.117  47.167  1.00  0.00    -0.355 N 
HETATM   24  H   UNL     1      24.232  44.082  46.972  1.00  0.00     0.162 HD
HETATM   25  O   UNL     1      23.914  41.471  48.764  1.00  0.00    -0.271 OA
BRANCH  23  26
HETATM   26  C   UNL     1      22.924  42.551  46.343  1.00  0.00     0.076 C 
HETATM   27  C   UNL     1      23.422  42.355  44.914  1.00  0.00     0.032 C 
HETATM   28  C   UNL     1      21.692  43.452  46.370  1.00  0.00     0.032 C 
ENDBRANCH  23  26
ENDBRANCH   1  22
BRANCH   5  29
HETATM   29  S   UNL     1      25.762  44.213  52.927  1.00  0.00    -0.085 SA
BRANCH  29  30
HETATM   30  C   UNL     1      27.218  44.249  53.849  1.00  0.00     0.168 A 
HETATM   31  N   UNL     1      28.135  43.315  53.871  1.00  0.00    -0.223 NA
HETATM   32  C   UNL     1      29.100  43.806  54.724  1.00  0.00     0.086 A 
HETATM   33  C   UNL     1      28.744  45.063  55.211  1.00  0.00     0.063 A 
HETATM   34  C   UNL     1      30.314  43.235  55.131  1.00  0.00     0.034 A 
HETATM   35  N   UNL     1      27.529  45.320  54.630  1.00  0.00    -0.333 N 
HETATM   36  C   UNL     1      29.538  45.797  56.093  1.00  0.00     0.032 A 
HETATM   37  H   UNL     1      26.965  46.147  54.758  1.00  0.00     0.168 HD
HETATM   38  C   UNL     1      30.745  45.209  56.488  1.00  0.00     0.002 A 
HETATM   39  C   UNL     1      31.128  43.951  56.017  1.00  0.00     0.002 A 
ENDBRANCH  29  30
ENDBRANCH   5  29
TORSDOF 9
ENDMDL
MODEL 7
REMARK VINA RESULT:      -9.0      2.018      2.903
REMARK  9 active torsions:
REMARK  status: ('A' for Active; 'I' for Inactive)
REMARK    1  A    between atoms: C_2  and  N_3 
REMARK       I    between atoms: N_3  and  C_4 
REMARK    2  A    between atoms: C_4  and  C_5 
REMARK    3  A    between atoms: N_6  and  C_8 
REMARK    4  A    between atoms: C_8  and  C_9 
REMARK    5  A    between atoms: C_12  and  O_13 
REMARK    6  A    between atoms: O_13  and  C_14 
REMARK    7  A    between atoms: C_14  and  C_15 
REMARK    8  A    between atoms: C_24  and  S_25 
REMARK    9  A    between atoms: S_25  and  C_26 
ROOT
HETATM    1  C   UNL     1      24.794  42.692  49.871  1.00  0.00     0.280 C 
HETATM    2  N   UNL     1      24.018  43.610  50.829  1.00  0.00    -0.053 N 
HETATM    3  H   UNL     1      24.071  43.206  51.773  1.00  0.00     0.281 HD
HETATM    4  C   UNL     1      22.604  43.529  50.293  1.00  0.00     0.252 C 
HETATM    5  C   UNL     1      22.758  43.415  48.766  1.00  0.00     0.083 C 
HETATM    6  C   UNL     1      24.237  43.091  48.513  1.00  0.00     0.060 C 
ENDROOT
BRANCH   2   7
HETATM    7  C   UNL     1      24.554  45.024  50.963  1.00  0.00     0.274 C 
BRANCH   7   8
HETATM    8  C   UNL     1      25.343  45.242  52.226  1.00  0.00    -0.032 A 
HETATM    9  C   UNL     1      25.275  44.319  53.283  1.00  0.00     0.011 A 
HETATM   10  C   UNL     1      26.003  44.528  54.461  1.00  0.00     0.037 A 
HETATM   11  C   UNL     1      26.802  45.661  54.592  1.00  0.00     0.069 A 
HETATM   12  C   UNL     1      26.852  46.596  53.560  1.00  0.00     0.037 A 
HETATM   13  C   UNL     1      26.142  46.384  52.378  1.00  0.00     0.011 A 
BRANCH  11  14
HETATM   14  O   UNL     1      27.540  45.981  55.694  1.00  0.00    -0.347 OA
BRANCH  14  15
HETATM   15  C   UNL     1      28.879  46.416  55.447  1.00  0.00     0.214 C 
BRANCH  15  16
HETATM   16  C   UNL     1      29.801  45.415  56.095  1.00  0.00    -0.034 A 
HETATM   17  C   UNL     1      30.185  44.254  55.409  1.00  0.00     0.009 A 
HETATM   18  C   UNL     1      31.008  43.307  56.021  1.00  0.00     0.001 A 
HETATM   19  C   UNL     1      31.452  43.510  57.327  1.00  0.00     0.000 A 
HETATM   20  C   UNL     1      31.071  44.656  58.022  1.00  0.00     0.001 A 
HETATM   21  C   UNL     1      30.247  45.603  57.412  1.00  0.00     0.009 A 
ENDBRANCH  15  16
ENDBRANCH  14  15
ENDBRANCH  11  14
ENDBRANCH   7   8
ENDBRANCH   2   7
BRANCH   1  22
HETATM   22  C   UNL     1      26.319  42.737  50.049  1.00  0.00     0.249 C 
HETATM   23  N   UNL     1      26.831  42.115  51.164  1.00  0.00    -0.355 N 
HETATM   24  H   UNL     1      26.221  41.851  51.929  1.00  0.00     0.162 HD
HETATM   25  O   UNL     1      27.015  43.324  49.222  1.00  0.00    -0.271 OA
BRANCH  23  26
HETATM   26  C   UNL     1      28.260  42.141  51.472  1.00  0.00     0.076 C 
HETATM   27  C   UNL     1      28.635  40.914  52.297  1.00  0.00     0.032 C 
HETATM   28  C   UNL     1      28.624  43.427  52.211  1.00  0.00     0.032 C 
ENDBRANCH  23  26
ENDBRANCH   1  22
BRANCH   5  29
HETATM   29  S   UNL     1      22.300  44.939  47.864  1.00  0.00    -0.085 SA
BRANCH  29  30
HETATM   30  C   UNL     1      21.092  44.305  46.812  1.00  0.00     0.168 A 
HETATM   31  N   UNL     1      19.958  44.885  46.508  1.00  0.00    -0.223 NA
HETATM   32  C   UNL     1      19.355  44.012  45.629  1.00  0.00     0.086 A 
HETATM   33  C   UNL     1      20.157  42.894  45.405  1.00  0.00     0.063 A 
HETATM   34  C   UNL     1      18.118  44.107  44.975  1.00  0.00     0.034 A 
HETATM   35  N   UNL     1      21.267  43.111  46.180  1.00  0.00    -0.333 N 
HETATM   36  C   UNL     1      19.795  41.847  44.554  1.00  0.00     0.032 A 
HETATM   37  H   UNL     1      22.065  42.501  46.270  1.00  0.00     0.168 HD
HETATM   38  C   UNL     1      18.557  41.962  43.912  1.00  0.00     0.002 A 
HETATM   39  C   UNL     1      17.731  43.070  44.117  1.00  0.00     0.002 A 
ENDBRANCH  29  30
ENDBRANCH   5  29
TORSDOF 9
ENDMDL
MODEL 8
REMARK VINA RESULT:      -8.5      3.846     11.124
REMARK  9 active torsions:
REMARK  status: ('A' for Active; 'I' for Inactive)
REMARK    1  A    between atoms: C_2  and  N_3 
REMARK       I    between atoms: N_3  and  C_4 
REMARK    2  A    between atoms: C_4  and  C_5 
REMARK    3  A    between atoms: N_6  and  C_8 
REMARK    4  A    between atoms: C_8  and  C_9 
REMARK    5  A    between atoms: C_12  and  O_13 
REMARK    6  A    between atoms: O_13  and  C_14 
REMARK    7  A    between atoms: C_14  and  C_15 
REMARK    8  A    between atoms: C_24  and  S_25 
REMARK    9  A    between atoms: S_25  and  C_26 
ROOT
HETATM    1  C   UNL     1      25.010  46.305  51.415  1.00  0.00     0.280 C 
HETATM    2  N   UNL     1      24.648  44.843  51.104  1.00  0.00    -0.053 N 
HETATM    3  H   UNL     1      23.624  44.776  51.031  1.00  0.00     0.281 HD
HETATM    4  C   UNL     1      25.145  44.111  52.333  1.00  0.00     0.252 C 
HETATM    5  C   UNL     1      26.420  44.859  52.759  1.00  0.00     0.083 C 
HETATM    6  C   UNL     1      26.418  46.180  51.978  1.00  0.00     0.060 C 
ENDROOT
BRANCH   2   7
HETATM    7  C   UNL     1      25.185  44.297  49.793  1.00  0.00     0.274 C 
BRANCH   7   8
HETATM    8  C   UNL     1      24.141  43.585  48.976  1.00  0.00    -0.032 A 
HETATM    9  C   UNL     1      24.118  42.182  48.906  1.00  0.00     0.011 A 
HETATM   10  C   UNL     1      23.151  41.522  48.138  1.00  0.00     0.037 A 
HETATM   11  C   UNL     1      22.201  42.258  47.433  1.00  0.00     0.069 A 
HETATM   12  C   UNL     1      22.235  43.650  47.475  1.00  0.00     0.037 A 
HETATM   13  C   UNL     1      23.185  44.312  48.252  1.00  0.00     0.011 A 
BRANCH  11  14
HETATM   14  O   UNL     1      21.224  41.730  46.641  1.00  0.00    -0.347 OA
BRANCH  14  15
HETATM   15  C   UNL     1      21.624  40.666  45.776  1.00  0.00     0.214 C 
BRANCH  15  16
HETATM   16  C   UNL     1      20.667  39.522  46.001  1.00  0.00    -0.034 A 
HETATM   17  C   UNL     1      20.034  38.903  44.915  1.00  0.00     0.009 A 
HETATM   18  C   UNL     1      19.118  37.869  45.123  1.00  0.00     0.001 A 
HETATM   19  C   UNL     1      18.824  37.449  46.419  1.00  0.00     0.000 A 
HETATM   20  C   UNL     1      19.442  38.062  47.507  1.00  0.00     0.001 A 
HETATM   21  C   UNL     1      20.356  39.097  47.301  1.00  0.00     0.009 A 
ENDBRANCH  15  16
ENDBRANCH  14  15
ENDBRANCH  11  14
ENDBRANCH   7   8
ENDBRANCH   2   7
BRANCH   1  22
HETATM   22  C   UNL     1      24.805  47.270  50.237  1.00  0.00     0.249 C 
HETATM   23  N   UNL     1      23.505  47.548  49.884  1.00  0.00    -0.355 N 
HETATM   24  H   UNL     1      22.745  46.972  50.229  1.00  0.00     0.162 HD
HETATM   25  O   UNL     1      25.780  47.740  49.653  1.00  0.00    -0.271 OA
BRANCH  23  26
HETATM   26  C   UNL     1      23.184  48.406  48.744  1.00  0.00     0.076 C 
HETATM   27  C   UNL     1      22.897  49.824  49.228  1.00  0.00     0.032 C 
HETATM   28  C   UNL     1      21.994  47.843  47.970  1.00  0.00     0.032 C 
ENDBRANCH  23  26
ENDBRANCH   1  22
BRANCH   5  29
HETATM   29  S   UNL     1      27.964  43.942  52.409  1.00  0.00    -0.085 SA
BRANCH  29  30
HETATM   30  C   UNL     1      28.806  44.208  53.888  1.00  0.00     0.168 A 
HETATM   31  N   UNL     1      28.609  45.205  54.714  1.00  0.00    -0.223 NA
HETATM   32  C   UNL     1      29.492  44.970  55.746  1.00  0.00     0.086 A 
HETATM   33  C   UNL     1      30.222  43.804  55.525  1.00  0.00     0.063 A 
HETATM   34  C   UNL     1      29.727  45.711  56.913  1.00  0.00     0.034 A 
HETATM   35  N   UNL     1      29.758  43.336  54.322  1.00  0.00    -0.333 N 
HETATM   36  C   UNL     1      31.188  43.322  56.410  1.00  0.00     0.032 A 
HETATM   37  H   UNL     1      30.065  42.503  53.843  1.00  0.00     0.168 HD
HETATM   38  C   UNL     1      31.407  44.076  57.569  1.00  0.00     0.002 A 
HETATM   39  C   UNL     1      30.691  45.250  57.818  1.00  0.00     0.002 A 
ENDBRANCH  29  30
ENDBRANCH   5  29
TORSDOF 9
ENDMDL
MODEL 9
REMARK VINA RESULT:      -8.3      3.163      9.577
REMARK  9 active torsions:
REMARK  status: ('A' for Active; 'I' for Inactive)
REMARK    1  A    between atoms: C_2  and  N_3 
REMARK       I    between atoms: N_3  and  C_4 
REMARK    2  A    between atoms: C_4  and  C_5 
REMARK    3  A    between atoms: N_6  and  C_8 
REMARK    4  A    between atoms: C_8  and  C_9 
REMARK    5  A    between atoms: C_12  and  O_13 
REMARK    6  A    between atoms: O_13  and  C_14 
REMARK    7  A    between atoms: C_14  and  C_15 
REMARK    8  A    between atoms: C_24  and  S_25 
REMARK    9  A    between atoms: S_25  and  C_26 
ROOT
HETATM    1  C   UNL     1      27.121  41.821  48.913  1.00  0.00     0.280 C 
HETATM    2  N   UNL     1      26.033  42.886  48.697  1.00  0.00    -0.053 N 
HETATM    3  H   UNL     1      26.036  43.150  47.702  1.00  0.00     0.281 HD
HETATM    4  C   UNL     1      26.521  44.035  49.554  1.00  0.00     0.252 C 
HETATM    5  C   UNL     1      27.181  43.374  50.776  1.00  0.00     0.083 C 
HETATM    6  C   UNL     1      27.354  41.892  50.414  1.00  0.00     0.060 C 
ENDROOT
BRANCH   2   7
HETATM    7  C   UNL     1      24.612  42.445  48.996  1.00  0.00     0.274 C 
BRANCH   7   8
HETATM    8  C   UNL     1      23.577  43.457  48.579  1.00  0.00    -0.032 A 
HETATM    9  C   UNL     1      23.489  43.886  47.245  1.00  0.00     0.011 A 
HETATM   10  C   UNL     1      22.532  44.833  46.862  1.00  0.00     0.037 A 
HETATM   11  C   UNL     1      21.658  45.361  47.809  1.00  0.00     0.069 A 
HETATM   12  C   UNL     1      21.758  44.961  49.140  1.00  0.00     0.037 A 
HETATM   13  C   UNL     1      22.698  44.005  49.524  1.00  0.00     0.011 A 
BRANCH  11  14
HETATM   14  O   UNL     1      20.699  46.299  47.561  1.00  0.00    -0.347 OA
BRANCH  14  15
HETATM   15  C   UNL     1      20.141  46.944  48.706  1.00  0.00     0.214 C 
BRANCH  15  16
HETATM   16  C   UNL     1      20.578  48.387  48.665  1.00  0.00    -0.034 A 
HETATM   17  C   UNL     1      21.585  48.799  47.781  1.00  0.00     0.009 A 
HETATM   18  C   UNL     1      22.018  50.126  47.768  1.00  0.00     0.001 A 
HETATM   19  C   UNL     1      21.450  51.053  48.640  1.00  0.00     0.000 A 
HETATM   20  C   UNL     1      20.454  50.654  49.528  1.00  0.00     0.001 A 
HETATM   21  C   UNL     1      20.021  49.327  49.544  1.00  0.00     0.009 A 
ENDBRANCH  15  16
ENDBRANCH  14  15
ENDBRANCH  11  14
ENDBRANCH   7   8
ENDBRANCH   2   7
BRANCH   1  22
HETATM   22  C   UNL     1      26.785  40.446  48.316  1.00  0.00     0.249 C 
HETATM   23  N   UNL     1      27.211  39.344  49.022  1.00  0.00    -0.355 N 
HETATM   24  H   UNL     1      27.898  39.442  49.760  1.00  0.00     0.162 HD
HETATM   25  O   UNL     1      26.179  40.373  47.248  1.00  0.00    -0.271 OA
BRANCH  23  26
HETATM   26  C   UNL     1      27.002  37.985  48.525  1.00  0.00     0.076 C 
HETATM   27  C   UNL     1      26.832  37.025  49.698  1.00  0.00     0.032 C 
HETATM   28  C   UNL     1      28.167  37.556  47.635  1.00  0.00     0.032 C 
ENDBRANCH  23  26
ENDBRANCH   1  22
BRANCH   5  29
HETATM   29  S   UNL     1      26.200  43.520  52.314  1.00  0.00    -0.085 SA
BRANCH  29  30
HETATM   30  C   UNL     1      27.451  43.939  53.421  1.00  0.00     0.168 A 
HETATM   31  N   UNL     1      27.493  45.019  54.160  1.00  0.00    -0.223 NA
HETATM   32  C   UNL     1      28.659  44.891  54.884  1.00  0.00     0.086 A 
HETATM   33  C   UNL     1      29.317  43.704  54.567  1.00  0.00     0.063 A 
HETATM   34  C   UNL     1      29.223  45.752  55.837  1.00  0.00     0.034 A 
HETATM   35  N   UNL     1      28.516  43.113  53.624  1.00  0.00    -0.333 N 
HETATM   36  C   UNL     1      30.523  43.315  55.152  1.00  0.00     0.032 A 
HETATM   37  H   UNL     1      28.683  42.232  53.161  1.00  0.00     0.168 HD
HETATM   38  C   UNL     1      31.070  44.188  56.101  1.00  0.00     0.002 A 
HETATM   39  C   UNL     1      30.433  45.385  56.438  1.00  0.00     0.002 A 
ENDBRANCH  29  30
ENDBRANCH   5  29
TORSDOF 9
ENDMDL
MODEL 10
REMARK VINA RESULT:      -8.3      2.940      6.912
REMARK  9 active torsions:
REMARK  status: ('A' for Active; 'I' for Inactive)
REMARK    1  A    between atoms: C_2  and  N_3 
REMARK       I    between atoms: N_3  and  C_4 
REMARK    2  A    between atoms: C_4  and  C_5 
REMARK    3  A    between atoms: N_6  and  C_8 
REMARK    4  A    between atoms: C_8  and  C_9 
REMARK    5  A    between atoms: C_12  and  O_13 
REMARK    6  A    between atoms: O_13  and  C_14 
REMARK    7  A    between atoms: C_14  and  C_15 
REMARK    8  A    between atoms: C_24  and  S_25 
REMARK    9  A    between atoms: S_25  and  C_26 
ROOT
HETATM    1  C   UNL     1      26.377  46.064  51.779  1.00  0.00     0.280 C 
HETATM    2  N   UNL     1      26.611  44.999  50.696  1.00  0.00    -0.053 N 
HETATM    3  H   UNL     1      27.618  44.790  50.663  1.00  0.00     0.281 HD
HETATM    4  C   UNL     1      26.173  45.710  49.432  1.00  0.00     0.252 C 
HETATM    5  C   UNL     1      24.993  46.600  49.859  1.00  0.00     0.083 C 
HETATM    6  C   UNL     1      25.019  46.629  51.394  1.00  0.00     0.060 C 
ENDROOT
BRANCH   2   7
HETATM    7  C   UNL     1      25.927  43.663  50.928  1.00  0.00     0.274 C 
BRANCH   7   8
HETATM    8  C   UNL     1      26.796  42.484  50.580  1.00  0.00    -0.032 A 
HETATM    9  C   UNL     1      27.560  41.840  51.568  1.00  0.00     0.011 A 
HETATM   10  C   UNL     1      28.374  40.749  51.241  1.00  0.00     0.037 A 
HETATM   11  C   UNL     1      28.432  40.294  49.925  1.00  0.00     0.069 A 
HETATM   12  C   UNL     1      27.699  40.946  48.935  1.00  0.00     0.037 A 
HETATM   13  C   UNL     1      26.873  42.022  49.258  1.00  0.00     0.011 A 
BRANCH  11  14
HETATM   14  O   UNL     1      29.199  39.256  49.483  1.00  0.00    -0.347 OA
BRANCH  14  15
HETATM   15  C   UNL     1      28.765  37.949  49.863  1.00  0.00     0.214 C 
BRANCH  15  16
HETATM   16  C   UNL     1      27.928  37.409  48.731  1.00  0.00    -0.034 A 
HETATM   17  C   UNL     1      28.412  37.435  47.415  1.00  0.00     0.009 A 
HETATM   18  C   UNL     1      27.624  36.970  46.360  1.00  0.00     0.001 A 
HETATM   19  C   UNL     1      26.344  36.479  46.610  1.00  0.00     0.000 A 
HETATM   20  C   UNL     1      25.849  36.455  47.913  1.00  0.00     0.001 A 
HETATM   21  C   UNL     1      26.635  36.921  48.968  1.00  0.00     0.009 A 
ENDBRANCH  15  16
ENDBRANCH  14  15
ENDBRANCH  11  14
ENDBRANCH   7   8
ENDBRANCH   2   7
BRANCH   1  22
HETATM   22  C   UNL     1      26.546  45.550  53.217  1.00  0.00     0.249 C 
HETATM   23  N   UNL     1      27.807  45.142  53.584  1.00  0.00    -0.355 N 
HETATM   24  H   UNL     1      28.518  44.975  52.881  1.00  0.00     0.162 HD
HETATM   25  O   UNL     1      25.574  45.506  53.969  1.00  0.00    -0.271 OA
BRANCH  23  26
HETATM   26  C   UNL     1      28.079  44.580  54.906  1.00  0.00     0.076 C 
HETATM   27  C   UNL     1      28.572  45.677  55.844  1.00  0.00     0.032 C 
HETATM   28  C   UNL     1      29.100  43.449  54.807  1.00  0.00     0.032 C 
ENDBRANCH  23  26
ENDBRANCH   1  22
BRANCH   5  29
HETATM   29  S   UNL     1      23.366  45.993  49.284  1.00  0.00    -0.085 SA
BRANCH  29  30
HETATM   30  C   UNL     1      22.537  47.494  49.114  1.00  0.00     0.168 A 
HETATM   31  N   UNL     1      23.097  48.665  48.943  1.00  0.00    -0.223 NA
HETATM   32  C   UNL     1      22.034  49.538  48.839  1.00  0.00     0.086 A 
HETATM   33  C   UNL     1      20.820  48.862  48.947  1.00  0.00     0.063 A 
HETATM   34  C   UNL     1      22.029  50.927  48.649  1.00  0.00     0.034 A 
HETATM   35  N   UNL     1      21.176  47.550  49.124  1.00  0.00    -0.333 N 
HETATM   36  C   UNL     1      19.579  49.497  48.876  1.00  0.00     0.032 A 
HETATM   37  H   UNL     1      20.549  46.768  49.242  1.00  0.00     0.168 HD
HETATM   38  C   UNL     1      19.595  50.884  48.686  1.00  0.00     0.002 A 
HETATM   39  C   UNL     1      20.797  51.588  48.575  1.00  0.00     0.002 A 
ENDBRANCH  29  30
ENDBRANCH   5  29
TORSDOF 9
ENDMDL
