MODEL 1
REMARK VINA RESULT:      -8.9      0.000      0.000
REMARK  8 active torsions:
REMARK  status: ('A' for Active; 'I' for Inactive)
REMARK    1  A    between atoms: C_2  and  C_4 
REMARK    2  A    between atoms: C_2  and  C_29 
REMARK    3  A    between atoms: C_2  and  O_3 
REMARK    4  A    between atoms: N_11  and  C_13 
REMARK    5  A    between atoms: C_13  and  C_14 
REMARK    6  A    between atoms: C_16  and  S_17 
REMARK    7  A    between atoms: S_17  and  C_18 
REMARK    8  A    between atoms: C_29  and  N_30 
ROOT
HETATM    1  C   UNL     1      28.510  43.190  53.746  1.00  0.00    -0.022 A 
HETATM    2  C   UNL     1      27.241  43.802  53.687  1.00  0.00     0.022 A 
HETATM    3  C   UNL     1      26.950  44.982  54.396  1.00  0.00     0.002 A 
HETATM    4  C   UNL     1      27.941  45.541  55.198  1.00  0.00     0.076 A 
HETATM    5  O   UNL     1      27.693  46.654  55.952  1.00  0.00    -0.349 OA
HETATM    6  C   UNL     1      27.565  47.835  55.148  1.00  0.00     0.203 C 
HETATM    7  C   UNL     1      26.121  48.061  54.676  1.00  0.00     0.262 C 
HETATM    8  N   UNL     1      25.662  47.034  53.656  1.00  0.00    -0.059 N 
HETATM    9  H   UNL     1      24.679  47.246  53.443  1.00  0.00     0.280 HD
HETATM   10  C   UNL     1      25.609  45.643  54.260  1.00  0.00     0.276 C 
HETATM   11  C   UNL     1      29.195  44.947  55.296  1.00  0.00     0.038 A 
HETATM   12  C   UNL     1      29.488  43.798  54.552  1.00  0.00     0.013 A 
ENDROOT
BRANCH   8  13
HETATM   13  C   UNL     1      26.389  47.150  52.325  1.00  0.00     0.299 C 
BRANCH  13  14
HETATM   14  C   UNL     1      25.717  46.508  51.166  1.00  0.00     0.080 A 
HETATM   15  O   UNL     1      24.555  47.070  50.744  1.00  0.00    -0.306 OA
HETATM   16  C   UNL     1      24.128  46.391  49.639  1.00  0.00     0.120 A 
HETATM   17  C   UNL     1      24.969  45.319  49.424  1.00  0.00     0.047 A 
HETATM   18  C   UNL     1      25.997  45.398  50.399  1.00  0.00     0.038 A 
BRANCH  16  19
HETATM   19  S   UNL     1      22.739  46.892  48.713  1.00  0.00    -0.025 SA
BRANCH  19  20
HETATM   20  C   UNL     1      22.850  48.587  49.057  1.00  0.00     0.197 A 
HETATM   21  N   UNL     1      21.772  49.382  49.325  1.00  0.00    -0.322 N 
HETATM   22  C   UNL     1      20.382  49.013  49.397  1.00  0.00     0.159 C 
HETATM   23  C   UNL     1      22.279  50.635  49.512  1.00  0.00     0.235 A 
HETATM   24  N   UNL     1      23.588  50.604  49.398  1.00  0.00    -0.143 NA
HETATM   25  N   UNL     1      23.948  49.310  49.117  1.00  0.00    -0.123 NA
ENDBRANCH  19  20
ENDBRANCH  16  19
ENDBRANCH  13  14
ENDBRANCH   8  13
BRANCH   1  26
HETATM   26  C   UNL     1      28.806  41.960  52.880  1.00  0.00     0.105 C 
HETATM   27  C   UNL     1      28.434  40.697  53.676  1.00  0.00     0.053 C 
BRANCH  26  28
HETATM   28  C   UNL     1      28.064  41.927  51.501  1.00  0.00     0.276 C 
BRANCH  28  29
HETATM   29  N   UNL     1      27.518  40.551  51.105  1.00  0.00    -0.076 N 
HETATM   30  H   UNL     1      27.530  39.953  51.941  1.00  0.00     0.279 HD
HETATM   31  C   UNL     1      26.085  40.575  50.636  1.00  0.00     0.269 C 
HETATM   32  C   UNL     1      28.406  39.898  50.079  1.00  0.00     0.269 C 
ENDBRANCH  28  29
ENDBRANCH  26  28
BRANCH  26  33
HETATM   33  O   UNL     1      30.216  41.919  52.596  1.00  0.00    -0.384 OA
HETATM   34  H   UNL     1      30.623  41.180  53.086  1.00  0.00     0.211 HD
ENDBRANCH  26  33
ENDBRANCH   1  26
TORSDOF 8
ENDMDL
MODEL 2
REMARK VINA RESULT:      -8.4      1.523      2.095
REMARK  8 active torsions:
REMARK  status: ('A' for Active; 'I' for Inactive)
REMARK    1  A    between atoms: C_2  and  C_4 
REMARK    2  A    between atoms: C_2  and  C_29 
REMARK    3  A    between atoms: C_2  and  O_3 
REMARK    4  A    between atoms: N_11  and  C_13 
REMARK    5  A    between atoms: C_13  and  C_14 
REMARK    6  A    between atoms: C_16  and  S_17 
REMARK    7  A    between atoms: S_17  and  C_18 
REMARK    8  A    between atoms: C_29  and  N_30 
ROOT
HETATM    1  C   UNL     1      27.324  42.251  52.247  1.00  0.00    -0.022 A 
HETATM    2  C   UNL     1      26.294  43.162  52.559  1.00  0.00     0.022 A 
HETATM    3  C   UNL     1      26.439  44.133  53.565  1.00  0.00     0.002 A 
HETATM    4  C   UNL     1      27.628  44.174  54.288  1.00  0.00     0.076 A 
HETATM    5  O   UNL     1      27.800  45.062  55.313  1.00  0.00    -0.349 OA
HETATM    6  C   UNL     1      27.944  46.410  54.846  1.00  0.00     0.203 C 
HETATM    7  C   UNL     1      26.590  47.122  54.704  1.00  0.00     0.262 C 
HETATM    8  N   UNL     1      25.745  46.570  53.569  1.00  0.00    -0.059 N 
HETATM    9  H   UNL     1      24.852  47.079  53.589  1.00  0.00     0.280 HD
HETATM   10  C   UNL     1      25.346  45.129  53.828  1.00  0.00     0.276 C 
HETATM   11  C   UNL     1      28.653  43.274  54.019  1.00  0.00     0.038 A 
HETATM   12  C   UNL     1      28.516  42.340  52.986  1.00  0.00     0.013 A 
ENDROOT
BRANCH   8  13
HETATM   13  C   UNL     1      26.332  46.856  52.195  1.00  0.00     0.299 C 
BRANCH  13  14
HETATM   14  C   UNL     1      25.351  46.953  51.084  1.00  0.00     0.080 A 
HETATM   15  O   UNL     1      25.195  48.174  50.510  1.00  0.00    -0.306 OA
HETATM   16  C   UNL     1      24.313  48.050  49.474  1.00  0.00     0.120 A 
HETATM   17  C   UNL     1      23.823  46.760  49.460  1.00  0.00     0.047 A 
HETATM   18  C   UNL     1      24.496  46.051  50.488  1.00  0.00     0.038 A 
BRANCH  16  19
HETATM   19  S   UNL     1      23.950  49.368  48.393  1.00  0.00    -0.025 SA
BRANCH  19  20
HETATM   20  C   UNL     1      22.545  49.949  49.225  1.00  0.00     0.197 A 
HETATM   21  N   UNL     1      21.273  49.535  48.949  1.00  0.00    -0.322 N 
HETATM   22  C   UNL     1      20.835  48.568  47.976  1.00  0.00     0.159 C 
HETATM   23  C   UNL     1      20.467  50.241  49.794  1.00  0.00     0.235 A 
HETATM   24  N   UNL     1      21.202  51.014  50.563  1.00  0.00    -0.143 NA
HETATM   25  N   UNL     1      22.513  50.824  50.207  1.00  0.00    -0.123 NA
ENDBRANCH  19  20
ENDBRANCH  16  19
ENDBRANCH  13  14
ENDBRANCH   8  13
BRANCH   1  26
HETATM   26  C   UNL     1      27.153  41.274  51.078  1.00  0.00     0.105 C 
HETATM   27  C   UNL     1      26.505  42.023  49.901  1.00  0.00     0.053 C 
BRANCH  26  28
HETATM   28  C   UNL     1      28.476  40.600  50.581  1.00  0.00     0.276 C 
BRANCH  28  29
HETATM   29  N   UNL     1      28.404  39.075  50.451  1.00  0.00    -0.076 N 
HETATM   30  H   UNL     1      27.608  38.746  51.012  1.00  0.00     0.279 HD
HETATM   31  C   UNL     1      28.143  38.594  49.046  1.00  0.00     0.269 C 
HETATM   32  C   UNL     1      29.641  38.429  51.016  1.00  0.00     0.269 C 
ENDBRANCH  28  29
ENDBRANCH  26  28
BRANCH  26  33
HETATM   33  O   UNL     1      26.271  40.212  51.483  1.00  0.00    -0.384 OA
HETATM   34  H   UNL     1      25.398  40.340  51.066  1.00  0.00     0.211 HD
ENDBRANCH  26  33
ENDBRANCH   1  26
TORSDOF 8
ENDMDL
MODEL 3
REMARK VINA RESULT:      -8.2      3.042      5.177
REMARK  8 active torsions:
REMARK  status: ('A' for Active; 'I' for Inactive)
REMARK    1  A    between atoms: C_2  and  C_4 
REMARK    2  A    between atoms: C_2  and  C_29 
REMARK    3  A    between atoms: C_2  and  O_3 
REMARK    4  A    between atoms: N_11  and  C_13 
REMARK    5  A    between atoms: C_13  and  C_14 
REMARK    6  A    between atoms: C_16  and  S_17 
REMARK    7  A    between atoms: S_17  and  C_18 
REMARK    8  A    between atoms: C_29  and  N_30 
ROOT
HETATM    1  C   UNL     1      26.747  46.215  54.032  1.00  0.00    -0.022 A 
HETATM    2  C   UNL     1      26.910  46.437  52.649  1.00  0.00     0.022 A 
HETATM    3  C   UNL     1      26.237  45.664  51.687  1.00  0.00     0.002 A 
HETATM    4  C   UNL     1      25.406  44.634  52.119  1.00  0.00     0.076 A 
HETATM    5  O   UNL     1      24.773  43.817  51.225  1.00  0.00    -0.349 OA
HETATM    6  C   UNL     1      23.712  44.489  50.533  1.00  0.00     0.203 C 
HETATM    7  C   UNL     1      24.205  45.191  49.259  1.00  0.00     0.262 C 
HETATM    8  N   UNL     1      25.093  46.389  49.546  1.00  0.00    -0.059 N 
HETATM    9  H   UNL     1      25.402  46.754  48.636  1.00  0.00     0.280 HD
HETATM   10  C   UNL     1      26.384  45.969  50.224  1.00  0.00     0.276 C 
HETATM   11  C   UNL     1      25.244  44.375  53.476  1.00  0.00     0.038 A 
HETATM   12  C   UNL     1      25.884  45.179  54.426  1.00  0.00     0.013 A 
ENDROOT
BRANCH   8  13
HETATM   13  C   UNL     1      24.346  47.541  50.201  1.00  0.00     0.299 C 
BRANCH  13  14
HETATM   14  C   UNL     1      23.786  48.556  49.273  1.00  0.00     0.080 A 
HETATM   15  O   UNL     1      22.474  48.427  48.945  1.00  0.00    -0.306 OA
HETATM   16  C   UNL     1      22.128  49.481  48.147  1.00  0.00     0.120 A 
HETATM   17  C   UNL     1      23.258  50.225  47.878  1.00  0.00     0.047 A 
HETATM   18  C   UNL     1      24.323  49.638  48.609  1.00  0.00     0.038 A 
BRANCH  16  19
HETATM   19  S   UNL     1      20.488  49.757  47.624  1.00  0.00    -0.025 SA
BRANCH  19  20
HETATM   20  C   UNL     1      19.720  49.436  49.144  1.00  0.00     0.197 A 
HETATM   21  N   UNL     1      19.189  48.226  49.487  1.00  0.00    -0.322 N 
HETATM   22  C   UNL     1      19.163  47.007  48.721  1.00  0.00     0.159 C 
HETATM   23  C   UNL     1      18.663  48.398  50.735  1.00  0.00     0.235 A 
HETATM   24  N   UNL     1      18.887  49.627  51.144  1.00  0.00    -0.143 NA
HETATM   25  N   UNL     1      19.559  50.280  50.141  1.00  0.00    -0.123 NA
ENDBRANCH  19  20
ENDBRANCH  16  19
ENDBRANCH  13  14
ENDBRANCH   8  13
BRANCH   1  26
HETATM   26  C   UNL     1      27.428  47.146  55.042  1.00  0.00     0.105 C 
HETATM   27  C   UNL     1      26.402  48.188  55.521  1.00  0.00     0.053 C 
BRANCH  26  28
HETATM   28  C   UNL     1      28.043  46.430  56.291  1.00  0.00     0.276 C 
BRANCH  28  29
HETATM   29  N   UNL     1      29.498  45.983  56.117  1.00  0.00    -0.076 N 
HETATM   30  H   UNL     1      29.976  46.680  55.532  1.00  0.00     0.279 HD
HETATM   31  C   UNL     1      30.278  45.924  57.407  1.00  0.00     0.269 C 
HETATM   32  C   UNL     1      29.571  44.668  55.387  1.00  0.00     0.269 C 
ENDBRANCH  28  29
ENDBRANCH  26  28
BRANCH  26  33
HETATM   33  O   UNL     1      28.506  47.838  54.385  1.00  0.00    -0.384 OA
HETATM   34  H   UNL     1      28.226  48.092  53.486  1.00  0.00     0.211 HD
ENDBRANCH  26  33
ENDBRANCH   1  26
TORSDOF 8
ENDMDL
MODEL 4
REMARK VINA RESULT:      -8.0      2.676      4.245
REMARK  8 active torsions:
REMARK  status: ('A' for Active; 'I' for Inactive)
REMARK    1  A    between atoms: C_2  and  C_4 
REMARK    2  A    between atoms: C_2  and  C_29 
REMARK    3  A    between atoms: C_2  and  O_3 
REMARK    4  A    between atoms: N_11  and  C_13 
REMARK    5  A    between atoms: C_13  and  C_14 
REMARK    6  A    between atoms: C_16  and  S_17 
REMARK    7  A    between atoms: S_17  and  C_18 
REMARK    8  A    between atoms: C_29  and  N_30 
ROOT
HETATM    1  C   UNL     1      27.873  45.190  54.661  1.00  0.00    -0.022 A 
HETATM    2  C   UNL     1      28.034  45.196  53.260  1.00  0.00     0.022 A 
HETATM    3  C   UNL     1      27.039  44.710  52.394  1.00  0.00     0.002 A 
HETATM    4  C   UNL     1      25.872  44.185  52.944  1.00  0.00     0.076 A 
HETATM    5  O   UNL     1      24.898  43.648  52.150  1.00  0.00    -0.349 OA
HETATM    6  C   UNL     1      24.191  44.650  51.406  1.00  0.00     0.203 C 
HETATM    7  C   UNL     1      24.863  44.953  50.058  1.00  0.00     0.262 C 
HETATM    8  N   UNL     1      26.195  45.668  50.205  1.00  0.00    -0.059 N 
HETATM    9  H   UNL     1      26.577  45.780  49.258  1.00  0.00     0.280 HD
HETATM   10  C   UNL     1      27.217  44.790  50.906  1.00  0.00     0.276 C 
HETATM   11  C   UNL     1      25.694  44.143  54.323  1.00  0.00     0.038 A 
HETATM   12  C   UNL     1      26.672  44.670  55.174  1.00  0.00     0.013 A 
ENDROOT
BRANCH   8  13
HETATM   13  C   UNL     1      26.056  47.082  50.747  1.00  0.00     0.299 C 
BRANCH  13  14
HETATM   14  C   UNL     1      25.989  48.159  49.726  1.00  0.00     0.080 A 
HETATM   15  O   UNL     1      24.755  48.638  49.423  1.00  0.00    -0.306 OA
HETATM   16  C   UNL     1      24.902  49.659  48.526  1.00  0.00     0.120 A 
HETATM   17  C   UNL     1      26.233  49.754  48.175  1.00  0.00     0.047 A 
HETATM   18  C   UNL     1      26.935  48.797  48.953  1.00  0.00     0.038 A 
BRANCH  16  19
HETATM   19  S   UNL     1      23.559  50.631  47.990  1.00  0.00    -0.025 SA
BRANCH  19  20
HETATM   20  C   UNL     1      22.331  49.421  48.167  1.00  0.00     0.197 A 
HETATM   21  N   UNL     1      21.266  49.535  49.014  1.00  0.00    -0.322 N 
HETATM   22  C   UNL     1      20.927  50.628  49.887  1.00  0.00     0.159 C 
HETATM   23  C   UNL     1      20.562  48.374  48.875  1.00  0.00     0.235 A 
HETATM   24  N   UNL     1      21.141  47.610  47.975  1.00  0.00    -0.143 NA
HETATM   25  N   UNL     1      22.255  48.274  47.525  1.00  0.00    -0.123 NA
ENDBRANCH  19  20
ENDBRANCH  16  19
ENDBRANCH  13  14
ENDBRANCH   8  13
BRANCH   1  26
HETATM   26  C   UNL     1      28.945  45.818  55.558  1.00  0.00     0.105 C 
HETATM   27  C   UNL     1      28.440  45.809  57.010  1.00  0.00     0.053 C 
BRANCH  26  28
HETATM   28  C   UNL     1      30.346  45.118  55.504  1.00  0.00     0.276 C 
BRANCH  28  29
HETATM   29  N   UNL     1      30.323  43.624  55.845  1.00  0.00    -0.076 N 
HETATM   30  H   UNL     1      29.437  43.422  56.323  1.00  0.00     0.279 HD
HETATM   31  C   UNL     1      30.353  42.722  54.636  1.00  0.00     0.269 C 
HETATM   32  C   UNL     1      31.433  43.276  56.800  1.00  0.00     0.269 C 
ENDBRANCH  28  29
ENDBRANCH  26  28
BRANCH  26  33
HETATM   33  O   UNL     1      29.147  47.185  55.156  1.00  0.00    -0.384 OA
HETATM   34  H   UNL     1      28.571  47.387  54.396  1.00  0.00     0.211 HD
ENDBRANCH  26  33
ENDBRANCH   1  26
TORSDOF 8
ENDMDL
MODEL 5
REMARK VINA RESULT:      -8.0      2.916      9.350
REMARK  8 active torsions:
REMARK  status: ('A' for Active; 'I' for Inactive)
REMARK    1  A    between atoms: C_2  and  C_4 
REMARK    2  A    between atoms: C_2  and  C_29 
REMARK    3  A    between atoms: C_2  and  O_3 
REMARK    4  A    between atoms: N_11  and  C_13 
REMARK    5  A    between atoms: C_13  and  C_14 
REMARK    6  A    between atoms: C_16  and  S_17 
REMARK    7  A    between atoms: S_17  and  C_18 
REMARK    8  A    between atoms: C_29  and  N_30 
ROOT
HETATM    1  C   UNL     1      22.096  49.948  48.947  1.00  0.00    -0.022 A 
HETATM    2  C   UNL     1      22.510  48.606  49.085  1.00  0.00     0.022 A 
HETATM    3  C   UNL     1      23.845  48.215  48.882  1.00  0.00     0.002 A 
HETATM    4  C   UNL     1      24.775  49.180  48.507  1.00  0.00     0.076 A 
HETATM    5  O   UNL     1      26.073  48.844  48.242  1.00  0.00    -0.349 OA
HETATM    6  C   UNL     1      26.796  48.492  49.430  1.00  0.00     0.203 C 
HETATM    7  C   UNL     1      26.672  46.998  49.764  1.00  0.00     0.262 C 
HETATM    8  N   UNL     1      25.276  46.604  50.215  1.00  0.00    -0.059 N 
HETATM    9  H   UNL     1      25.289  45.588  50.367  1.00  0.00     0.280 HD
HETATM   10  C   UNL     1      24.264  46.790  49.099  1.00  0.00     0.276 C 
HETATM   11  C   UNL     1      24.393  50.507  48.340  1.00  0.00     0.038 A 
HETATM   12  C   UNL     1      23.071  50.894  48.588  1.00  0.00     0.013 A 
ENDROOT
BRANCH   8  13
HETATM   13  C   UNL     1      24.894  47.201  51.560  1.00  0.00     0.299 C 
BRANCH  13  14
HETATM   14  C   UNL     1      25.677  46.717  52.726  1.00  0.00     0.080 A 
HETATM   15  O   UNL     1      25.539  45.406  53.054  1.00  0.00    -0.306 OA
HETATM   16  C   UNL     1      26.380  45.136  54.096  1.00  0.00     0.120 A 
HETATM   17  C   UNL     1      26.976  46.312  54.503  1.00  0.00     0.047 A 
HETATM   18  C   UNL     1      26.532  47.328  53.617  1.00  0.00     0.038 A 
BRANCH  16  19
HETATM   19  S   UNL     1      26.603  43.525  54.723  1.00  0.00    -0.025 SA
BRANCH  19  20
HETATM   20  C   UNL     1      28.245  43.318  54.209  1.00  0.00     0.197 A 
HETATM   21  N   UNL     1      28.604  42.918  52.953  1.00  0.00    -0.322 N 
HETATM   22  C   UNL     1      27.755  42.613  51.831  1.00  0.00     0.159 C 
HETATM   23  C   UNL     1      29.968  42.854  52.966  1.00  0.00     0.235 A 
HETATM   24  N   UNL     1      30.416  43.223  54.145  1.00  0.00    -0.143 NA
HETATM   25  N   UNL     1      29.329  43.521  54.927  1.00  0.00    -0.123 NA
ENDBRANCH  19  20
ENDBRANCH  16  19
ENDBRANCH  13  14
ENDBRANCH   8  13
BRANCH   1  26
HETATM   26  C   UNL     1      20.651  50.340  49.273  1.00  0.00     0.105 C 
HETATM   27  C   UNL     1      20.345  51.690  48.603  1.00  0.00     0.053 C 
BRANCH  26  28
HETATM   28  C   UNL     1      19.567  49.298  48.831  1.00  0.00     0.276 C 
BRANCH  28  29
HETATM   29  N   UNL     1      18.369  49.902  48.090  1.00  0.00    -0.076 N 
HETATM   30  H   UNL     1      18.648  50.825  47.736  1.00  0.00     0.279 HD
HETATM   31  C   UNL     1      17.937  49.111  46.881  1.00  0.00     0.269 C 
HETATM   32  C   UNL     1      17.213  50.118  49.030  1.00  0.00     0.269 C 
ENDBRANCH  28  29
ENDBRANCH  26  28
BRANCH  26  33
HETATM   33  O   UNL     1      20.520  50.498  50.697  1.00  0.00    -0.384 OA
HETATM   34  H   UNL     1      20.387  51.441  50.906  1.00  0.00     0.211 HD
ENDBRANCH  26  33
ENDBRANCH   1  26
TORSDOF 8
ENDMDL
MODEL 6
REMARK VINA RESULT:      -7.6      4.139      8.930
REMARK  8 active torsions:
REMARK  status: ('A' for Active; 'I' for Inactive)
REMARK    1  A    between atoms: C_2  and  C_4 
REMARK    2  A    between atoms: C_2  and  C_29 
REMARK    3  A    between atoms: C_2  and  O_3 
REMARK    4  A    between atoms: N_11  and  C_13 
REMARK    5  A    between atoms: C_13  and  C_14 
REMARK    6  A    between atoms: C_16  and  S_17 
REMARK    7  A    between atoms: S_17  and  C_18 
REMARK    8  A    between atoms: C_29  and  N_30 
ROOT
HETATM    1  C   UNL     1      18.797  46.399  47.209  1.00  0.00    -0.022 A 
HETATM    2  C   UNL     1      19.480  47.611  46.979  1.00  0.00     0.022 A 
HETATM    3  C   UNL     1      19.180  48.782  47.697  1.00  0.00     0.002 A 
HETATM    4  C   UNL     1      18.160  48.743  48.644  1.00  0.00     0.076 A 
HETATM    5  O   UNL     1      17.790  49.866  49.329  1.00  0.00    -0.349 OA
HETATM    6  C   UNL     1      18.777  50.264  50.291  1.00  0.00     0.203 C 
HETATM    7  C   UNL     1      19.830  51.204  49.687  1.00  0.00     0.262 C 
HETATM    8  N   UNL     1      20.743  50.512  48.690  1.00  0.00    -0.059 N 
HETATM    9  H   UNL     1      21.373  51.232  48.315  1.00  0.00     0.280 HD
HETATM   10  C   UNL     1      19.970  50.039  47.472  1.00  0.00     0.276 C 
HETATM   11  C   UNL     1      17.452  47.568  48.876  1.00  0.00     0.038 A 
HETATM   12  C   UNL     1      17.788  46.397  48.188  1.00  0.00     0.013 A 
ENDROOT
BRANCH   8  13
HETATM   13  C   UNL     1      21.657  49.482  49.333  1.00  0.00     0.299 C 
BRANCH  13  14
HETATM   14  C   UNL     1      23.086  49.548  48.932  1.00  0.00     0.080 A 
HETATM   15  O   UNL     1      23.965  48.826  49.675  1.00  0.00    -0.306 OA
HETATM   16  C   UNL     1      25.204  48.957  49.116  1.00  0.00     0.120 A 
HETATM   17  C   UNL     1      25.130  49.858  48.074  1.00  0.00     0.047 A 
HETATM   18  C   UNL     1      23.766  50.232  47.948  1.00  0.00     0.038 A 
BRANCH  16  19
HETATM   19  S   UNL     1      26.588  48.069  49.695  1.00  0.00    -0.025 SA
BRANCH  19  20
HETATM   20  C   UNL     1      25.732  46.659  50.226  1.00  0.00     0.197 A 
HETATM   21  N   UNL     1      25.423  46.403  51.532  1.00  0.00    -0.322 N 
HETATM   22  C   UNL     1      25.702  47.206  52.694  1.00  0.00     0.159 C 
HETATM   23  C   UNL     1      24.782  45.198  51.527  1.00  0.00     0.235 A 
HETATM   24  N   UNL     1      24.676  44.759  50.293  1.00  0.00    -0.143 NA
HETATM   25  N   UNL     1      25.271  45.684  49.472  1.00  0.00    -0.123 NA
ENDBRANCH  19  20
ENDBRANCH  16  19
ENDBRANCH  13  14
ENDBRANCH   8  13
BRANCH   1  26
HETATM   26  C   UNL     1      19.226  45.127  46.469  1.00  0.00     0.105 C 
HETATM   27  C   UNL     1      18.619  45.152  45.055  1.00  0.00     0.053 C 
BRANCH  26  28
HETATM   28  C   UNL     1      20.774  44.920  46.351  1.00  0.00     0.276 C 
BRANCH  28  29
HETATM   29  N   UNL     1      21.388  44.062  47.463  1.00  0.00    -0.076 N 
HETATM   30  H   UNL     1      20.702  43.342  47.723  1.00  0.00     0.279 HD
HETATM   31  C   UNL     1      22.629  43.316  47.044  1.00  0.00     0.269 C 
HETATM   32  C   UNL     1      21.650  44.889  48.694  1.00  0.00     0.269 C 
ENDBRANCH  28  29
ENDBRANCH  26  28
BRANCH  26  33
HETATM   33  O   UNL     1      18.704  43.982  47.167  1.00  0.00    -0.384 OA
HETATM   34  H   UNL     1      19.407  43.314  47.262  1.00  0.00     0.211 HD
ENDBRANCH  26  33
ENDBRANCH   1  26
TORSDOF 8
ENDMDL
MODEL 7
REMARK VINA RESULT:      -7.5      4.528     11.669
REMARK  8 active torsions:
REMARK  status: ('A' for Active; 'I' for Inactive)
REMARK    1  A    between atoms: C_2  and  C_4 
REMARK    2  A    between atoms: C_2  and  C_29 
REMARK    3  A    between atoms: C_2  and  O_3 
REMARK    4  A    between atoms: N_11  and  C_13 
REMARK    5  A    between atoms: C_13  and  C_14 
REMARK    6  A    between atoms: C_16  and  S_17 
REMARK    7  A    between atoms: S_17  and  C_18 
REMARK    8  A    between atoms: C_29  and  N_30 
ROOT
HETATM    1  C   UNL     1      16.682  50.591  48.274  1.00  0.00    -0.022 A 
HETATM    2  C   UNL     1      17.647  49.993  49.110  1.00  0.00     0.022 A 
HETATM    3  C   UNL     1      17.834  48.600  49.152  1.00  0.00     0.002 A 
HETATM    4  C   UNL     1      17.020  47.792  48.364  1.00  0.00     0.076 A 
HETATM    5  O   UNL     1      17.122  46.430  48.410  1.00  0.00    -0.349 OA
HETATM    6  C   UNL     1      18.327  45.954  47.795  1.00  0.00     0.203 C 
HETATM    7  C   UNL     1      19.498  45.890  48.787  1.00  0.00     0.262 C 
HETATM    8  N   UNL     1      19.984  47.261  49.223  1.00  0.00    -0.059 N 
HETATM    9  H   UNL     1      20.729  47.106  49.913  1.00  0.00     0.280 HD
HETATM   10  C   UNL     1      18.914  48.001  50.006  1.00  0.00     0.276 C 
HETATM   11  C   UNL     1      16.043  48.351  47.547  1.00  0.00     0.038 A 
HETATM   12  C   UNL     1      15.895  49.741  47.478  1.00  0.00     0.013 A 
ENDROOT
BRANCH   8  13
HETATM   13  C   UNL     1      20.642  48.045  48.099  1.00  0.00     0.299 C 
BRANCH  13  14
HETATM   14  C   UNL     1      21.869  48.796  48.470  1.00  0.00     0.080 A 
HETATM   15  O   UNL     1      22.988  48.062  48.702  1.00  0.00    -0.306 OA
HETATM   16  C   UNL     1      24.018  48.923  48.959  1.00  0.00     0.120 A 
HETATM   17  C   UNL     1      23.522  50.210  48.998  1.00  0.00     0.047 A 
HETATM   18  C   UNL     1      22.142  50.131  48.674  1.00  0.00     0.038 A 
BRANCH  16  19
HETATM   19  S   UNL     1      25.660  48.378  49.171  1.00  0.00    -0.025 SA
BRANCH  19  20
HETATM   20  C   UNL     1      25.364  47.316  50.509  1.00  0.00     0.197 A 
HETATM   21  N   UNL     1      25.054  45.992  50.375  1.00  0.00    -0.322 N 
HETATM   22  C   UNL     1      24.928  45.218  49.169  1.00  0.00     0.159 C 
HETATM   23  C   UNL     1      24.874  45.529  51.647  1.00  0.00     0.235 A 
HETATM   24  N   UNL     1      25.092  46.499  52.506  1.00  0.00    -0.143 NA
HETATM   25  N   UNL     1      25.406  47.625  51.787  1.00  0.00    -0.123 NA
ENDBRANCH  19  20
ENDBRANCH  16  19
ENDBRANCH  13  14
ENDBRANCH   8  13
BRANCH   1  26
HETATM   26  C   UNL     1      16.582  52.119  48.191  1.00  0.00     0.105 C 
HETATM   27  C   UNL     1      15.399  52.486  47.280  1.00  0.00     0.053 C 
BRANCH  26  28
HETATM   28  C   UNL     1      16.406  52.846  49.568  1.00  0.00     0.276 C 
BRANCH  28  29
HETATM   29  N   UNL     1      15.089  53.614  49.718  1.00  0.00    -0.076 N 
HETATM   30  H   UNL     1      14.597  53.578  48.816  1.00  0.00     0.279 HD
HETATM   31  C   UNL     1      14.143  53.012  50.726  1.00  0.00     0.269 C 
HETATM   32  C   UNL     1      15.347  55.065  50.025  1.00  0.00     0.269 C 
ENDBRANCH  28  29
ENDBRANCH  26  28
BRANCH  26  33
HETATM   33  O   UNL     1      17.788  52.634  47.600  1.00  0.00    -0.384 OA
HETATM   34  H   UNL     1      18.557  52.161  47.969  1.00  0.00     0.211 HD
ENDBRANCH  26  33
ENDBRANCH   1  26
TORSDOF 8
ENDMDL
MODEL 8
REMARK VINA RESULT:      -7.4     12.585     15.078
REMARK  8 active torsions:
REMARK  status: ('A' for Active; 'I' for Inactive)
REMARK    1  A    between atoms: C_2  and  C_4 
REMARK    2  A    between atoms: C_2  and  C_29 
REMARK    3  A    between atoms: C_2  and  O_3 
REMARK    4  A    between atoms: N_11  and  C_13 
REMARK    5  A    between atoms: C_13  and  C_14 
REMARK    6  A    between atoms: C_16  and  S_17 
REMARK    7  A    between atoms: S_17  and  C_18 
REMARK    8  A    between atoms: C_29  and  N_30 
ROOT
HETATM    1  C   UNL     1      27.246  48.310  39.585  1.00  0.00    -0.022 A 
HETATM    2  C   UNL     1      28.635  48.083  39.490  1.00  0.00     0.022 A 
HETATM    3  C   UNL     1      29.499  49.006  38.875  1.00  0.00     0.002 A 
HETATM    4  C   UNL     1      28.957  50.163  38.322  1.00  0.00     0.076 A 
HETATM    5  O   UNL     1      29.744  51.066  37.663  1.00  0.00    -0.349 OA
HETATM    6  C   UNL     1      30.596  51.796  38.556  1.00  0.00     0.203 C 
HETATM    7  C   UNL     1      31.935  51.081  38.793  1.00  0.00     0.262 C 
HETATM    8  N   UNL     1      31.792  49.803  39.600  1.00  0.00    -0.059 N 
HETATM    9  H   UNL     1      32.728  49.384  39.662  1.00  0.00     0.280 HD
HETATM   10  C   UNL     1      30.980  48.764  38.848  1.00  0.00     0.276 C 
HETATM   11  C   UNL     1      27.588  50.403  38.378  1.00  0.00     0.038 A 
HETATM   12  C   UNL     1      26.743  49.500  39.032  1.00  0.00     0.013 A 
ENDROOT
BRANCH   8  13
HETATM   13  C   UNL     1      31.374  50.051  41.041  1.00  0.00     0.299 C 
BRANCH  13  14
HETATM   14  C   UNL     1      32.428  50.600  41.932  1.00  0.00     0.080 A 
HETATM   15  O   UNL     1      33.714  50.291  41.621  1.00  0.00    -0.306 OA
HETATM   16  C   UNL     1      34.534  50.936  42.504  1.00  0.00     0.120 A 
HETATM   17  C   UNL     1      33.756  51.570  43.451  1.00  0.00     0.047 A 
HETATM   18  C   UNL     1      32.402  51.364  43.079  1.00  0.00     0.038 A 
BRANCH  16  19
HETATM   19  S   UNL     1      36.270  50.908  42.357  1.00  0.00    -0.025 SA
BRANCH  19  20
HETATM   20  C   UNL     1      36.445  52.441  41.568  1.00  0.00     0.197 A 
HETATM   21  N   UNL     1      36.334  52.619  40.218  1.00  0.00    -0.322 N 
HETATM   22  C   UNL     1      36.046  51.638  39.205  1.00  0.00     0.159 C 
HETATM   23  C   UNL     1      36.562  53.948  40.005  1.00  0.00     0.235 A 
HETATM   24  N   UNL     1      36.766  54.552  41.155  1.00  0.00    -0.143 NA
HETATM   25  N   UNL     1      36.687  53.601  42.141  1.00  0.00    -0.123 NA
ENDBRANCH  19  20
ENDBRANCH  16  19
ENDBRANCH  13  14
ENDBRANCH   8  13
BRANCH   1  26
HETATM   26  C   UNL     1      26.360  47.319  40.349  1.00  0.00     0.105 C 
HETATM   27  C   UNL     1      25.451  46.593  39.343  1.00  0.00     0.053 C 
BRANCH  26  28
HETATM   28  C   UNL     1      27.137  46.251  41.192  1.00  0.00     0.276 C 
BRANCH  28  29
HETATM   29  N   UNL     1      26.410  44.911  41.345  1.00  0.00    -0.076 N 
HETATM   30  H   UNL     1      25.628  44.897  40.679  1.00  0.00     0.279 HD
HETATM   31  C   UNL     1      27.262  43.713  41.004  1.00  0.00     0.269 C 
HETATM   32  C   UNL     1      25.822  44.774  42.724  1.00  0.00     0.269 C 
ENDBRANCH  28  29
ENDBRANCH  26  28
BRANCH  26  33
HETATM   33  O   UNL     1      25.528  48.050  41.268  1.00  0.00    -0.384 OA
HETATM   34  H   UNL     1      25.771  48.994  41.242  1.00  0.00     0.211 HD
ENDBRANCH  26  33
ENDBRANCH   1  26
TORSDOF 8
ENDMDL
MODEL 9
REMARK VINA RESULT:      -7.4     13.499     15.754
REMARK  8 active torsions:
REMARK  status: ('A' for Active; 'I' for Inactive)
REMARK    1  A    between atoms: C_2  and  C_4 
REMARK    2  A    between atoms: C_2  and  C_29 
REMARK    3  A    between atoms: C_2  and  O_3 
REMARK    4  A    between atoms: N_11  and  C_13 
REMARK    5  A    between atoms: C_13  and  C_14 
REMARK    6  A    between atoms: C_16  and  S_17 
REMARK    7  A    between atoms: S_17  and  C_18 
REMARK    8  A    between atoms: C_29  and  N_30 
ROOT
HETATM    1  C   UNL     1      28.294  49.902  40.690  1.00  0.00    -0.022 A 
HETATM    2  C   UNL     1      28.942  51.080  41.115  1.00  0.00     0.022 A 
HETATM    3  C   UNL     1      30.075  51.048  41.947  1.00  0.00     0.002 A 
HETATM    4  C   UNL     1      30.550  49.814  42.382  1.00  0.00     0.076 A 
HETATM    5  O   UNL     1      31.614  49.729  43.236  1.00  0.00    -0.349 OA
HETATM    6  C   UNL     1      32.852  50.071  42.598  1.00  0.00     0.203 C 
HETATM    7  C   UNL     1      33.147  51.576  42.675  1.00  0.00     0.262 C 
HETATM    8  N   UNL     1      32.207  52.411  41.824  1.00  0.00    -0.059 N 
HETATM    9  H   UNL     1      32.459  53.395  41.982  1.00  0.00     0.280 HD
HETATM   10  C   UNL     1      30.778  52.318  42.328  1.00  0.00     0.276 C 
HETATM   11  C   UNL     1      29.919  48.635  41.999  1.00  0.00     0.038 A 
HETATM   12  C   UNL     1      28.818  48.676  41.135  1.00  0.00     0.013 A 
ENDROOT
BRANCH   8  13
HETATM   13  C   UNL     1      32.398  52.188  40.332  1.00  0.00     0.299 C 
BRANCH  13  14
HETATM   14  C   UNL     1      33.782  52.371  39.825  1.00  0.00     0.080 A 
HETATM   15  O   UNL     1      34.162  53.641  39.526  1.00  0.00    -0.306 OA
HETATM   16  C   UNL     1      35.474  53.616  39.146  1.00  0.00     0.120 A 
HETATM   17  C   UNL     1      35.897  52.304  39.097  1.00  0.00     0.047 A 
HETATM   18  C   UNL     1      34.814  51.503  39.543  1.00  0.00     0.038 A 
BRANCH  16  19
HETATM   19  S   UNL     1      36.377  55.069  38.814  1.00  0.00    -0.025 SA
BRANCH  19  20
HETATM   20  C   UNL     1      37.258  55.121  40.306  1.00  0.00     0.197 A 
HETATM   21  N   UNL     1      38.475  54.530  40.491  1.00  0.00    -0.322 N 
HETATM   22  C   UNL     1      39.267  53.789  39.544  1.00  0.00     0.159 C 
HETATM   23  C   UNL     1      38.807  54.778  41.792  1.00  0.00     0.235 A 
HETATM   24  N   UNL     1      37.868  55.503  42.358  1.00  0.00    -0.143 NA
HETATM   25  N   UNL     1      36.893  55.724  41.417  1.00  0.00    -0.123 NA
ENDBRANCH  19  20
ENDBRANCH  16  19
ENDBRANCH  13  14
ENDBRANCH   8  13
BRANCH   1  26
HETATM   26  C   UNL     1      27.121  49.986  39.707  1.00  0.00     0.105 C 
HETATM   27  C   UNL     1      27.629  50.587  38.385  1.00  0.00     0.053 C 
BRANCH  26  28
HETATM   28  C   UNL     1      26.414  48.621  39.403  1.00  0.00     0.276 C 
BRANCH  28  29
HETATM   29  N   UNL     1      25.093  48.408  40.149  1.00  0.00    -0.076 N 
HETATM   30  H   UNL     1      24.938  49.223  40.756  1.00  0.00     0.279 HD
HETATM   31  C   UNL     1      23.888  48.333  39.246  1.00  0.00     0.269 C 
HETATM   32  C   UNL     1      25.171  47.198  41.042  1.00  0.00     0.269 C 
ENDBRANCH  28  29
ENDBRANCH  26  28
BRANCH  26  33
HETATM   33  O   UNL     1      26.119  50.863  40.250  1.00  0.00    -0.384 OA
HETATM   34  H   UNL     1      25.727  51.391  39.530  1.00  0.00     0.211 HD
ENDBRANCH  26  33
ENDBRANCH   1  26
TORSDOF 8
ENDMDL
MODEL 10
REMARK VINA RESULT:      -7.3     12.934     15.310
REMARK  8 active torsions:
REMARK  status: ('A' for Active; 'I' for Inactive)
REMARK    1  A    between atoms: C_2  and  C_4 
REMARK    2  A    between atoms: C_2  and  C_29 
REMARK    3  A    between atoms: C_2  and  O_3 
REMARK    4  A    between atoms: N_11  and  C_13 
REMARK    5  A    between atoms: C_13  and  C_14 
REMARK    6  A    between atoms: C_16  and  S_17 
REMARK    7  A    between atoms: S_17  and  C_18 
REMARK    8  A    between atoms: C_29  and  N_30 
ROOT
HETATM    1  C   UNL     1      27.805  49.760  40.267  1.00  0.00    -0.022 A 
HETATM    2  C   UNL     1      29.056  49.871  39.625  1.00  0.00     0.022 A 
HETATM    3  C   UNL     1      29.761  51.087  39.574  1.00  0.00     0.002 A 
HETATM    4  C   UNL     1      29.188  52.216  40.153  1.00  0.00     0.076 A 
HETATM    5  O   UNL     1      29.804  53.434  40.082  1.00  0.00    -0.349 OA
HETATM    6  C   UNL     1      30.971  53.501  40.913  1.00  0.00     0.203 C 
HETATM    7  C   UNL     1      32.234  53.028  40.179  1.00  0.00     0.262 C 
HETATM    8  N   UNL     1      32.233  51.535  39.898  1.00  0.00    -0.059 N 
HETATM    9  H   UNL     1      33.091  51.333  39.369  1.00  0.00     0.280 HD
HETATM   10  C   UNL     1      31.119  51.156  38.939  1.00  0.00     0.276 C 
HETATM   11  C   UNL     1      27.945  52.144  40.772  1.00  0.00     0.038 A 
HETATM   12  C   UNL     1      27.272  50.919  40.856  1.00  0.00     0.013 A 
ENDROOT
BRANCH   8  13
HETATM   13  C   UNL     1      32.337  50.691  41.158  1.00  0.00     0.299 C 
BRANCH  13  14
HETATM   14  C   UNL     1      33.326  51.154  42.164  1.00  0.00     0.080 A 
HETATM   15  O   UNL     1      34.636  51.090  41.810  1.00  0.00    -0.306 OA
HETATM   16  C   UNL     1      35.380  51.618  42.826  1.00  0.00     0.120 A 
HETATM   17  C   UNL     1      34.543  51.919  43.881  1.00  0.00     0.047 A 
HETATM   18  C   UNL     1      33.221  51.630  43.453  1.00  0.00     0.038 A 
BRANCH  16  19
HETATM   19  S   UNL     1      37.104  51.845  42.701  1.00  0.00    -0.025 SA
BRANCH  19  20
HETATM   20  C   UNL     1      37.061  53.338  41.822  1.00  0.00     0.197 A 
HETATM   21  N   UNL     1      37.022  53.418  40.459  1.00  0.00    -0.322 N 
HETATM   22  C   UNL     1      36.991  52.346  39.498  1.00  0.00     0.159 C 
HETATM   23  C   UNL     1      37.025  54.752  40.170  1.00  0.00     0.235 A 
HETATM   24  N   UNL     1      37.032  55.446  41.287  1.00  0.00    -0.143 NA
HETATM   25  N   UNL     1      37.049  54.553  42.328  1.00  0.00    -0.123 NA
ENDBRANCH  19  20
ENDBRANCH  16  19
ENDBRANCH  13  14
ENDBRANCH   8  13
BRANCH   1  26
HETATM   26  C   UNL     1      27.122  48.392  40.379  1.00  0.00     0.105 C 
HETATM   27  C   UNL     1      26.527  48.026  39.009  1.00  0.00     0.053 C 
BRANCH  26  28
HETATM   28  C   UNL     1      28.052  47.226  40.855  1.00  0.00     0.276 C 
BRANCH  28  29
HETATM   29  N   UNL     1      28.417  46.216  39.762  1.00  0.00    -0.076 N 
HETATM   30  H   UNL     1      27.888  46.460  38.916  1.00  0.00     0.279 HD
HETATM   31  C   UNL     1      29.871  46.250  39.361  1.00  0.00     0.269 C 
HETATM   32  C   UNL     1      28.004  44.824  40.159  1.00  0.00     0.269 C 
ENDBRANCH  28  29
ENDBRANCH  26  28
BRANCH  26  33
HETATM   33  O   UNL     1      26.048  48.484  41.332  1.00  0.00    -0.384 OA
HETATM   34  H   UNL     1      26.394  48.311  42.227  1.00  0.00     0.211 HD
ENDBRANCH  26  33
ENDBRANCH   1  26
TORSDOF 8
ENDMDL
