MODEL 1
REMARK VINA RESULT:      -8.7      0.000      0.000
REMARK  3 active torsions:
REMARK  status: ('A' for Active; 'I' for Inactive)
REMARK    1  A    between atoms: C_4  and  C_5 
REMARK    2  A    between atoms: C_14  and  C_15 
REMARK       I    between atoms: C_15  and  N_16 
REMARK    3  A    between atoms: N_16  and  C_17 
ROOT
HETATM    1  C   UNL     1      24.997  43.299  51.583  1.00  0.00     0.222 C 
HETATM    2  N   UNL     1      23.993  43.554  50.554  1.00  0.00    -0.090 N 
HETATM    3  C   UNL     1      23.659  44.792  50.086  1.00  0.00     0.735 A 
HETATM    4  N   UNL     1      22.704  44.652  49.200  1.00  0.00     0.030 NA
HETATM    5  N   UNL     1      22.426  43.298  49.161  1.00  0.00     0.033 NA
HETATM    6  N   UNL     1      23.191  42.622  50.013  1.00  0.00     0.012 NA
HETATM    7  N   UNL     1      24.263  45.881  50.608  1.00  0.00    -0.191 N 
HETATM    8  C   UNL     1      25.097  45.818  51.721  1.00  0.00     0.037 C 
HETATM    9  C   UNL     1      25.432  47.146  52.353  1.00  0.00     0.070 C 
HETATM   10  C   UNL     1      25.482  44.608  52.204  1.00  0.00     0.064 C 
HETATM   11  H   UNL     1      23.931  46.798  50.319  1.00  0.00     0.184 HD
ENDROOT
BRANCH  10  12
HETATM   12  C   UNL     1      26.290  44.405  53.438  1.00  0.00     0.256 C 
HETATM   13  N   UNL     1      27.649  44.490  53.241  1.00  0.00    -0.323 N 
HETATM   14  H   UNL     1      27.971  44.615  52.289  1.00  0.00     0.169 HD
HETATM   15  O   UNL     1      25.701  44.151  54.481  1.00  0.00    -0.267 OA
BRANCH  13  16
HETATM   16  C   UNL     1      28.655  44.476  54.231  1.00  0.00     0.035 A 
HETATM   17  C   UNL     1      28.863  45.508  55.147  1.00  0.00     0.029 A 
HETATM   18  C   UNL     1      29.908  45.435  56.076  1.00  0.00     0.002 A 
HETATM   19  C   UNL     1      30.757  44.332  56.091  1.00  0.00     0.000 A 
HETATM   20  C   UNL     1      30.558  43.295  55.184  1.00  0.00     0.002 A 
HETATM   21  C   UNL     1      29.509  43.365  54.263  1.00  0.00     0.029 A 
ENDBRANCH  13  16
ENDBRANCH  10  12
BRANCH   1  22
HETATM   22  C   UNL     1      26.095  42.461  50.995  1.00  0.00     0.083 A 
HETATM   23  O   UNL     1      26.892  41.774  51.868  1.00  0.00    -0.317 OA
HETATM   24  C   UNL     1      27.845  41.142  51.129  1.00  0.00     0.049 A 
HETATM   25  C   UNL     1      28.873  40.393  51.879  1.00  0.00     0.076 C 
HETATM   26  C   UNL     1      27.637  41.377  49.788  1.00  0.00     0.035 A 
HETATM   27  C   UNL     1      26.505  42.221  49.699  1.00  0.00     0.038 A 
ENDBRANCH   1  22
TORSDOF 3
ENDMDL
MODEL 2
REMARK VINA RESULT:      -8.6      0.668      1.173
REMARK  3 active torsions:
REMARK  status: ('A' for Active; 'I' for Inactive)
REMARK    1  A    between atoms: C_4  and  C_5 
REMARK    2  A    between atoms: C_14  and  C_15 
REMARK       I    between atoms: C_15  and  N_16 
REMARK    3  A    between atoms: N_16  and  C_17 
ROOT
HETATM    1  C   UNL     1      24.713  43.204  51.048  1.00  0.00     0.222 C 
HETATM    2  N   UNL     1      23.669  43.533  50.082  1.00  0.00    -0.090 N 
HETATM    3  C   UNL     1      23.332  44.802  49.706  1.00  0.00     0.735 A 
HETATM    4  N   UNL     1      22.337  44.728  48.857  1.00  0.00     0.030 NA
HETATM    5  N   UNL     1      22.038  43.382  48.748  1.00  0.00     0.033 NA
HETATM    6  N   UNL     1      22.830  42.646  49.522  1.00  0.00     0.012 NA
HETATM    7  N   UNL     1      23.975  45.849  50.266  1.00  0.00    -0.191 N 
HETATM    8  C   UNL     1      24.856  45.708  51.335  1.00  0.00     0.037 C 
HETATM    9  C   UNL     1      25.237  46.991  52.031  1.00  0.00     0.070 C 
HETATM   10  C   UNL     1      25.244  44.466  51.725  1.00  0.00     0.064 C 
HETATM   11  H   UNL     1      23.644  46.786  50.049  1.00  0.00     0.184 HD
ENDROOT
BRANCH  10  12
HETATM   12  C   UNL     1      26.102  44.178  52.907  1.00  0.00     0.256 C 
HETATM   13  N   UNL     1      27.452  44.212  52.644  1.00  0.00    -0.323 N 
HETATM   14  H   UNL     1      27.732  44.364  51.683  1.00  0.00     0.169 HD
HETATM   15  O   UNL     1      25.555  43.906  53.968  1.00  0.00    -0.267 OA
BRANCH  13  16
HETATM   16  C   UNL     1      28.505  44.115  53.580  1.00  0.00     0.035 A 
HETATM   17  C   UNL     1      29.471  43.109  53.567  1.00  0.00     0.029 A 
HETATM   18  C   UNL     1      30.462  43.061  54.553  1.00  0.00     0.002 A 
HETATM   19  C   UNL     1      30.492  44.017  55.565  1.00  0.00     0.000 A 
HETATM   20  C   UNL     1      29.535  45.028  55.587  1.00  0.00     0.002 A 
HETATM   21  C   UNL     1      28.550  45.080  54.596  1.00  0.00     0.029 A 
ENDBRANCH  13  16
ENDBRANCH  10  12
BRANCH   1  22
HETATM   22  C   UNL     1      25.771  42.390  50.362  1.00  0.00     0.083 A 
HETATM   23  O   UNL     1      26.539  41.575  51.145  1.00  0.00    -0.317 OA
HETATM   24  C   UNL     1      27.461  40.990  50.334  1.00  0.00     0.049 A 
HETATM   25  C   UNL     1      28.456  40.115  50.987  1.00  0.00     0.076 C 
HETATM   26  C   UNL     1      27.262  41.385  49.029  1.00  0.00     0.035 A 
HETATM   27  C   UNL     1      26.169  42.282  49.044  1.00  0.00     0.038 A 
ENDBRANCH   1  22
TORSDOF 3
ENDMDL
MODEL 3
REMARK VINA RESULT:      -8.0      2.640      6.289
REMARK  3 active torsions:
REMARK  status: ('A' for Active; 'I' for Inactive)
REMARK    1  A    between atoms: C_4  and  C_5 
REMARK    2  A    between atoms: C_14  and  C_15 
REMARK       I    between atoms: C_15  and  N_16 
REMARK    3  A    between atoms: N_16  and  C_17 
ROOT
HETATM    1  C   UNL     1      25.577  46.121  52.825  1.00  0.00     0.222 C 
HETATM    2  N   UNL     1      26.043  47.017  53.879  1.00  0.00    -0.090 N 
HETATM    3  C   UNL     1      27.174  46.822  54.619  1.00  0.00     0.735 A 
HETATM    4  N   UNL     1      27.266  47.796  55.491  1.00  0.00     0.030 NA
HETATM    5  N   UNL     1      26.140  48.576  55.301  1.00  0.00     0.033 NA
HETATM    6  N   UNL     1      25.369  48.086  54.335  1.00  0.00     0.012 NA
HETATM    7  N   UNL     1      27.923  45.721  54.402  1.00  0.00    -0.191 N 
HETATM    8  C   UNL     1      27.512  44.682  53.571  1.00  0.00     0.037 C 
HETATM    9  C   UNL     1      28.312  43.408  53.686  1.00  0.00     0.070 C 
HETATM   10  C   UNL     1      26.410  44.841  52.793  1.00  0.00     0.064 C 
HETATM   11  H   UNL     1      28.705  45.542  55.028  1.00  0.00     0.184 HD
ENDROOT
BRANCH  10  12
HETATM   12  C   UNL     1      25.816  43.778  51.936  1.00  0.00     0.256 C 
HETATM   13  N   UNL     1      26.682  43.260  51.001  1.00  0.00    -0.323 N 
HETATM   14  H   UNL     1      27.600  43.680  50.938  1.00  0.00     0.169 HD
HETATM   15  O   UNL     1      24.637  43.491  52.103  1.00  0.00    -0.267 OA
BRANCH  13  16
HETATM   16  C   UNL     1      26.453  42.160  50.146  1.00  0.00     0.035 A 
HETATM   17  C   UNL     1      25.987  42.272  48.836  1.00  0.00     0.029 A 
HETATM   18  C   UNL     1      25.749  41.129  48.064  1.00  0.00     0.002 A 
HETATM   19  C   UNL     1      25.970  39.863  48.599  1.00  0.00     0.000 A 
HETATM   20  C   UNL     1      26.438  39.738  49.905  1.00  0.00     0.002 A 
HETATM   21  C   UNL     1      26.684  40.881  50.671  1.00  0.00     0.029 A 
ENDBRANCH  13  16
ENDBRANCH  10  12
BRANCH   1  22
HETATM   22  C   UNL     1      25.557  46.868  51.524  1.00  0.00     0.083 A 
HETATM   23  O   UNL     1      26.735  47.415  51.099  1.00  0.00    -0.317 OA
HETATM   24  C   UNL     1      26.473  48.091  49.947  1.00  0.00     0.049 A 
HETATM   25  C   UNL     1      27.599  48.832  49.345  1.00  0.00     0.076 C 
HETATM   26  C   UNL     1      25.147  47.941  49.602  1.00  0.00     0.035 A 
HETATM   27  C   UNL     1      24.557  47.148  50.613  1.00  0.00     0.038 A 
ENDBRANCH   1  22
TORSDOF 3
ENDMDL
MODEL 4
REMARK VINA RESULT:      -8.0      5.147      8.766
REMARK  3 active torsions:
REMARK  status: ('A' for Active; 'I' for Inactive)
REMARK    1  A    between atoms: C_4  and  C_5 
REMARK    2  A    between atoms: C_14  and  C_15 
REMARK       I    between atoms: C_15  and  N_16 
REMARK    3  A    between atoms: N_16  and  C_17 
ROOT
HETATM    1  C   UNL     1      23.760  47.583  49.875  1.00  0.00     0.222 C 
HETATM    2  N   UNL     1      24.499  46.504  50.525  1.00  0.00    -0.090 N 
HETATM    3  C   UNL     1      24.378  45.181  50.209  1.00  0.00     0.735 A 
HETATM    4  N   UNL     1      25.155  44.496  51.011  1.00  0.00     0.030 NA
HETATM    5  N   UNL     1      25.730  45.424  51.859  1.00  0.00     0.033 NA
HETATM    6  N   UNL     1      25.306  46.655  51.588  1.00  0.00     0.012 NA
HETATM    7  N   UNL     1      23.505  44.809  49.249  1.00  0.00    -0.191 N 
HETATM    8  C   UNL     1      22.596  45.693  48.674  1.00  0.00     0.037 C 
HETATM    9  C   UNL     1      21.500  45.052  47.859  1.00  0.00     0.070 C 
HETATM   10  C   UNL     1      22.696  47.022  48.935  1.00  0.00     0.064 C 
HETATM   11  H   UNL     1      23.355  43.814  49.097  1.00  0.00     0.184 HD
ENDROOT
BRANCH  10  12
HETATM   12  C   UNL     1      21.733  48.054  48.460  1.00  0.00     0.256 C 
HETATM   13  N   UNL     1      21.127  48.765  49.470  1.00  0.00    -0.323 N 
HETATM   14  H   UNL     1      21.336  48.487  50.421  1.00  0.00     0.169 HD
HETATM   15  O   UNL     1      21.539  48.155  47.255  1.00  0.00    -0.267 OA
BRANCH  13  16
HETATM   16  C   UNL     1      20.280  49.886  49.332  1.00  0.00     0.035 A 
HETATM   17  C   UNL     1      20.610  51.029  48.602  1.00  0.00     0.029 A 
HETATM   18  C   UNL     1      19.729  52.115  48.545  1.00  0.00     0.002 A 
HETATM   19  C   UNL     1      18.514  52.069  49.222  1.00  0.00     0.000 A 
HETATM   20  C   UNL     1      18.172  50.934  49.951  1.00  0.00     0.002 A 
HETATM   21  C   UNL     1      19.049  49.845  50.000  1.00  0.00     0.029 A 
ENDBRANCH  13  16
ENDBRANCH  10  12
BRANCH   1  22
HETATM   22  C   UNL     1      24.736  48.508  49.208  1.00  0.00     0.083 A 
HETATM   23  O   UNL     1      26.054  48.374  49.545  1.00  0.00    -0.317 OA
HETATM   24  C   UNL     1      26.740  49.342  48.878  1.00  0.00     0.049 A 
HETATM   25  C   UNL     1      28.188  49.435  49.152  1.00  0.00     0.076 C 
HETATM   26  C   UNL     1      25.881  50.066  48.079  1.00  0.00     0.035 A 
HETATM   27  C   UNL     1      24.590  49.525  48.286  1.00  0.00     0.038 A 
ENDBRANCH   1  22
TORSDOF 3
ENDMDL
MODEL 5
REMARK VINA RESULT:      -7.9      2.972      5.963
REMARK  3 active torsions:
REMARK  status: ('A' for Active; 'I' for Inactive)
REMARK    1  A    between atoms: C_4  and  C_5 
REMARK    2  A    between atoms: C_14  and  C_15 
REMARK       I    between atoms: C_15  and  N_16 
REMARK    3  A    between atoms: N_16  and  C_17 
ROOT
HETATM    1  C   UNL     1      26.458  44.204  50.992  1.00  0.00     0.222 C 
HETATM    2  N   UNL     1      27.151  43.004  51.452  1.00  0.00    -0.090 N 
HETATM    3  C   UNL     1      27.497  42.759  52.750  1.00  0.00     0.735 A 
HETATM    4  N   UNL     1      28.132  41.614  52.795  1.00  0.00     0.030 NA
HETATM    5  N   UNL     1      28.207  41.176  51.485  1.00  0.00     0.033 NA
HETATM    6  N   UNL     1      27.636  42.040  50.653  1.00  0.00     0.012 NA
HETATM    7  N   UNL     1      27.215  43.680  53.695  1.00  0.00    -0.191 N 
HETATM    8  C   UNL     1      26.734  44.951  53.387  1.00  0.00     0.037 C 
HETATM    9  C   UNL     1      26.771  45.947  54.520  1.00  0.00     0.070 C 
HETATM   10  C   UNL     1      26.348  45.232  52.116  1.00  0.00     0.064 C 
HETATM   11  H   UNL     1      27.569  43.526  54.636  1.00  0.00     0.184 HD
ENDROOT
BRANCH  10  12
HETATM   12  C   UNL     1      25.907  46.573  51.641  1.00  0.00     0.256 C 
HETATM   13  N   UNL     1      26.328  46.885  50.369  1.00  0.00    -0.323 N 
HETATM   14  H   UNL     1      26.936  46.221  49.907  1.00  0.00     0.169 HD
HETATM   15  O   UNL     1      25.262  47.276  52.408  1.00  0.00    -0.267 OA
BRANCH  13  16
HETATM   16  C   UNL     1      25.960  48.013  49.603  1.00  0.00     0.035 A 
HETATM   17  C   UNL     1      24.645  48.328  49.259  1.00  0.00     0.029 A 
HETATM   18  C   UNL     1      24.366  49.446  48.465  1.00  0.00     0.002 A 
HETATM   19  C   UNL     1      25.401  50.254  48.003  1.00  0.00     0.000 A 
HETATM   20  C   UNL     1      26.717  49.952  48.341  1.00  0.00     0.002 A 
HETATM   21  C   UNL     1      26.994  48.840  49.143  1.00  0.00     0.029 A 
ENDBRANCH  13  16
ENDBRANCH  10  12
BRANCH   1  22
HETATM   22  C   UNL     1      25.139  43.807  50.397  1.00  0.00     0.083 A 
HETATM   23  O   UNL     1      24.795  44.374  49.202  1.00  0.00    -0.317 OA
HETATM   24  C   UNL     1      23.549  43.926  48.888  1.00  0.00     0.049 A 
HETATM   25  C   UNL     1      22.940  44.474  47.660  1.00  0.00     0.076 C 
HETATM   26  C   UNL     1      23.110  43.038  49.846  1.00  0.00     0.035 A 
HETATM   27  C   UNL     1      24.136  42.955  50.816  1.00  0.00     0.038 A 
ENDBRANCH   1  22
TORSDOF 3
ENDMDL
MODEL 6
REMARK VINA RESULT:      -7.8      2.063      4.827
REMARK  3 active torsions:
REMARK  status: ('A' for Active; 'I' for Inactive)
REMARK    1  A    between atoms: C_4  and  C_5 
REMARK    2  A    between atoms: C_14  and  C_15 
REMARK       I    between atoms: C_15  and  N_16 
REMARK    3  A    between atoms: N_16  and  C_17 
ROOT
HETATM    1  C   UNL     1      25.735  46.015  50.732  1.00  0.00     0.222 C 
HETATM    2  N   UNL     1      25.292  47.246  50.083  1.00  0.00    -0.090 N 
HETATM    3  C   UNL     1      24.064  47.423  49.511  1.00  0.00     0.735 A 
HETATM    4  N   UNL     1      24.022  48.626  48.995  1.00  0.00     0.030 NA
HETATM    5  N   UNL     1      25.270  49.176  49.225  1.00  0.00     0.033 NA
HETATM    6  N   UNL     1      26.065  48.322  49.863  1.00  0.00     0.012 NA
HETATM    7  N   UNL     1      23.184  46.400  49.508  1.00  0.00    -0.191 N 
HETATM    8  C   UNL     1      23.524  45.112  49.915  1.00  0.00     0.037 C 
HETATM    9  C   UNL     1      22.528  44.037  49.556  1.00  0.00     0.070 C 
HETATM   10  C   UNL     1      24.721  44.893  50.517  1.00  0.00     0.064 C 
HETATM   11  H   UNL     1      22.315  46.516  48.992  1.00  0.00     0.184 HD
ENDROOT
BRANCH  10  12
HETATM   12  C   UNL     1      25.241  43.554  50.910  1.00  0.00     0.256 C 
HETATM   13  N   UNL     1      26.538  43.317  50.519  1.00  0.00    -0.323 N 
HETATM   14  H   UNL     1      26.990  44.029  49.960  1.00  0.00     0.169 HD
HETATM   15  O   UNL     1      24.484  42.788  51.493  1.00  0.00    -0.267 OA
BRANCH  13  16
HETATM   16  C   UNL     1      27.340  42.206  50.860  1.00  0.00     0.035 A 
HETATM   17  C   UNL     1      27.529  41.096  50.035  1.00  0.00     0.029 A 
HETATM   18  C   UNL     1      28.311  40.017  50.462  1.00  0.00     0.002 A 
HETATM   19  C   UNL     1      28.906  40.036  51.720  1.00  0.00     0.000 A 
HETATM   20  C   UNL     1      28.728  41.139  52.551  1.00  0.00     0.002 A 
HETATM   21  C   UNL     1      27.954  42.221  52.120  1.00  0.00     0.029 A 
ENDBRANCH  13  16
ENDBRANCH  10  12
BRANCH   1  22
HETATM   22  C   UNL     1      26.025  46.305  52.176  1.00  0.00     0.083 A 
HETATM   23  O   UNL     1      26.968  45.530  52.791  1.00  0.00    -0.317 OA
HETATM   24  C   UNL     1      27.022  45.920  54.094  1.00  0.00     0.049 A 
HETATM   25  C   UNL     1      27.930  45.159  54.975  1.00  0.00     0.076 C 
HETATM   26  C   UNL     1      26.156  46.971  54.309  1.00  0.00     0.035 A 
HETATM   27  C   UNL     1      25.518  47.225  53.073  1.00  0.00     0.038 A 
ENDBRANCH   1  22
TORSDOF 3
ENDMDL
MODEL 7
REMARK VINA RESULT:      -7.8     16.854     19.028
REMARK  3 active torsions:
REMARK  status: ('A' for Active; 'I' for Inactive)
REMARK    1  A    between atoms: C_4  and  C_5 
REMARK    2  A    between atoms: C_14  and  C_15 
REMARK       I    between atoms: C_15  and  N_16 
REMARK    3  A    between atoms: N_16  and  C_17 
ROOT
HETATM    1  C   UNL     1      38.878  48.861  65.194  1.00  0.00     0.222 C 
HETATM    2  N   UNL     1      38.786  50.111  65.942  1.00  0.00    -0.090 N 
HETATM    3  C   UNL     1      37.864  50.367  66.916  1.00  0.00     0.735 A 
HETATM    4  N   UNL     1      38.049  51.590  67.346  1.00  0.00     0.030 NA
HETATM    5  N   UNL     1      39.084  52.102  66.584  1.00  0.00     0.033 NA
HETATM    6  N   UNL     1      39.519  51.210  65.699  1.00  0.00     0.012 NA
HETATM    7  N   UNL     1      36.942  49.427  67.216  1.00  0.00    -0.191 N 
HETATM    8  C   UNL     1      36.779  48.266  66.464  1.00  0.00     0.037 C 
HETATM    9  C   UNL     1      35.517  47.488  66.744  1.00  0.00     0.070 C 
HETATM   10  C   UNL     1      37.688  47.954  65.505  1.00  0.00     0.064 C 
HETATM   11  H   UNL     1      36.203  49.671  67.871  1.00  0.00     0.184 HD
ENDROOT
BRANCH  10  12
HETATM   12  C   UNL     1      37.577  46.797  64.575  1.00  0.00     0.256 C 
HETATM   13  N   UNL     1      38.415  45.749  64.878  1.00  0.00    -0.323 N 
HETATM   14  H   UNL     1      39.060  45.880  65.647  1.00  0.00     0.169 HD
HETATM   15  O   UNL     1      36.805  46.887  63.628  1.00  0.00    -0.267 OA
BRANCH  13  16
HETATM   16  C   UNL     1      38.441  44.476  64.267  1.00  0.00     0.035 A 
HETATM   17  C   UNL     1      39.356  44.101  63.281  1.00  0.00     0.029 A 
HETATM   18  C   UNL     1      39.292  42.831  62.698  1.00  0.00     0.002 A 
HETATM   19  C   UNL     1      38.309  41.927  63.092  1.00  0.00     0.000 A 
HETATM   20  C   UNL     1      37.394  42.288  64.076  1.00  0.00     0.002 A 
HETATM   21  C   UNL     1      37.464  43.554  64.665  1.00  0.00     0.029 A 
ENDBRANCH  13  16
ENDBRANCH  10  12
BRANCH   1  22
HETATM   22  C   UNL     1      40.212  48.230  65.463  1.00  0.00     0.083 A 
HETATM   23  O   UNL     1      40.751  47.461  64.470  1.00  0.00    -0.317 OA
HETATM   24  C   UNL     1      41.916  46.944  64.949  1.00  0.00     0.049 A 
HETATM   25  C   UNL     1      42.638  46.010  64.062  1.00  0.00     0.076 C 
HETATM   26  C   UNL     1      42.153  47.413  66.223  1.00  0.00     0.035 A 
HETATM   27  C   UNL     1      41.060  48.247  66.553  1.00  0.00     0.038 A 
ENDBRANCH   1  22
TORSDOF 3
ENDMDL
MODEL 8
REMARK VINA RESULT:      -7.8      2.311      5.611
REMARK  3 active torsions:
REMARK  status: ('A' for Active; 'I' for Inactive)
REMARK    1  A    between atoms: C_4  and  C_5 
REMARK    2  A    between atoms: C_14  and  C_15 
REMARK       I    between atoms: C_15  and  N_16 
REMARK    3  A    between atoms: N_16  and  C_17 
ROOT
HETATM    1  C   UNL     1      26.282  44.856  50.221  1.00  0.00     0.222 C 
HETATM    2  N   UNL     1      25.815  46.239  50.179  1.00  0.00    -0.090 N 
HETATM    3  C   UNL     1      24.503  46.613  50.124  1.00  0.00     0.735 A 
HETATM    4  N   UNL     1      24.452  47.921  50.061  1.00  0.00     0.030 NA
HETATM    5  N   UNL     1      25.768  48.346  50.037  1.00  0.00     0.033 NA
HETATM    6  N   UNL     1      26.609  47.317  50.076  1.00  0.00     0.012 NA
HETATM    7  N   UNL     1      23.547  45.662  50.080  1.00  0.00    -0.191 N 
HETATM    8  C   UNL     1      23.836  44.309  49.921  1.00  0.00     0.037 C 
HETATM    9  C   UNL     1      22.657  43.432  49.581  1.00  0.00     0.070 C 
HETATM   10  C   UNL     1      25.124  43.885  49.999  1.00  0.00     0.064 C 
HETATM   11  H   UNL     1      22.583  45.957  49.939  1.00  0.00     0.184 HD
ENDROOT
BRANCH  10  12
HETATM   12  C   UNL     1      25.573  42.487  49.754  1.00  0.00     0.256 C 
HETATM   13  N   UNL     1      26.235  42.309  48.561  1.00  0.00    -0.323 N 
HETATM   14  H   UNL     1      26.300  43.110  47.945  1.00  0.00     0.169 HD
HETATM   15  O   UNL     1      25.292  41.634  50.587  1.00  0.00    -0.267 OA
BRANCH  13  16
HETATM   16  C   UNL     1      26.890  41.140  48.117  1.00  0.00     0.035 A 
HETATM   17  C   UNL     1      26.437  40.343  47.065  1.00  0.00     0.029 A 
HETATM   18  C   UNL     1      27.124  39.177  46.709  1.00  0.00     0.002 A 
HETATM   19  C   UNL     1      28.268  38.796  47.406  1.00  0.00     0.000 A 
HETATM   20  C   UNL     1      28.731  39.585  48.455  1.00  0.00     0.002 A 
HETATM   21  C   UNL     1      28.049  40.754  48.804  1.00  0.00     0.029 A 
ENDBRANCH  13  16
ENDBRANCH  10  12
BRANCH   1  22
HETATM   22  C   UNL     1      27.026  44.633  51.505  1.00  0.00     0.083 A 
HETATM   23  O   UNL     1      28.187  43.915  51.438  1.00  0.00    -0.317 OA
HETATM   24  C   UNL     1      28.652  43.783  52.710  1.00  0.00     0.049 A 
HETATM   25  C   UNL     1      29.871  42.969  52.887  1.00  0.00     0.076 C 
HETATM   26  C   UNL     1      27.827  44.451  53.588  1.00  0.00     0.035 A 
HETATM   27  C   UNL     1      26.782  45.006  52.812  1.00  0.00     0.038 A 
ENDBRANCH   1  22
TORSDOF 3
ENDMDL
MODEL 9
REMARK VINA RESULT:      -7.8      2.680      4.629
REMARK  3 active torsions:
REMARK  status: ('A' for Active; 'I' for Inactive)
REMARK    1  A    between atoms: C_4  and  C_5 
REMARK    2  A    between atoms: C_14  and  C_15 
REMARK       I    between atoms: C_15  and  N_16 
REMARK    3  A    between atoms: N_16  and  C_17 
ROOT
HETATM    1  C   UNL     1      26.980  42.708  50.218  1.00  0.00     0.222 C 
HETATM    2  N   UNL     1      26.829  41.473  49.454  1.00  0.00    -0.090 N 
HETATM    3  C   UNL     1      26.989  40.219  49.968  1.00  0.00     0.735 A 
HETATM    4  N   UNL     1      26.815  39.354  49.000  1.00  0.00     0.030 NA
HETATM    5  N   UNL     1      26.585  40.106  47.862  1.00  0.00     0.033 NA
HETATM    6  N   UNL     1      26.624  41.408  48.128  1.00  0.00     0.012 NA
HETATM    7  N   UNL     1      27.335  40.075  51.265  1.00  0.00    -0.191 N 
HETATM    8  C   UNL     1      27.700  41.152  52.070  1.00  0.00     0.037 C 
HETATM    9  C   UNL     1      28.351  40.785  53.381  1.00  0.00     0.070 C 
HETATM   10  C   UNL     1      27.531  42.419  51.613  1.00  0.00     0.064 C 
HETATM   11  H   UNL     1      27.547  39.140  51.604  1.00  0.00     0.184 HD
ENDROOT
BRANCH  10  12
HETATM   12  C   UNL     1      27.967  43.646  52.335  1.00  0.00     0.256 C 
HETATM   13  N   UNL     1      26.934  44.381  52.869  1.00  0.00    -0.323 N 
HETATM   14  H   UNL     1      25.992  44.065  52.676  1.00  0.00     0.169 HD
HETATM   15  O   UNL     1      29.162  43.911  52.358  1.00  0.00    -0.267 OA
BRANCH  13  16
HETATM   16  C   UNL     1      27.039  45.508  53.714  1.00  0.00     0.035 A 
HETATM   17  C   UNL     1      27.960  45.619  54.757  1.00  0.00     0.029 A 
HETATM   18  C   UNL     1      27.976  46.755  55.573  1.00  0.00     0.002 A 
HETATM   19  C   UNL     1      27.067  47.787  55.358  1.00  0.00     0.000 A 
HETATM   20  C   UNL     1      26.145  47.689  54.319  1.00  0.00     0.002 A 
HETATM   21  C   UNL     1      26.136  46.558  53.497  1.00  0.00     0.029 A 
ENDBRANCH  13  16
ENDBRANCH  10  12
BRANCH   1  22
HETATM   22  C   UNL     1      25.671  43.443  50.219  1.00  0.00     0.083 A 
HETATM   23  O   UNL     1      25.709  44.788  49.980  1.00  0.00    -0.317 OA
HETATM   24  C   UNL     1      24.435  45.252  50.092  1.00  0.00     0.049 A 
HETATM   25  C   UNL     1      24.248  46.710  49.945  1.00  0.00     0.076 C 
HETATM   26  C   UNL     1      23.572  44.210  50.352  1.00  0.00     0.035 A 
HETATM   27  C   UNL     1      24.367  43.042  50.427  1.00  0.00     0.038 A 
ENDBRANCH   1  22
TORSDOF 3
ENDMDL
MODEL 10
REMARK VINA RESULT:      -7.7      3.501      8.019
REMARK  3 active torsions:
REMARK  status: ('A' for Active; 'I' for Inactive)
REMARK    1  A    between atoms: C_4  and  C_5 
REMARK    2  A    between atoms: C_14  and  C_15 
REMARK       I    between atoms: C_15  and  N_16 
REMARK    3  A    between atoms: N_16  and  C_17 
ROOT
HETATM    1  C   UNL     1      24.865  46.687  51.075  1.00  0.00     0.222 C 
HETATM    2  N   UNL     1      25.599  46.733  52.337  1.00  0.00    -0.090 N 
HETATM    3  C   UNL     1      26.361  45.713  52.828  1.00  0.00     0.735 A 
HETATM    4  N   UNL     1      26.841  46.083  53.990  1.00  0.00     0.030 NA
HETATM    5  N   UNL     1      26.323  47.343  54.225  1.00  0.00     0.033 NA
HETATM    6  N   UNL     1      25.534  47.735  53.229  1.00  0.00     0.012 NA
HETATM    7  N   UNL     1      26.444  44.557  52.136  1.00  0.00    -0.191 N 
HETATM    8  C   UNL     1      25.655  44.290  51.020  1.00  0.00     0.037 C 
HETATM    9  C   UNL     1      25.650  42.852  50.563  1.00  0.00     0.070 C 
HETATM   10  C   UNL     1      24.904  45.282  50.476  1.00  0.00     0.064 C 
HETATM   11  H   UNL     1      26.933  43.775  52.565  1.00  0.00     0.184 HD
ENDROOT
BRANCH  10  12
HETATM   12  C   UNL     1      23.951  45.102  49.346  1.00  0.00     0.256 C 
HETATM   13  N   UNL     1      22.747  45.746  49.518  1.00  0.00    -0.323 N 
HETATM   14  H   UNL     1      22.597  46.219  50.401  1.00  0.00     0.169 HD
HETATM   15  O   UNL     1      24.290  44.390  48.410  1.00  0.00    -0.267 OA
BRANCH  13  16
HETATM   16  C   UNL     1      21.707  45.872  48.572  1.00  0.00     0.035 A 
HETATM   17  C   UNL     1      20.544  45.101  48.583  1.00  0.00     0.029 A 
HETATM   18  C   UNL     1      19.575  45.261  47.586  1.00  0.00     0.002 A 
HETATM   19  C   UNL     1      19.763  46.190  46.567  1.00  0.00     0.000 A 
HETATM   20  C   UNL     1      20.918  46.968  46.547  1.00  0.00     0.002 A 
HETATM   21  C   UNL     1      21.881  46.814  47.549  1.00  0.00     0.029 A 
ENDBRANCH  13  16
ENDBRANCH  10  12
BRANCH   1  22
HETATM   22  C   UNL     1      25.398  47.753  50.163  1.00  0.00     0.083 A 
HETATM   23  O   UNL     1      24.485  48.560  49.544  1.00  0.00    -0.317 OA
HETATM   24  C   UNL     1      25.178  49.399  48.727  1.00  0.00     0.049 A 
HETATM   25  C   UNL     1      24.379  50.319  47.893  1.00  0.00     0.076 C 
HETATM   26  C   UNL     1      26.531  49.171  48.852  1.00  0.00     0.035 A 
HETATM   27  C   UNL     1      26.675  48.115  49.782  1.00  0.00     0.038 A 
ENDBRANCH   1  22
TORSDOF 3
ENDMDL
