MODEL 1
REMARK VINA RESULT:      -9.0      0.000      0.000
REMARK  6 active torsions:
REMARK  status: ('A' for Active; 'I' for Inactive)
REMARK    1  A    between atoms: C_3  and  C_4 
REMARK    2  A    between atoms: C_9  and  N_10 
REMARK       I    between atoms: N_10  and  C_11 
REMARK       I    between atoms: C_11  and  N_12 
REMARK    3  A    between atoms: N_12  and  C_13 
REMARK    4  A    between atoms: C_13  and  C_14 
REMARK    5  A    between atoms: C_14  and  C_15 
REMARK    6  A    between atoms: C_18  and  N_19 
ROOT
HETATM    1  N   UNL     1      25.541  44.866  50.324  1.00  0.00    -0.309 N 
HETATM    2  C   UNL     1      25.376  43.652  49.718  1.00  0.00     0.320 C 
HETATM    3  N   UNL     1      25.898  42.582  50.384  1.00  0.00    -0.343 N 
HETATM    4  O   UNL     1      24.792  43.436  48.661  1.00  0.00    -0.247 OA
HETATM    5  H   UNL     1      25.965  44.855  51.236  1.00  0.00     0.170 HD
HETATM    6  H   UNL     1      25.696  41.706  49.915  1.00  0.00     0.164 HD
ENDROOT
BRANCH   3   7
HETATM    7  C   UNL     1      26.597  42.509  51.658  1.00  0.00     0.129 C 
BRANCH   7   8
HETATM    8  C   UNL     1      28.096  42.815  51.555  1.00  0.00     0.058 C 
BRANCH   8   9
HETATM    9  C   UNL     1      28.698  43.317  52.845  1.00  0.00    -0.057 A 
HETATM   10  C   UNL     1      28.064  44.326  53.578  1.00  0.00     0.009 A 
HETATM   11  C   UNL     1      28.611  44.778  54.782  1.00  0.00     0.032 A 
HETATM   12  C   UNL     1      29.807  44.232  55.268  1.00  0.00     0.058 A 
HETATM   13  C   UNL     1      30.452  43.231  54.531  1.00  0.00     0.032 A 
HETATM   14  C   UNL     1      29.897  42.778  53.329  1.00  0.00     0.009 A 
BRANCH  12  15
HETATM   15  N   UNL     1      30.336  44.697  56.505  1.00  0.00    -0.246 N 
HETATM   16  N   UNL     1      29.983  45.913  57.003  1.00  0.00    -0.180 NA
HETATM   17  C   UNL     1      30.640  46.013  58.159  1.00  0.00     0.140 A 
HETATM   18  C   UNL     1      31.428  44.886  58.427  1.00  0.00     0.040 A 
HETATM   19  C   UNL     1      31.218  44.056  57.352  1.00  0.00     0.120 A 
ENDBRANCH  12  15
ENDBRANCH   8   9
ENDBRANCH   7   8
ENDBRANCH   3   7
BRANCH   1  20
HETATM   20  C   UNL     1      25.117  46.128  49.862  1.00  0.00     0.036 A 
HETATM   21  C   UNL     1      23.788  46.462  49.615  1.00  0.00     0.030 A 
HETATM   22  C   UNL     1      23.454  47.736  49.144  1.00  0.00     0.018 A 
HETATM   23  C   UNL     1      24.444  48.705  48.926  1.00  0.00     0.015 A 
HETATM   24  C   UNL     1      25.791  48.387  49.182  1.00  0.00    -0.046 A 
HETATM   25  C   UNL     1      26.910  49.375  48.983  1.00  0.00     0.049 C 
HETATM   26  C   UNL     1      26.110  47.092  49.632  1.00  0.00     0.037 A 
BRANCH  23  27
HETATM   27  C   UNL     1      24.042  50.045  48.401  1.00  0.00     0.156 C 
HETATM   28  C   UNL     1      23.157  50.913  49.257  1.00  0.00     0.097 C 
HETATM   29  O   UNL     1      24.405  50.414  47.287  1.00  0.00    -0.293 OA
ENDBRANCH  23  27
ENDBRANCH   1  20
TORSDOF 6
ENDMDL
MODEL 2
REMARK VINA RESULT:      -8.9      2.756      4.122
REMARK  6 active torsions:
REMARK  status: ('A' for Active; 'I' for Inactive)
REMARK    1  A    between atoms: C_3  and  C_4 
REMARK    2  A    between atoms: C_9  and  N_10 
REMARK       I    between atoms: N_10  and  C_11 
REMARK       I    between atoms: C_11  and  N_12 
REMARK    3  A    between atoms: N_12  and  C_13 
REMARK    4  A    between atoms: C_13  and  C_14 
REMARK    5  A    between atoms: C_14  and  C_15 
REMARK    6  A    between atoms: C_18  and  N_19 
ROOT
HETATM    1  N   UNL     1      23.471  47.808  49.785  1.00  0.00    -0.309 N 
HETATM    2  C   UNL     1      24.778  48.185  49.641  1.00  0.00     0.320 C 
HETATM    3  N   UNL     1      25.660  47.601  50.502  1.00  0.00    -0.343 N 
HETATM    4  O   UNL     1      25.224  48.969  48.810  1.00  0.00    -0.247 OA
HETATM    5  H   UNL     1      23.288  47.083  50.457  1.00  0.00     0.170 HD
HETATM    6  H   UNL     1      26.617  47.876  50.310  1.00  0.00     0.164 HD
ENDROOT
BRANCH   3   7
HETATM    7  C   UNL     1      25.448  46.617  51.551  1.00  0.00     0.129 C 
BRANCH   7   8
HETATM    8  C   UNL     1      25.596  47.186  52.967  1.00  0.00     0.058 C 
BRANCH   8   9
HETATM    9  C   UNL     1      26.705  46.541  53.763  1.00  0.00    -0.057 A 
HETATM   10  C   UNL     1      26.991  45.180  53.605  1.00  0.00     0.009 A 
HETATM   11  C   UNL     1      28.030  44.586  54.327  1.00  0.00     0.032 A 
HETATM   12  C   UNL     1      28.795  45.344  55.225  1.00  0.00     0.058 A 
HETATM   13  C   UNL     1      28.503  46.703  55.397  1.00  0.00     0.032 A 
HETATM   14  C   UNL     1      27.465  47.294  54.666  1.00  0.00     0.009 A 
BRANCH  12  15
HETATM   15  N   UNL     1      29.857  44.720  55.937  1.00  0.00    -0.246 N 
HETATM   16  N   UNL     1      30.273  45.204  57.139  1.00  0.00    -0.180 NA
HETATM   17  C   UNL     1      31.253  44.383  57.518  1.00  0.00     0.140 A 
HETATM   18  C   UNL     1      31.496  43.370  56.582  1.00  0.00     0.040 A 
HETATM   19  C   UNL     1      30.590  43.607  55.575  1.00  0.00     0.120 A 
ENDBRANCH  12  15
ENDBRANCH   8   9
ENDBRANCH   7   8
ENDBRANCH   3   7
BRANCH   1  20
HETATM   20  C   UNL     1      22.357  48.253  49.047  1.00  0.00     0.036 A 
HETATM   21  C   UNL     1      21.662  47.467  48.132  1.00  0.00     0.030 A 
HETATM   22  C   UNL     1      20.572  47.991  47.430  1.00  0.00     0.018 A 
HETATM   23  C   UNL     1      20.147  49.311  47.643  1.00  0.00     0.015 A 
HETATM   24  C   UNL     1      20.831  50.116  48.574  1.00  0.00    -0.046 A 
HETATM   25  C   UNL     1      20.431  51.538  48.866  1.00  0.00     0.049 C 
HETATM   26  C   UNL     1      21.941  49.577  49.252  1.00  0.00     0.037 A 
BRANCH  23  27
HETATM   27  C   UNL     1      18.992  49.836  46.855  1.00  0.00     0.156 C 
HETATM   28  C   UNL     1      17.598  49.571  47.363  1.00  0.00     0.097 C 
HETATM   29  O   UNL     1      19.178  50.444  45.804  1.00  0.00    -0.293 OA
ENDBRANCH  23  27
ENDBRANCH   1  20
TORSDOF 6
ENDMDL
MODEL 3
REMARK VINA RESULT:      -8.8      3.146      4.598
REMARK  6 active torsions:
REMARK  status: ('A' for Active; 'I' for Inactive)
REMARK    1  A    between atoms: C_3  and  C_4 
REMARK    2  A    between atoms: C_9  and  N_10 
REMARK       I    between atoms: N_10  and  C_11 
REMARK       I    between atoms: C_11  and  N_12 
REMARK    3  A    between atoms: N_12  and  C_13 
REMARK    4  A    between atoms: C_13  and  C_14 
REMARK    5  A    between atoms: C_14  and  C_15 
REMARK    6  A    between atoms: C_18  and  N_19 
ROOT
HETATM    1  N   UNL     1      22.608  48.349  49.583  1.00  0.00    -0.309 N 
HETATM    2  C   UNL     1      23.090  47.330  48.809  1.00  0.00     0.320 C 
HETATM    3  N   UNL     1      24.078  46.577  49.372  1.00  0.00    -0.343 N 
HETATM    4  O   UNL     1      22.709  47.024  47.685  1.00  0.00    -0.247 OA
HETATM    5  H   UNL     1      22.969  48.407  50.520  1.00  0.00     0.170 HD
HETATM    6  H   UNL     1      24.355  45.806  48.775  1.00  0.00     0.164 HD
ENDROOT
BRANCH   3   7
HETATM    7  C   UNL     1      24.704  46.662  50.682  1.00  0.00     0.129 C 
BRANCH   7   8
HETATM    8  C   UNL     1      24.629  45.359  51.485  1.00  0.00     0.058 C 
BRANCH   8   9
HETATM    9  C   UNL     1      25.842  45.114  52.350  1.00  0.00    -0.057 A 
HETATM   10  C   UNL     1      25.956  45.730  53.601  1.00  0.00     0.009 A 
HETATM   11  C   UNL     1      27.069  45.489  54.411  1.00  0.00     0.032 A 
HETATM   12  C   UNL     1      28.092  44.633  53.977  1.00  0.00     0.058 A 
HETATM   13  C   UNL     1      27.988  44.025  52.720  1.00  0.00     0.032 A 
HETATM   14  C   UNL     1      26.868  44.265  51.916  1.00  0.00     0.009 A 
BRANCH  12  15
HETATM   15  N   UNL     1      29.207  44.391  54.826  1.00  0.00    -0.246 N 
HETATM   16  N   UNL     1      29.627  45.331  55.716  1.00  0.00    -0.180 NA
HETATM   17  C   UNL     1      30.663  44.772  56.342  1.00  0.00     0.140 A 
HETATM   18  C   UNL     1      30.939  43.481  55.874  1.00  0.00     0.040 A 
HETATM   19  C   UNL     1      29.994  43.258  54.901  1.00  0.00     0.120 A 
ENDBRANCH  12  15
ENDBRANCH   8   9
ENDBRANCH   7   8
ENDBRANCH   3   7
BRANCH   1  20
HETATM   20  C   UNL     1      21.605  49.283  49.256  1.00  0.00     0.036 A 
HETATM   21  C   UNL     1      21.855  50.608  48.908  1.00  0.00     0.030 A 
HETATM   22  C   UNL     1      20.799  51.474  48.610  1.00  0.00     0.018 A 
HETATM   23  C   UNL     1      19.470  51.026  48.642  1.00  0.00     0.015 A 
HETATM   24  C   UNL     1      19.200  49.687  48.981  1.00  0.00    -0.046 A 
HETATM   25  C   UNL     1      17.803  49.127  49.028  1.00  0.00     0.049 C 
HETATM   26  C   UNL     1      20.276  48.837  49.302  1.00  0.00     0.037 A 
BRANCH  23  27
HETATM   27  C   UNL     1      18.372  51.992  48.338  1.00  0.00     0.156 C 
HETATM   28  C   UNL     1      17.689  52.685  49.489  1.00  0.00     0.097 C 
HETATM   29  O   UNL     1      18.021  52.194  47.179  1.00  0.00    -0.293 OA
ENDBRANCH  23  27
ENDBRANCH   1  20
TORSDOF 6
ENDMDL
MODEL 4
REMARK VINA RESULT:      -8.8      2.756      5.998
REMARK  6 active torsions:
REMARK  status: ('A' for Active; 'I' for Inactive)
REMARK    1  A    between atoms: C_3  and  C_4 
REMARK    2  A    between atoms: C_9  and  N_10 
REMARK       I    between atoms: N_10  and  C_11 
REMARK       I    between atoms: C_11  and  N_12 
REMARK    3  A    between atoms: N_12  and  C_13 
REMARK    4  A    between atoms: C_13  and  C_14 
REMARK    5  A    between atoms: C_14  and  C_15 
REMARK    6  A    between atoms: C_18  and  N_19 
ROOT
HETATM    1  N   UNL     1      26.370  44.379  50.909  1.00  0.00    -0.309 N 
HETATM    2  C   UNL     1      25.074  44.813  50.930  1.00  0.00     0.320 C 
HETATM    3  N   UNL     1      24.881  46.078  51.402  1.00  0.00    -0.343 N 
HETATM    4  O   UNL     1      24.089  44.189  50.551  1.00  0.00    -0.247 OA
HETATM    5  H   UNL     1      27.070  45.053  51.170  1.00  0.00     0.170 HD
HETATM    6  H   UNL     1      23.910  46.363  51.342  1.00  0.00     0.164 HD
ENDROOT
BRANCH   3   7
HETATM    7  C   UNL     1      25.836  47.067  51.878  1.00  0.00     0.129 C 
BRANCH   7   8
HETATM    8  C   UNL     1      25.803  47.272  53.397  1.00  0.00     0.058 C 
BRANCH   8   9
HETATM    9  C   UNL     1      26.935  46.585  54.122  1.00  0.00    -0.057 A 
HETATM   10  C   UNL     1      27.883  47.335  54.828  1.00  0.00     0.009 A 
HETATM   11  C   UNL     1      28.920  46.699  55.515  1.00  0.00     0.032 A 
HETATM   12  C   UNL     1      29.030  45.301  55.501  1.00  0.00     0.058 A 
HETATM   13  C   UNL     1      28.092  44.548  54.784  1.00  0.00     0.032 A 
HETATM   14  C   UNL     1      27.052  45.190  54.103  1.00  0.00     0.009 A 
BRANCH  12  15
HETATM   15  N   UNL     1      30.086  44.676  56.222  1.00  0.00    -0.246 N 
HETATM   16  N   UNL     1      30.464  45.133  57.447  1.00  0.00    -0.180 NA
HETATM   17  C   UNL     1      31.448  44.318  57.827  1.00  0.00     0.140 A 
HETATM   18  C   UNL     1      31.731  43.336  56.870  1.00  0.00     0.040 A 
HETATM   19  C   UNL     1      30.846  43.585  55.848  1.00  0.00     0.120 A 
ENDBRANCH  12  15
ENDBRANCH   8   9
ENDBRANCH   7   8
ENDBRANCH   3   7
BRANCH   1  20
HETATM   20  C   UNL     1      26.856  43.127  50.485  1.00  0.00     0.036 A 
HETATM   21  C   UNL     1      26.660  42.604  49.210  1.00  0.00     0.030 A 
HETATM   22  C   UNL     1      27.166  41.344  48.875  1.00  0.00     0.018 A 
HETATM   23  C   UNL     1      27.890  40.588  49.808  1.00  0.00     0.015 A 
HETATM   24  C   UNL     1      28.107  41.106  51.099  1.00  0.00    -0.046 A 
HETATM   25  C   UNL     1      28.883  40.362  52.153  1.00  0.00     0.049 C 
HETATM   26  C   UNL     1      27.569  42.367  51.424  1.00  0.00     0.037 A 
BRANCH  23  27
HETATM   27  C   UNL     1      28.392  39.238  49.413  1.00  0.00     0.156 C 
HETATM   28  C   UNL     1      27.468  38.057  49.564  1.00  0.00     0.097 C 
HETATM   29  O   UNL     1      29.540  39.094  49.001  1.00  0.00    -0.293 OA
ENDBRANCH  23  27
ENDBRANCH   1  20
TORSDOF 6
ENDMDL
MODEL 5
REMARK VINA RESULT:      -8.6      3.073      9.118
REMARK  6 active torsions:
REMARK  status: ('A' for Active; 'I' for Inactive)
REMARK    1  A    between atoms: C_3  and  C_4 
REMARK    2  A    between atoms: C_9  and  N_10 
REMARK       I    between atoms: N_10  and  C_11 
REMARK       I    between atoms: C_11  and  N_12 
REMARK    3  A    between atoms: N_12  and  C_13 
REMARK    4  A    between atoms: C_13  and  C_14 
REMARK    5  A    between atoms: C_14  and  C_15 
REMARK    6  A    between atoms: C_18  and  N_19 
ROOT
HETATM    1  N   UNL     1      27.953  43.410  51.870  1.00  0.00    -0.309 N 
HETATM    2  C   UNL     1      27.609  42.217  51.297  1.00  0.00     0.320 C 
HETATM    3  N   UNL     1      26.845  42.301  50.170  1.00  0.00    -0.343 N 
HETATM    4  O   UNL     1      27.937  41.100  51.682  1.00  0.00    -0.247 OA
HETATM    5  H   UNL     1      27.678  44.240  51.373  1.00  0.00     0.170 HD
HETATM    6  H   UNL     1      26.669  41.390  49.761  1.00  0.00     0.164 HD
ENDROOT
BRANCH   3   7
HETATM    7  C   UNL     1      26.340  43.462  49.453  1.00  0.00     0.129 C 
BRANCH   7   8
HETATM    8  C   UNL     1      24.810  43.530  49.394  1.00  0.00     0.058 C 
BRANCH   8   9
HETATM    9  C   UNL     1      24.274  44.937  49.280  1.00  0.00    -0.057 A 
HETATM   10  C   UNL     1      24.892  45.988  49.966  1.00  0.00     0.009 A 
HETATM   11  C   UNL     1      24.408  47.294  49.846  1.00  0.00     0.032 A 
HETATM   12  C   UNL     1      23.291  47.567  49.044  1.00  0.00     0.058 A 
HETATM   13  C   UNL     1      22.661  46.516  48.368  1.00  0.00     0.032 A 
HETATM   14  C   UNL     1      23.153  45.211  48.486  1.00  0.00     0.009 A 
BRANCH  12  15
HETATM   15  N   UNL     1      22.827  48.907  48.926  1.00  0.00    -0.246 N 
HETATM   16  N   UNL     1      23.472  49.929  49.552  1.00  0.00    -0.180 NA
HETATM   17  C   UNL     1      22.787  51.022  49.216  1.00  0.00     0.140 A 
HETATM   18  C   UNL     1      21.696  50.737  48.385  1.00  0.00     0.040 A 
HETATM   19  C   UNL     1      21.740  49.374  48.214  1.00  0.00     0.120 A 
ENDBRANCH  12  15
ENDBRANCH   8   9
ENDBRANCH   7   8
ENDBRANCH   3   7
BRANCH   1  20
HETATM   20  C   UNL     1      28.719  43.621  53.033  1.00  0.00     0.036 A 
HETATM   21  C   UNL     1      29.896  42.938  53.327  1.00  0.00     0.030 A 
HETATM   22  C   UNL     1      30.590  43.199  54.513  1.00  0.00     0.018 A 
HETATM   23  C   UNL     1      30.125  44.161  55.421  1.00  0.00     0.015 A 
HETATM   24  C   UNL     1      28.943  44.870  55.134  1.00  0.00    -0.046 A 
HETATM   25  C   UNL     1      28.385  45.924  56.053  1.00  0.00     0.049 C 
HETATM   26  C   UNL     1      28.246  44.574  53.947  1.00  0.00     0.037 A 
BRANCH  23  27
HETATM   27  C   UNL     1      30.887  44.391  56.686  1.00  0.00     0.156 C 
HETATM   28  C   UNL     1      31.772  43.286  57.200  1.00  0.00     0.097 C 
HETATM   29  O   UNL     1      30.770  45.447  57.302  1.00  0.00    -0.293 OA
ENDBRANCH  23  27
ENDBRANCH   1  20
TORSDOF 6
ENDMDL
MODEL 6
REMARK VINA RESULT:      -8.5      4.477     10.859
REMARK  6 active torsions:
REMARK  status: ('A' for Active; 'I' for Inactive)
REMARK    1  A    between atoms: C_3  and  C_4 
REMARK    2  A    between atoms: C_9  and  N_10 
REMARK       I    between atoms: N_10  and  C_11 
REMARK       I    between atoms: C_11  and  N_12 
REMARK    3  A    between atoms: N_12  and  C_13 
REMARK    4  A    between atoms: C_13  and  C_14 
REMARK    5  A    between atoms: C_14  and  C_15 
REMARK    6  A    between atoms: C_18  and  N_19 
ROOT
HETATM    1  N   UNL     1      25.597  47.920  49.866  1.00  0.00    -0.309 N 
HETATM    2  C   UNL     1      26.364  48.768  49.115  1.00  0.00     0.320 C 
HETATM    3  N   UNL     1      25.679  49.607  48.286  1.00  0.00    -0.343 N 
HETATM    4  O   UNL     1      27.587  48.857  49.135  1.00  0.00    -0.247 OA
HETATM    5  H   UNL     1      24.601  48.040  49.796  1.00  0.00     0.170 HD
HETATM    6  H   UNL     1      26.296  50.247  47.799  1.00  0.00     0.164 HD
ENDROOT
BRANCH   3   7
HETATM    7  C   UNL     1      24.249  49.768  48.073  1.00  0.00     0.129 C 
BRANCH   7   8
HETATM    8  C   UNL     1      23.606  50.817  48.987  1.00  0.00     0.058 C 
BRANCH   8   9
HETATM    9  C   UNL     1      22.098  50.831  48.919  1.00  0.00    -0.057 A 
HETATM   10  C   UNL     1      21.339  51.049  50.074  1.00  0.00     0.009 A 
HETATM   11  C   UNL     1      19.943  51.082  50.009  1.00  0.00     0.032 A 
HETATM   12  C   UNL     1      19.284  50.888  48.787  1.00  0.00     0.058 A 
HETATM   13  C   UNL     1      20.039  50.655  47.631  1.00  0.00     0.032 A 
HETATM   14  C   UNL     1      21.437  50.630  47.701  1.00  0.00     0.009 A 
BRANCH  12  15
HETATM   15  N   UNL     1      17.863  50.941  48.744  1.00  0.00    -0.246 N 
HETATM   16  N   UNL     1      17.169  51.798  49.542  1.00  0.00    -0.180 NA
HETATM   17  C   UNL     1      15.889  51.595  49.232  1.00  0.00     0.140 A 
HETATM   18  C   UNL     1      15.725  50.611  48.248  1.00  0.00     0.040 A 
HETATM   19  C   UNL     1      17.004  50.205  47.951  1.00  0.00     0.120 A 
ENDBRANCH  12  15
ENDBRANCH   8   9
ENDBRANCH   7   8
ENDBRANCH   3   7
BRANCH   1  20
HETATM   20  C   UNL     1      26.032  46.949  50.789  1.00  0.00     0.036 A 
HETATM   21  C   UNL     1      26.482  45.680  50.435  1.00  0.00     0.030 A 
HETATM   22  C   UNL     1      26.884  44.770  51.418  1.00  0.00     0.018 A 
HETATM   23  C   UNL     1      26.857  45.120  52.776  1.00  0.00     0.015 A 
HETATM   24  C   UNL     1      26.416  46.403  53.151  1.00  0.00    -0.046 A 
HETATM   25  C   UNL     1      26.368  46.857  54.586  1.00  0.00     0.049 C 
HETATM   26  C   UNL     1      25.992  47.296  52.148  1.00  0.00     0.037 A 
BRANCH  23  27
HETATM   27  C   UNL     1      27.275  44.108  53.792  1.00  0.00     0.156 C 
HETATM   28  C   UNL     1      28.748  43.877  54.009  1.00  0.00     0.097 C 
HETATM   29  O   UNL     1      26.435  43.464  54.414  1.00  0.00    -0.293 OA
ENDBRANCH  23  27
ENDBRANCH   1  20
TORSDOF 6
ENDMDL
MODEL 7
REMARK VINA RESULT:      -8.5      3.708     10.014
REMARK  6 active torsions:
REMARK  status: ('A' for Active; 'I' for Inactive)
REMARK    1  A    between atoms: C_3  and  C_4 
REMARK    2  A    between atoms: C_9  and  N_10 
REMARK       I    between atoms: N_10  and  C_11 
REMARK       I    between atoms: C_11  and  N_12 
REMARK    3  A    between atoms: N_12  and  C_13 
REMARK    4  A    between atoms: C_13  and  C_14 
REMARK    5  A    between atoms: C_14  and  C_15 
REMARK    6  A    between atoms: C_18  and  N_19 
ROOT
HETATM    1  N   UNL     1      26.249  45.555  52.374  1.00  0.00    -0.309 N 
HETATM    2  C   UNL     1      25.023  44.952  52.332  1.00  0.00     0.320 C 
HETATM    3  N   UNL     1      24.316  45.126  51.179  1.00  0.00    -0.343 N 
HETATM    4  O   UNL     1      24.518  44.263  53.212  1.00  0.00    -0.247 OA
HETATM    5  H   UNL     1      26.552  46.008  51.529  1.00  0.00     0.170 HD
HETATM    6  H   UNL     1      23.443  44.612  51.186  1.00  0.00     0.164 HD
ENDROOT
BRANCH   3   7
HETATM    7  C   UNL     1      24.658  45.842  49.959  1.00  0.00     0.129 C 
BRANCH   7   8
HETATM    8  C   UNL     1      23.549  45.816  48.901  1.00  0.00     0.058 C 
BRANCH   8   9
HETATM    9  C   UNL     1      22.648  47.026  48.943  1.00  0.00    -0.057 A 
HETATM   10  C   UNL     1      23.144  48.265  49.365  1.00  0.00     0.009 A 
HETATM   11  C   UNL     1      22.316  49.390  49.387  1.00  0.00     0.032 A 
HETATM   12  C   UNL     1      20.973  49.292  48.993  1.00  0.00     0.058 A 
HETATM   13  C   UNL     1      20.469  48.052  48.583  1.00  0.00     0.032 A 
HETATM   14  C   UNL     1      21.305  46.929  48.557  1.00  0.00     0.009 A 
BRANCH  12  15
HETATM   15  N   UNL     1      20.154  50.455  49.008  1.00  0.00    -0.246 N 
HETATM   16  N   UNL     1      19.477  50.819  50.131  1.00  0.00    -0.180 NA
HETATM   17  C   UNL     1      18.839  51.941  49.797  1.00  0.00     0.140 A 
HETATM   18  C   UNL     1      19.077  52.318  48.469  1.00  0.00     0.040 A 
HETATM   19  C   UNL     1      19.922  51.350  47.982  1.00  0.00     0.120 A 
ENDBRANCH  12  15
ENDBRANCH   8   9
ENDBRANCH   7   8
ENDBRANCH   3   7
BRANCH   1  20
HETATM   20  C   UNL     1      27.180  45.551  53.432  1.00  0.00     0.036 A 
HETATM   21  C   UNL     1      27.371  46.616  54.307  1.00  0.00     0.030 A 
HETATM   22  C   UNL     1      28.328  46.534  55.324  1.00  0.00     0.018 A 
HETATM   23  C   UNL     1      29.101  45.377  55.493  1.00  0.00     0.015 A 
HETATM   24  C   UNL     1      28.912  44.286  54.624  1.00  0.00    -0.046 A 
HETATM   25  C   UNL     1      29.695  43.006  54.746  1.00  0.00     0.049 C 
HETATM   26  C   UNL     1      27.962  44.397  53.591  1.00  0.00     0.037 A 
BRANCH  23  27
HETATM   27  C   UNL     1      30.126  45.343  56.579  1.00  0.00     0.156 C 
HETATM   28  C   UNL     1      29.711  45.754  57.969  1.00  0.00     0.097 C 
HETATM   29  O   UNL     1      31.284  45.013  56.336  1.00  0.00    -0.293 OA
ENDBRANCH  23  27
ENDBRANCH   1  20
TORSDOF 6
ENDMDL
MODEL 8
REMARK VINA RESULT:      -8.2      3.442      9.892
REMARK  6 active torsions:
REMARK  status: ('A' for Active; 'I' for Inactive)
REMARK    1  A    between atoms: C_3  and  C_4 
REMARK    2  A    between atoms: C_9  and  N_10 
REMARK       I    between atoms: N_10  and  C_11 
REMARK       I    between atoms: C_11  and  N_12 
REMARK    3  A    between atoms: N_12  and  C_13 
REMARK    4  A    between atoms: C_13  and  C_14 
REMARK    5  A    between atoms: C_14  and  C_15 
REMARK    6  A    between atoms: C_18  and  N_19 
ROOT
HETATM    1  N   UNL     1      27.462  44.644  52.896  1.00  0.00    -0.309 N 
HETATM    2  C   UNL     1      26.123  44.373  52.937  1.00  0.00     0.320 C 
HETATM    3  N   UNL     1      25.432  44.627  51.788  1.00  0.00    -0.343 N 
HETATM    4  O   UNL     1      25.500  43.910  53.887  1.00  0.00    -0.247 OA
HETATM    5  H   UNL     1      27.831  44.934  52.007  1.00  0.00     0.170 HD
HETATM    6  H   UNL     1      24.458  44.355  51.862  1.00  0.00     0.164 HD
ENDROOT
BRANCH   3   7
HETATM    7  C   UNL     1      25.888  45.129  50.501  1.00  0.00     0.129 C 
BRANCH   7   8
HETATM    8  C   UNL     1      24.852  44.982  49.382  1.00  0.00     0.058 C 
BRANCH   8   9
HETATM    9  C   UNL     1      23.943  46.179  49.241  1.00  0.00    -0.057 A 
HETATM   10  C   UNL     1      22.685  46.047  48.642  1.00  0.00     0.009 A 
HETATM   11  C   UNL     1      21.835  47.150  48.529  1.00  0.00     0.032 A 
HETATM   12  C   UNL     1      22.234  48.407  49.005  1.00  0.00     0.058 A 
HETATM   13  C   UNL     1      23.498  48.547  49.592  1.00  0.00     0.032 A 
HETATM   14  C   UNL     1      24.343  47.437  49.709  1.00  0.00     0.009 A 
BRANCH  12  15
HETATM   15  N   UNL     1      21.345  49.512  48.892  1.00  0.00    -0.246 N 
HETATM   16  N   UNL     1      20.038  49.399  49.257  1.00  0.00    -0.180 NA
HETATM   17  C   UNL     1      19.517  50.606  49.038  1.00  0.00     0.140 A 
HETATM   18  C   UNL     1      20.455  51.511  48.525  1.00  0.00     0.040 A 
HETATM   19  C   UNL     1      21.620  50.787  48.439  1.00  0.00     0.120 A 
ENDBRANCH  12  15
ENDBRANCH   8   9
ENDBRANCH   7   8
ENDBRANCH   3   7
BRANCH   1  20
HETATM   20  C   UNL     1      28.408  44.488  53.929  1.00  0.00     0.036 A 
HETATM   21  C   UNL     1      29.422  43.534  53.921  1.00  0.00     0.030 A 
HETATM   22  C   UNL     1      30.313  43.438  54.995  1.00  0.00     0.018 A 
HETATM   23  C   UNL     1      30.213  44.307  56.092  1.00  0.00     0.015 A 
HETATM   24  C   UNL     1      29.201  45.285  56.110  1.00  0.00    -0.046 A 
HETATM   25  C   UNL     1      29.035  46.259  57.246  1.00  0.00     0.049 C 
HETATM   26  C   UNL     1      28.299  45.349  55.031  1.00  0.00     0.037 A 
BRANCH  23  27
HETATM   27  C   UNL     1      31.173  44.153  57.226  1.00  0.00     0.156 C 
HETATM   28  C   UNL     1      32.270  43.126  57.103  1.00  0.00     0.097 C 
HETATM   29  O   UNL     1      31.051  44.829  58.244  1.00  0.00    -0.293 OA
ENDBRANCH  23  27
ENDBRANCH   1  20
TORSDOF 6
ENDMDL
MODEL 9
REMARK VINA RESULT:      -7.9      3.438      8.010
REMARK  6 active torsions:
REMARK  status: ('A' for Active; 'I' for Inactive)
REMARK    1  A    between atoms: C_3  and  C_4 
REMARK    2  A    between atoms: C_9  and  N_10 
REMARK       I    between atoms: N_10  and  C_11 
REMARK       I    between atoms: C_11  and  N_12 
REMARK    3  A    between atoms: N_12  and  C_13 
REMARK    4  A    between atoms: C_13  and  C_14 
REMARK    5  A    between atoms: C_14  and  C_15 
REMARK    6  A    between atoms: C_18  and  N_19 
ROOT
HETATM    1  N   UNL     1      28.429  43.705  54.104  1.00  0.00    -0.309 N 
HETATM    2  C   UNL     1      29.563  44.134  54.737  1.00  0.00     0.320 C 
HETATM    3  N   UNL     1      29.386  45.120  55.663  1.00  0.00    -0.343 N 
HETATM    4  O   UNL     1      30.700  43.707  54.569  1.00  0.00    -0.247 OA
HETATM    5  H   UNL     1      27.562  44.098  54.427  1.00  0.00     0.170 HD
HETATM    6  H   UNL     1      30.251  45.356  56.137  1.00  0.00     0.164 HD
ENDROOT
BRANCH   3   7
HETATM    7  C   UNL     1      28.176  45.792  56.111  1.00  0.00     0.129 C 
BRANCH   7   8
HETATM    8  C   UNL     1      27.730  46.933  55.191  1.00  0.00     0.058 C 
BRANCH   8   9
HETATM    9  C   UNL     1      26.805  46.487  54.084  1.00  0.00    -0.057 A 
HETATM   10  C   UNL     1      26.836  47.121  52.836  1.00  0.00     0.009 A 
HETATM   11  C   UNL     1      25.994  46.696  51.805  1.00  0.00     0.032 A 
HETATM   12  C   UNL     1      25.101  45.634  52.008  1.00  0.00     0.058 A 
HETATM   13  C   UNL     1      25.057  45.007  53.259  1.00  0.00     0.032 A 
HETATM   14  C   UNL     1      25.906  45.432  54.287  1.00  0.00     0.009 A 
BRANCH  12  15
HETATM   15  N   UNL     1      24.265  45.210  50.938  1.00  0.00    -0.246 N 
HETATM   16  N   UNL     1      23.591  44.029  51.001  1.00  0.00    -0.180 NA
HETATM   17  C   UNL     1      22.909  43.963  49.858  1.00  0.00     0.140 A 
HETATM   18  C   UNL     1      23.128  45.076  49.037  1.00  0.00     0.040 A 
HETATM   19  C   UNL     1      24.002  45.862  49.749  1.00  0.00     0.120 A 
ENDBRANCH  12  15
ENDBRANCH   8   9
ENDBRANCH   7   8
ENDBRANCH   3   7
BRANCH   1  20
HETATM   20  C   UNL     1      28.318  42.716  53.107  1.00  0.00     0.036 A 
HETATM   21  C   UNL     1      28.786  41.412  53.244  1.00  0.00     0.030 A 
HETATM   22  C   UNL     1      28.647  40.495  52.198  1.00  0.00     0.018 A 
HETATM   23  C   UNL     1      28.021  40.863  50.998  1.00  0.00     0.015 A 
HETATM   24  C   UNL     1      27.531  42.174  50.846  1.00  0.00    -0.046 A 
HETATM   25  C   UNL     1      26.839  42.642  49.594  1.00  0.00     0.049 C 
HETATM   26  C   UNL     1      27.703  43.089  51.902  1.00  0.00     0.037 A 
BRANCH  23  27
HETATM   27  C   UNL     1      27.914  39.856  49.899  1.00  0.00     0.156 C 
HETATM   28  C   UNL     1      29.020  39.790  48.877  1.00  0.00     0.097 C 
HETATM   29  O   UNL     1      26.934  39.120  49.819  1.00  0.00    -0.293 OA
ENDBRANCH  23  27
ENDBRANCH   1  20
TORSDOF 6
ENDMDL
MODEL 10
REMARK VINA RESULT:      -7.9     16.960     18.884
REMARK  6 active torsions:
REMARK  status: ('A' for Active; 'I' for Inactive)
REMARK    1  A    between atoms: C_3  and  C_4 
REMARK    2  A    between atoms: C_9  and  N_10 
REMARK       I    between atoms: N_10  and  C_11 
REMARK       I    between atoms: C_11  and  N_12 
REMARK    3  A    between atoms: N_12  and  C_13 
REMARK    4  A    between atoms: C_13  and  C_14 
REMARK    5  A    between atoms: C_14  and  C_15 
REMARK    6  A    between atoms: C_18  and  N_19 
ROOT
HETATM    1  N   UNL     1      39.006  46.513  64.251  1.00  0.00    -0.309 N 
HETATM    2  C   UNL     1      39.995  45.575  64.350  1.00  0.00     0.320 C 
HETATM    3  N   UNL     1      39.825  44.453  63.593  1.00  0.00    -0.343 N 
HETATM    4  O   UNL     1      41.015  45.657  65.027  1.00  0.00    -0.247 OA
HETATM    5  H   UNL     1      38.282  46.328  63.577  1.00  0.00     0.170 HD
HETATM    6  H   UNL     1      40.616  43.822  63.666  1.00  0.00     0.164 HD
ENDROOT
BRANCH   3   7
HETATM    7  C   UNL     1      38.762  44.086  62.671  1.00  0.00     0.129 C 
BRANCH   7   8
HETATM    8  C   UNL     1      37.824  43.002  63.214  1.00  0.00     0.058 C 
BRANCH   8   9
HETATM    9  C   UNL     1      38.540  41.739  63.628  1.00  0.00    -0.057 A 
HETATM   10  C   UNL     1      39.041  40.859  62.662  1.00  0.00     0.009 A 
HETATM   11  C   UNL     1      39.720  39.699  63.045  1.00  0.00     0.032 A 
HETATM   12  C   UNL     1      39.902  39.396  64.402  1.00  0.00     0.058 A 
HETATM   13  C   UNL     1      39.389  40.267  65.372  1.00  0.00     0.032 A 
HETATM   14  C   UNL     1      38.715  41.430  64.983  1.00  0.00     0.009 A 
BRANCH  12  15
HETATM   15  N   UNL     1      40.610  38.218  64.766  1.00  0.00    -0.246 N 
HETATM   16  N   UNL     1      41.845  37.957  64.257  1.00  0.00    -0.180 NA
HETATM   17  C   UNL     1      42.209  36.803  64.816  1.00  0.00     0.140 A 
HETATM   18  C   UNL     1      41.231  36.293  65.679  1.00  0.00     0.040 A 
HETATM   19  C   UNL     1      40.214  37.216  65.630  1.00  0.00     0.120 A 
ENDBRANCH  12  15
ENDBRANCH   8   9
ENDBRANCH   7   8
ENDBRANCH   3   7
BRANCH   1  20
HETATM   20  C   UNL     1      38.916  47.750  64.919  1.00  0.00     0.036 A 
HETATM   21  C   UNL     1      39.706  48.857  64.621  1.00  0.00     0.030 A 
HETATM   22  C   UNL     1      39.562  50.046  65.344  1.00  0.00     0.018 A 
HETATM   23  C   UNL     1      38.613  50.152  66.371  1.00  0.00     0.015 A 
HETATM   24  C   UNL     1      37.798  49.046  66.678  1.00  0.00    -0.046 A 
HETATM   25  C   UNL     1      36.751  49.085  67.758  1.00  0.00     0.049 C 
HETATM   26  C   UNL     1      37.976  47.851  65.955  1.00  0.00     0.037 A 
BRANCH  23  27
HETATM   27  C   UNL     1      38.510  51.434  67.131  1.00  0.00     0.156 C 
HETATM   28  C   UNL     1      37.672  52.546  66.552  1.00  0.00     0.097 C 
HETATM   29  O   UNL     1      39.117  51.584  68.188  1.00  0.00    -0.293 OA
ENDBRANCH  23  27
ENDBRANCH   1  20
TORSDOF 6
ENDMDL
